REMARK  13 active torsions:
REMARK  status: ('A' for Active; 'I' for Inactive)
REMARK    1  A    between atoms: N_1  and  CA_2 
REMARK    2  A    between atoms: CA_2  and  C_3 
REMARK    3  A    between atoms: CA_2  and  CB_5 
REMARK       I    between atoms: C_3  and  N_9 
REMARK    4  A    between atoms: CB_5  and  CG_6 
REMARK    5  A    between atoms: CG_6  and  SD_7 
REMARK    6  A    between atoms: SD_7  and  CE_8 
REMARK    7  A    between atoms: N_9  and  CA_10 
REMARK    8  A    between atoms: CA_10  and  C_11 
REMARK    9  A    between atoms: CA_10  and  CB_13 
REMARK       I    between atoms: C_11  and  N_14 
REMARK   10  A    between atoms: N_14  and  CA_15 
REMARK   11  A    between atoms: CA_15  and  C_16 
REMARK   12  A    between atoms: CA_15  and  CB_18 
REMARK   13  A    between atoms: CB_18  and  OG_19 
ROOT
ATOM      1  C   MET d   1       8.944  -6.810 -16.849  0.00  0.00     0.249 C 
ATOM      2  O   MET d   1       8.803  -5.888 -16.055  0.00  0.00    -0.271 OA
ATOM      3  N   ALA d   1       9.336  -6.619 -18.111  0.00  0.00    -0.346 N 
ATOM      4  H   ALA d   1       9.496  -7.423 -18.684  0.00  0.00     0.163 HD
ENDROOT
BRANCH   3   5
ATOM      5  CA  ALA d   1       9.548  -5.275 -18.711  0.00  0.00     0.086 C 
ATOM      6  H   ALA d   1      10.365  -4.750 -18.194  0.00  0.00     0.086 H 
BRANCH   5   7
ATOM      7  C   ALA d   1       8.267  -4.473 -18.590  0.00  0.00     0.240 C 
ATOM      8  O   ALA d   1       7.214  -5.052 -18.777  0.00  0.00    -0.271 OA
ATOM      9  N   SER d   1       8.343  -3.184 -18.280  0.00  0.00    -0.343 N 
ATOM     10  H   SER d   1       9.245  -2.759 -18.200  0.00  0.00     0.163 HD
BRANCH   9  11
ATOM     11  CA  SER d   1       7.159  -2.368 -18.052  0.00  0.00     0.116 C 
ATOM     12  H   SER d   1       6.351  -3.018 -17.685  0.00  0.00     0.093 H 
BRANCH  11  13
ATOM     13  C   SER d   1       6.685  -1.628 -19.291  0.00  0.00     0.198 C 
ATOM     14  O   SER d   1       7.342  -1.684 -20.350  0.00  0.00    -0.646 OA
ATOM     15  O1  SER d   1       5.622  -0.953 -19.249  0.00  0.00    -0.646 OA
ENDBRANCH  11  13
BRANCH  11  16
ATOM     16  CB  SER d   1       7.467  -1.309 -17.041  0.00  0.00     0.045 C 
ATOM     17  H   SER d   1       8.081  -1.738 -16.235  0.00  0.00     0.077 H 
ATOM     18  H   SER d   1       6.529  -0.920 -16.619  0.00  0.00     0.077 H 
BRANCH  16  19
ATOM     19  OG  SER d   1       8.170  -0.266 -17.662  0.00  0.00    -0.398 OA
ATOM     20  H   SER d   1       7.638   0.103 -18.358  0.00  0.00     0.209 HD
ENDBRANCH  16  19
ENDBRANCH  11  16
ENDBRANCH   9  11
ENDBRANCH   5   7
BRANCH   5  21
ATOM     21  CB  ALA d   1       9.901  -5.481 -20.159  0.00  0.00    -0.049 C 
ATOM     22  H   ALA d   1      10.066  -4.505 -20.639  0.00  0.00     0.030 H 
ATOM     23  H   ALA d   1       9.077  -6.004 -20.666  0.00  0.00     0.030 H 
ATOM     24  H   ALA d   1      10.818  -6.084 -20.231  0.00  0.00     0.030 H 
ENDBRANCH   5  21
ENDBRANCH   3   5
BRANCH   1  25
ATOM     25  CA  MET d   1       8.680  -8.232 -16.392  0.00  0.00     0.176 C 
ATOM     26  H   MET d   1       9.307  -8.957 -16.932  0.00  0.00     0.099 H 
BRANCH  25  27
ATOM     27  N   MET d   1       9.008  -8.166 -14.972  0.00  0.00    -0.066 N 
ATOM     28  H   MET d   1       8.868  -9.072 -14.552  0.00  0.00     0.275 HD
ATOM     29  H   MET d   1       8.411  -7.491 -14.520  0.00  0.00     0.275 HD
ATOM     30  H   MET d   1       9.971  -7.890 -14.862  0.00  0.00     0.275 HD
ENDBRANCH  25  27
BRANCH  25  31
ATOM     31  CB  MET d   1       7.197  -8.595 -16.534  0.00  0.00    -0.022 C 
ATOM     32  H   MET d   1       6.596  -7.676 -16.472  0.00  0.00     0.037 H 
ATOM     33  H   MET d   1       6.915  -9.273 -15.715  0.00  0.00     0.037 H 
BRANCH  31  34
ATOM     34  CG  MET d   1       6.921  -9.265 -17.833  0.00  0.00    -0.021 C 
ATOM     35  H   MET d   1       7.562 -10.156 -17.895  0.00  0.00     0.049 H 
ATOM     36  H   MET d   1       7.189  -8.564 -18.637  0.00  0.00     0.049 H 
BRANCH  34  37
ATOM     37  SD  MET d   1       5.256  -9.779 -18.099  0.00  0.00    -0.173 SA
BRANCH  37  38
ATOM     38  CE  MET d   1       4.439  -8.225 -18.388  0.00  0.00    -0.035 C 
ATOM     39  H   MET d   1       3.369  -8.402 -18.572  0.00  0.00     0.041 H 
ATOM     40  H   MET d   1       4.886  -7.733 -19.265  0.00  0.00     0.041 H 
ATOM     41  H   MET d   1       4.557  -7.579 -17.506  0.00  0.00     0.041 H 
ENDBRANCH  37  38
ENDBRANCH  34  37
ENDBRANCH  31  34
ENDBRANCH  25  31
ENDBRANCH   1  25
TORSDOF 13
