REMARK  10 active torsions:
REMARK  status: ('A' for Active; 'I' for Inactive)
REMARK    1  A    between atoms: SBK_37  and  N_2 
REMARK    2  A    between atoms: OAU_24  and  CAA_6 
REMARK    3  A    between atoms: OAV_25  and  CAB_7 
REMARK    4  A    between atoms: CAR_21  and  CAN_18 
REMARK    5  A    between atoms: CAN_18  and  OAW_26 
REMARK    6  A    between atoms: NBI_36  and  CAR_21 
REMARK    7  A    between atoms: CBB_30  and  OAU_24 
REMARK    8  A    between atoms: CBC_31  and  OAV_25 
REMARK    9  A    between atoms: OAW_26  and  CAZ_28 
REMARK   10  A    between atoms: CBA_29  and  SBK_37 
ROOT
ATOM      1  C   JFK d   1      11.333 -14.297 -17.904  0.00  0.00     0.243 C 
ATOM      2  N   JFK d   1       8.985 -14.018 -18.144  0.00  0.00    -0.288 N 
ATOM      3  O   JFK d   1      12.418 -14.044 -17.388  0.00  0.00    -0.271 OA
ATOM      4  CA  JFK d   1      10.192 -13.697 -17.330  0.00  0.00     0.100 C 
ATOM      5  CB  JFK d   1      10.056 -14.145 -15.883  0.00  0.00    -0.037 C 
ATOM      6  CAM JFK d   1       9.731 -15.625 -15.860  0.00  0.00    -0.061 C 
ATOM      7  CAO JFK d   1       8.383 -15.868 -16.517  0.00  0.00    -0.045 C 
ATOM      8  CAQ JFK d   1       9.271 -16.360 -18.836  0.00  0.00    -0.030 C 
ATOM      9  CAS JFK d   1      10.169 -15.503 -19.734  0.00  0.00    -0.000 C 
ATOM     10  CBG JFK d   1       8.432 -15.395 -17.969  0.00  0.00     0.025 C 
ATOM     11  NBI JFK d   1      11.356 -15.120 -18.974  0.00  0.00    -0.348 N 
ATOM     12  H1  JFK d   1      10.327 -12.605 -17.338  0.00  0.00     0.088 H 
ATOM     13  H2  JFK d   1       9.247 -13.581 -15.396  0.00  0.00     0.036 H 
ATOM     14  H3  JFK d   1      11.001 -13.966 -15.350  0.00  0.00     0.036 H 
ATOM     15  H16 JFK d   1       9.697 -15.975 -14.818  0.00  0.00     0.033 H 
ATOM     16  H17 JFK d   1      10.509 -16.178 -16.407  0.00  0.00     0.033 H 
ATOM     17  H20 JFK d   1       7.605 -15.310 -15.976  0.00  0.00     0.036 H 
ATOM     18  H21 JFK d   1       8.150 -16.943 -16.489  0.00  0.00     0.036 H 
ATOM     19  H22 JFK d   1       9.888 -17.005 -18.192  0.00  0.00     0.038 H 
ATOM     20  H23 JFK d   1       8.608 -16.985 -19.453  0.00  0.00     0.038 H 
ATOM     21  H26 JFK d   1       9.624 -14.601 -20.051  0.00  0.00     0.064 H 
ATOM     22  H27 JFK d   1      10.467 -16.082 -20.621  0.00  0.00     0.064 H 
ATOM     23  H29 JFK d   1       7.399 -15.394 -18.348  0.00  0.00     0.073 H 
ENDROOT
BRANCH  11  24
ATOM     24  CAR JFK d   1      12.695 -15.675 -19.356  0.00  0.00     0.018 C 
ATOM     25  H24 JFK d   1      13.422 -15.366 -18.590  0.00  0.00     0.067 H 
ATOM     26  H25 JFK d   1      12.617 -16.772 -19.366  0.00  0.00     0.067 H 
BRANCH  24  27
ATOM     27  CAN JFK d   1      13.226 -15.226 -20.721  0.00  0.00     0.041 C 
ATOM     28  H18 JFK d   1      12.451 -15.363 -21.489  0.00  0.00     0.077 H 
ATOM     29  H19 JFK d   1      14.116 -15.814 -20.990  0.00  0.00     0.077 H 
BRANCH  27  30
ATOM     30  OAW JFK d   1      13.564 -13.860 -20.615  0.00  0.00    -0.349 OA
BRANCH  30  31
ATOM     31  CAZ JFK d   1      14.771 -13.517 -20.060  0.00  0.00     0.071 A 
ATOM     32  CAG JFK d   1      15.598 -14.432 -19.412  0.00  0.00    -0.048 A 
ATOM     33  CAH JFK d   1      16.812 -14.009 -18.864  0.00  0.00    -0.045 A 
ATOM     34  H10 JFK d   1      15.300 -15.471 -19.333  0.00  0.00     0.087 H 
ATOM     35  CBB JFK d   1      17.196 -12.674 -18.955  0.00  0.00     0.101 A 
ATOM     36  H11 JFK d   1      17.457 -14.723 -18.366  0.00  0.00     0.088 H 
ATOM     37  CBC JFK d   1      16.371 -11.771 -19.600  0.00  0.00     0.104 A 
ATOM     38  CAK JFK d   1      15.171 -12.189 -20.148  0.00  0.00    -0.016 A 
ATOM     39  H14 JFK d   1      14.535 -11.471 -20.653  0.00  0.00     0.092 H 
BRANCH  35  40
ATOM     40  OAU JFK d   1      18.360 -12.159 -18.452  0.00  0.00    -0.353 OA
BRANCH  40  41
ATOM     41  CAA JFK d   1      19.094 -13.106 -17.674  0.00  0.00     0.010 C 
ATOM     42  H4  JFK d   1      20.015 -12.636 -17.298  0.00  0.00     0.066 H 
ATOM     43  H5  JFK d   1      19.353 -13.973 -18.300  0.00  0.00     0.066 H 
ATOM     44  H6  JFK d   1      18.479 -13.438 -16.825  0.00  0.00     0.066 H 
ENDBRANCH  40  41
ENDBRANCH  35  40
BRANCH  37  45
ATOM     45  OAV JFK d   1      16.807 -10.484 -19.659  0.00  0.00    -0.353 OA
BRANCH  45  46
ATOM     46  CAB JFK d   1      15.911  -9.651 -20.399  0.00  0.00     0.010 C 
ATOM     47  H7  JFK d   1      16.301  -8.623 -20.422  0.00  0.00     0.066 H 
ATOM     48  H8  JFK d   1      14.922  -9.658 -19.918  0.00  0.00     0.066 H 
ATOM     49  H9  JFK d   1      15.821 -10.032 -21.427  0.00  0.00     0.066 H 
ENDBRANCH  45  46
ENDBRANCH  37  45
ENDBRANCH  30  31
ENDBRANCH  27  30
ENDBRANCH  24  27
ENDBRANCH  11  24
BRANCH   2  50
ATOM     50  SBK JFK d   1       7.787 -12.795 -18.178  0.00  0.00     0.262 S 
ATOM     51  OAE JFK d   1       8.424 -11.481 -17.828  0.00  0.00    -0.200 OA
ATOM     52  OAF JFK d   1       6.618 -13.183 -17.309  0.00  0.00    -0.200 OA
BRANCH  50  53
ATOM     53  CBA JFK d   1       7.180 -12.742 -19.818  0.00  0.00     0.081 A 
ATOM     54  CAI JFK d   1       6.094 -13.518 -20.111  0.00  0.00    -0.058 A 
ATOM     55  CAJ JFK d   1       5.550 -13.541 -21.384  0.00  0.00    -0.054 A 
ATOM     56  H12 JFK d   1       5.650 -14.127 -19.332  0.00  0.00     0.086 H 
ATOM     57  CBE JFK d   1       6.076 -12.794 -22.346  0.00  0.00     0.052 A 
ATOM     58  H13 JFK d   1       4.693 -14.170 -21.595  0.00  0.00     0.087 H 
ATOM     59  NAT JFK d   1       5.655 -12.704 -23.624  0.00  0.00    -0.316 N 
ATOM     60  CBF JFK d   1       7.145 -12.018 -22.069  0.00  0.00     0.038 A 
ATOM     61  CBD JFK d   1       6.392 -11.866 -24.347  0.00  0.00     0.289 A 
ATOM     62  H28 JFK d   1       4.874 -13.212 -23.988  0.00  0.00     0.170 HD
ATOM     63  OAD JFK d   1       6.223 -11.608 -25.534  0.00  0.00    -0.260 OA
ATOM     64  SAX JFK d   1       7.517 -11.253 -23.465  0.00  0.00    -0.027 SA
ATOM     65  CAL JFK d   1       7.704 -11.975 -20.847  0.00  0.00    -0.041 A 
ATOM     66  H15 JFK d   1       8.564 -11.341 -20.666  0.00  0.00     0.088 H 
ENDBRANCH  50  53
ENDBRANCH   2  50
TORSDOF 10
