REMARK  12 active torsions:
REMARK  status: ('A' for Active; 'I' for Inactive)
REMARK    1  A    between atoms: CAB_1  and  OAU_2 
REMARK    2  A    between atoms: OAU_2  and  CBC_3 
REMARK    3  A    between atoms: CBB_5  and  OAT_6 
REMARK    4  A    between atoms: OAT_6  and  CAA_7 
REMARK    5  A    between atoms: CAZ_10  and  OAW_11 
REMARK    6  A    between atoms: OAW_11  and  CAP_12 
REMARK    7  A    between atoms: CAP_12  and  CAO_13 
REMARK    8  A    between atoms: CAO_13  and  OAV_14 
REMARK    9  A    between atoms: OAV_14  and  C_15 
REMARK   10  A    between atoms: C_15  and  CA_17 
REMARK   11  A    between atoms: N_22  and  S1_23 
REMARK   12  A    between atoms: S1_23  and  CBA_26 
ROOT
ATOM      1  CA  1KZ d   1       9.954  13.803  16.823  0.00  0.00     0.106 C 
ATOM      2  CB  1KZ d   1      10.020  14.137  15.378  0.00  0.00    -0.036 C 
ATOM      3  CAM 1KZ d   1       9.653  15.615  15.120  0.00  0.00    -0.061 C 
ATOM      4  CAN 1KZ d   1       8.287  15.995  15.663  0.00  0.00    -0.049 C 
ATOM      5  CAR 1KZ d   1       8.192  15.608  17.132  0.00  0.00     0.006 C 
ATOM      6  N   1KZ d   1       8.585  14.181  17.247  0.00  0.00    -0.292 N 
ATOM      7  H14 1KZ d   1      10.040  12.713  16.941  0.00  0.00     0.089 H 
ATOM      8  H15 1KZ d   1       9.316  13.493  14.830  0.00  0.00     0.036 H 
ATOM      9  H16 1KZ d   1      11.042  13.954  15.015  0.00  0.00     0.036 H 
ATOM     10  H17 1KZ d   1       9.660  15.793  14.034  0.00  0.00     0.033 H 
ATOM     11  H18 1KZ d   1      10.410  16.252  15.601  0.00  0.00     0.033 H 
ATOM     12  H19 1KZ d   1       7.508  15.466  15.095  0.00  0.00     0.035 H 
ATOM     13  H20 1KZ d   1       8.142  17.081  15.561  0.00  0.00     0.035 H 
ATOM     14  H21 1KZ d   1       7.160  15.743  17.489  0.00  0.00     0.065 H 
ATOM     15  H22 1KZ d   1       8.872  16.233  17.729  0.00  0.00     0.065 H 
ENDROOT
BRANCH   1  16
ATOM     16  C   1KZ d   1      11.088  14.377  17.524  0.00  0.00     0.282 C 
ATOM     17  O   1KZ d   1      12.205  14.210  17.107  0.00  0.00    -0.263 OA
BRANCH  16  18
ATOM     18  OAV 1KZ d   1      10.783  15.082  18.563  0.00  0.00    -0.318 OA
BRANCH  18  19
ATOM     19  CAO 1KZ d   1      11.795  15.868  19.166  0.00  0.00     0.049 C 
ATOM     20  H12 1KZ d   1      12.679  15.249  19.380  0.00  0.00     0.078 H 
ATOM     21  H13 1KZ d   1      12.080  16.695  18.499  0.00  0.00     0.078 H 
BRANCH  19  22
ATOM     22  CAP 1KZ d   1      11.232  16.397  20.418  0.00  0.00     0.046 C 
ATOM     23  H10 1KZ d   1      10.636  15.636  20.943  0.00  0.00     0.078 H 
ATOM     24  H11 1KZ d   1      12.022  16.770  21.087  0.00  0.00     0.078 H 
BRANCH  22  25
ATOM     25  OAW 1KZ d   1      10.439  17.424  19.954  0.00  0.00    -0.349 OA
BRANCH  25  26
ATOM     26  CAZ 1KZ d   1       9.729  17.887  21.004  0.00  0.00     0.071 A 
ATOM     27  CAK 1KZ d   1       8.407  18.216  20.766  0.00  0.00    -0.016 A 
ATOM     28  CBC 1KZ d   1       7.621  18.716  21.816  0.00  0.00     0.104 A 
ATOM     29  H4  1KZ d   1       7.981  18.089  19.777  0.00  0.00     0.092 H 
ATOM     30  CBB 1KZ d   1       8.157  18.860  23.122  0.00  0.00     0.101 A 
ATOM     31  CAH 1KZ d   1       9.487  18.515  23.346  0.00  0.00    -0.045 A 
ATOM     32  CAG 1KZ d   1      10.274  18.028  22.295  0.00  0.00    -0.048 A 
ATOM     33  H8  1KZ d   1       9.914  18.624  24.336  0.00  0.00     0.088 H 
ATOM     34  H9  1KZ d   1      11.308  17.758  22.476  0.00  0.00     0.087 H 
BRANCH  28  35
ATOM     35  OAU 1KZ d   1       6.301  19.042  21.600  0.00  0.00    -0.353 OA
BRANCH  35  36
ATOM     36  CAB 1KZ d   1       6.124  19.695  20.349  0.00  0.00     0.010 C 
ATOM     37  H1  1KZ d   1       5.061  19.940  20.210  0.00  0.00     0.066 H 
ATOM     38  H2  1KZ d   1       6.456  19.030  19.538  0.00  0.00     0.066 H 
ATOM     39  H3  1KZ d   1       6.719  20.620  20.331  0.00  0.00     0.066 H 
ENDBRANCH  35  36
ENDBRANCH  28  35
BRANCH  30  40
ATOM     40  OAT 1KZ d   1       7.364  19.319  24.136  0.00  0.00    -0.353 OA
BRANCH  40  41
ATOM     41  CAA 1KZ d   1       7.360  20.768  24.275  0.00  0.00     0.010 C 
ATOM     42  H5  1KZ d   1       6.702  21.055  25.108  0.00  0.00     0.066 H 
ATOM     43  H6  1KZ d   1       6.993  21.225  23.344  0.00  0.00     0.066 H 
ATOM     44  H7  1KZ d   1       8.382  21.120  24.478  0.00  0.00     0.066 H 
ENDBRANCH  40  41
ENDBRANCH  30  40
ENDBRANCH  25  26
ENDBRANCH  22  25
ENDBRANCH  19  22
ENDBRANCH  18  19
ENDBRANCH  16  18
ENDBRANCH   1  16
BRANCH   6  45
ATOM     45  S1  1KZ d   1       7.632  13.176  18.074  0.00  0.00     0.261 S 
ATOM     46  OAE 1KZ d   1       8.225  11.903  17.995  0.00  0.00    -0.200 OA
ATOM     47  OAF 1KZ d   1       6.303  13.303  17.537  0.00  0.00    -0.200 OA
BRANCH  45  48
ATOM     48  CBA 1KZ d   1       7.534  13.722  19.709  0.00  0.00     0.081 A 
ATOM     49  CAL 1KZ d   1       6.485  14.487  20.133  0.00  0.00    -0.041 A 
ATOM     50  CBF 1KZ d   1       6.420  14.853  21.416  0.00  0.00     0.038 A 
ATOM     51  H23 1KZ d   1       5.714  14.794  19.436  0.00  0.00     0.088 H 
ATOM     52  SAX 1KZ d   1       5.245  15.757  22.280  0.00  0.00    -0.027 SA
ATOM     53  CBE 1KZ d   1       7.433  14.518  22.290  0.00  0.00     0.052 A 
ATOM     54  CBD 1KZ d   1       6.068  15.682  23.708  0.00  0.00     0.289 A 
ATOM     55  OAD 1KZ d   1       5.713  16.159  24.782  0.00  0.00    -0.260 OA
ATOM     56  NAS 1KZ d   1       7.217  14.982  23.536  0.00  0.00    -0.316 N 
ATOM     57  H24 1KZ d   1       7.861  14.821  24.284  0.00  0.00     0.170 HD
ATOM     58  CAJ 1KZ d   1       8.519  13.820  21.902  0.00  0.00    -0.054 A 
ATOM     59  CAI 1KZ d   1       8.561  13.403  20.552  0.00  0.00    -0.058 A 
ATOM     60  H25 1KZ d   1       9.322  13.589  22.593  0.00  0.00     0.087 H 
ATOM     61  H26 1KZ d   1       9.406  12.831  20.186  0.00  0.00     0.086 H 
ENDBRANCH  45  48
ENDBRANCH   6  45
TORSDOF 12
