REMARK  7 active torsions:
REMARK  status: ('A' for Active; 'I' for Inactive)
REMARK    1  A    between atoms: CAQ_1  and  OAP_2 
REMARK    2  A    between atoms: OAP_2  and  CAM_3 
REMARK    3  A    between atoms: CAJ_8  and  CAE_9 
REMARK    4  A    between atoms: CAG_10  and  OAD_11 
REMARK    5  A    between atoms: CAA_12  and  OAC_13 
REMARK    6  A    between atoms: CAF_14  and  CAB_15 
REMARK    7  A    between atoms: NAH_16  and  CAI_17 
ROOT
ATOM      1  CAE 16Z d   1     -16.253  11.361  31.804  0.00  0.00     0.156 C 
ATOM      2  CAG 16Z d   1     -14.777  10.966  31.790  0.00  0.00     0.094 C 
ATOM      3  CAA 16Z d   1     -14.895   9.471  31.359  0.00  0.00     0.089 C 
ATOM      4  CAF 16Z d   1     -15.998   9.019  32.260  0.00  0.00     0.128 C 
ATOM      5  NAH 16Z d   1     -16.964  10.050  31.930  0.00  0.00    -0.058 N 
ATOM      6  H8  16Z d   1     -16.500  11.806  30.829  0.00  0.00     0.096 H 
ATOM      7  H9  16Z d   1     -14.317  11.048  32.786  0.00  0.00     0.090 H 
ATOM      8  H11 16Z d   1     -13.966   8.923  31.574  0.00  0.00     0.090 H 
ATOM      9  H13 16Z d   1     -15.713   9.075  33.321  0.00  0.00     0.088 H 
ATOM     10  H17 16Z d   1     -17.302   9.839  31.004  0.00  0.00     0.281 HD
ENDROOT
BRANCH   1  11
ATOM     11  CAJ 16Z d   1     -16.640  12.323  32.798  0.00  0.00    -0.025 A 
ATOM     12  CAO 16Z d   1     -17.579  13.302  32.450  0.00  0.00    -0.072 A 
ATOM     13  CAN 16Z d   1     -17.998  14.235  33.387  0.00  0.00    -0.050 A 
ATOM     14  H5  16Z d   1     -17.980  13.331  31.443  0.00  0.00     0.084 H 
ATOM     15  CAM 16Z d   1     -17.510  14.202  34.699  0.00  0.00     0.068 A 
ATOM     16  H4  16Z d   1     -18.712  14.999  33.100  0.00  0.00     0.087 H 
ATOM     17  CAL 16Z d   1     -16.570  13.229  35.071  0.00  0.00    -0.050 A 
ATOM     18  CAK 16Z d   1     -16.151  12.299  34.120  0.00  0.00    -0.072 A 
ATOM     19  H6  16Z d   1     -16.176  13.201  36.081  0.00  0.00     0.087 H 
ATOM     20  H7  16Z d   1     -15.432  11.539  34.404  0.00  0.00     0.084 H 
BRANCH  15  21
ATOM     21  OAP 16Z d   1     -17.986  15.151  35.564  0.00  0.00    -0.356 OA
BRANCH  21  22
ATOM     22  CAQ 16Z d   1     -17.747  15.006  37.018  0.00  0.00     0.010 C 
ATOM     23  H1  16Z d   1     -18.199  15.856  37.550  0.00  0.00     0.066 H 
ATOM     24  H2  16Z d   1     -16.664  14.986  37.211  0.00  0.00     0.066 H 
ATOM     25  H3  16Z d   1     -18.200  14.069  37.373  0.00  0.00     0.066 H 
ENDBRANCH  21  22
ENDBRANCH  15  21
ENDBRANCH   1  11
BRANCH   2  26
ATOM     26  OAD 16Z d   1     -14.073  11.825  30.876  0.00  0.00    -0.390 OA
ATOM     27  H10 16Z d   1     -13.154  11.585  30.862  0.00  0.00     0.210 HD
ENDBRANCH   2  26
BRANCH   5  28
ATOM     28  CAI 16Z d   1     -18.155   9.993  32.784  0.00  0.00     0.068 C 
ATOM     29  H18 16Z d   1     -18.853  10.792  32.494  0.00  0.00     0.068 H 
ATOM     30  H19 16Z d   1     -17.860  10.128  33.835  0.00  0.00     0.068 H 
ATOM     31  H20 16Z d   1     -18.646   9.016  32.664  0.00  0.00     0.068 H 
ENDBRANCH   5  28
BRANCH   3  32
ATOM     32  OAC 16Z d   1     -15.206   9.321  29.908  0.00  0.00    -0.391 OA
ATOM     33  H12 16Z d   1     -14.515   9.722  29.394  0.00  0.00     0.210 HD
ENDBRANCH   3  32
BRANCH   4  34
ATOM     34  CAB 16Z d   1     -16.401   7.593  31.947  0.00  0.00    -0.047 C 
ATOM     35  H14 16Z d   1     -17.213   7.285  32.622  0.00  0.00     0.030 H 
ATOM     36  H15 16Z d   1     -15.536   6.928  32.086  0.00  0.00     0.030 H 
ATOM     37  H16 16Z d   1     -16.747   7.530  30.905  0.00  0.00     0.030 H 
ENDBRANCH   4  34
TORSDOF 7
