REMARK  8 active torsions:
REMARK  status: ('A' for Active; 'I' for Inactive)
REMARK    1  A    between atoms: C1_1  and  C14_13 
REMARK    2  A    between atoms: C2_2  and  C15_14 
REMARK    3  A    between atoms: C3_3  and  C13_12 
REMARK    4  A    between atoms: N1_8  and  C10_10 
REMARK    5  A    between atoms: C10_10  and  C7_11 
REMARK       I    between atoms: C7_11  and  N2_23 
REMARK    6  A    between atoms: C15_14  and  N16_15 
REMARK    7  A    between atoms: N2_23  and  C25_24 
REMARK    8  A    between atoms: N2_23  and  C8_27 
ROOT
ATOM      1  C1  1MD d   1      48.173  50.117  35.399  0.00  0.00     0.004 A 
ATOM      2  C2  1MD d   1      47.144  50.888  34.748  0.00  0.00     0.004 A 
ATOM      3  C3  1MD d   1      47.407  51.460  33.458  0.00  0.00     0.040 A 
ATOM      4  N4  1MD d   1      48.560  51.246  32.785  0.00  0.00    -0.255 NA
ATOM      5  C4  1MD d   1      49.375  49.977  34.707  0.00  0.00     0.070 A 
ATOM      6  C6  1MD d   1      49.520  50.545  33.448  0.00  0.00     0.069 A 
ATOM      7  C5  1MD d   1      50.899  50.326  32.949  0.00  0.00     0.039 A 
ATOM      8  N1  1MD d   1      51.465  49.531  34.027  0.00  0.00    -0.334 N 
ATOM      9  C9  1MD d   1      50.631  49.332  35.064  0.00  0.00     0.257 A 
ATOM     10  O1  1MD d   1      50.973  48.714  36.082  0.00  0.00    -0.267 OA
ATOM     11  H1  1MD d   1      51.438  51.276  32.823  0.00  0.00     0.074 H 
ATOM     12  H2  1MD d   1      50.901  49.774  31.997  0.00  0.00     0.074 H 
ENDROOT
BRANCH   8  13
ATOM     13  C10 1MD d   1      52.641  48.660  33.938  0.00  0.00     0.072 C 
ATOM     14  H3  1MD d   1      52.970  48.376  34.949  0.00  0.00     0.079 H 
ATOM     15  H4  1MD d   1      53.456  49.189  33.422  0.00  0.00     0.079 H 
BRANCH  13  16
ATOM     16  C7  1MD d   1      52.258  47.402  33.146  0.00  0.00     0.237 C 
ATOM     17  N2  1MD d   1      53.328  46.576  32.884  0.00  0.00    -0.359 N 
ATOM     18  O2  1MD d   1      51.066  47.199  32.801  0.00  0.00    -0.272 OA
BRANCH  17  19
ATOM     19  C25 1MD d   1      53.203  45.273  32.146  0.00  0.00    -0.017 C 
ATOM     20  H16 1MD d   1      54.193  44.801  32.064  0.00  0.00     0.056 H 
ATOM     21  H17 1MD d   1      52.801  45.459  31.139  0.00  0.00     0.056 H 
ATOM     22  H18 1MD d   1      52.523  44.605  32.694  0.00  0.00     0.056 H 
ENDBRANCH  17  19
BRANCH  17  23
ATOM     23  C8  1MD d   1      54.611  46.973  33.523  0.00  0.00    -0.017 C 
ATOM     24  H19 1MD d   1      54.492  47.953  34.007  0.00  0.00     0.056 H 
ATOM     25  H20 1MD d   1      55.398  47.036  32.757  0.00  0.00     0.056 H 
ATOM     26  H21 1MD d   1      54.892  46.223  34.277  0.00  0.00     0.056 H 
ENDBRANCH  17  23
ENDBRANCH  13  16
ENDBRANCH   8  13
BRANCH   1  27
ATOM     27  C14 1MD d   1      48.056  49.609  36.795  0.00  0.00    -0.002 A 
ATOM     28  C17 1MD d   1      47.441  48.347  37.077  0.00  0.00    -0.069 A 
ATOM     29  C18 1MD d   1      47.359  47.924  38.458  0.00  0.00    -0.061 A 
ATOM     30  H13 1MD d   1      47.048  47.727  36.279  0.00  0.00     0.085 H 
ATOM     31  C19 1MD d   1      47.881  48.745  39.512  0.00  0.00     0.035 A 
ATOM     32  H14 1MD d   1      46.897  46.974  38.700  0.00  0.00     0.086 H 
ATOM     33  C20 1MD d   1      48.480  50.044  39.276  0.00  0.00    -0.040 A 
ATOM     34 CL2  1MD d   1      47.816  48.178  41.120  0.00  0.00    -0.084 Cl
ATOM     35  C21 1MD d   1      48.531  50.406  37.895  0.00  0.00     0.046 A 
ATOM     36  H15 1MD d   1      48.853  50.679  40.071  0.00  0.00     0.088 H 
ATOM     37 CL1  1MD d   1      49.233  51.913  37.604  0.00  0.00    -0.083 Cl
ENDBRANCH   1  27
BRANCH   3  38
ATOM     38  C13 1MD d   1      46.489  52.387  32.732  0.00  0.00    -0.035 C 
ATOM     39  H5  1MD d   1      46.940  52.670  31.769  0.00  0.00     0.035 H 
ATOM     40  H6  1MD d   1      46.324  53.290  33.339  0.00  0.00     0.035 H 
ATOM     41  H7  1MD d   1      45.527  51.885  32.553  0.00  0.00     0.035 H 
ENDBRANCH   3  38
BRANCH   2  42
ATOM     42  C15 1MD d   1      45.754  51.010  35.322  0.00  0.00     0.106 C 
ATOM     43  H8  1MD d   1      45.398  50.005  35.593  0.00  0.00     0.082 H 
ATOM     44  H9  1MD d   1      45.094  51.438  34.553  0.00  0.00     0.082 H 
BRANCH  42  45
ATOM     45  N16 1MD d   1      45.699  51.860  36.509  0.00  0.00    -0.075 N 
ATOM     46  H10 1MD d   1      44.750  51.904  36.847  0.00  0.00     0.274 HD
ATOM     47  H11 1MD d   1      46.015  52.788  36.273  0.00  0.00     0.274 HD
ATOM     48  H12 1MD d   1      46.294  51.475  37.226  0.00  0.00     0.274 HD
ENDBRANCH  42  45
ENDBRANCH   2  42
TORSDOF 8
