REMARK  7 active torsions:
REMARK  status: ('A' for Active; 'I' for Inactive)
REMARK    1  A    between atoms: C24_1  and  O1_2 
REMARK    2  A    between atoms: O1_2  and  C10_3 
REMARK    3  A    between atoms: C7_8  and  C3_9 
REMARK    4  A    between atoms: C6_13  and  N4_18 
REMARK    5  A    between atoms: N4_18  and  C13_19 
REMARK    6  A    between atoms: C16_22  and  N5_25 
REMARK    7  A    between atoms: N6_28  and  C23_29 
ROOT
ATOM      1  N4  1K3 d   1       9.926 -27.142 -19.611  0.00  0.00    -0.189 N 
ATOM      2  H12 1K3 d   1       9.367 -27.907 -19.207  0.00  0.00     0.184 HD
ENDROOT
BRANCH   1   3
ATOM      3  C6  1K3 d   1      11.273 -27.385 -19.704  0.00  0.00     0.723 A 
ATOM      4  N2  1K3 d   1      12.169 -26.491 -20.129  0.00  0.00     0.026 NA
ATOM      5  N1  1K3 d   1      13.325 -27.253 -20.047  0.00  0.00    -0.201 N 
ATOM      6  C3  1K3 d   1      14.544 -26.782 -20.377  0.00  0.00     0.071 A 
ATOM      7  C4  1K3 d   1      13.118 -28.500 -19.626  0.00  0.00     0.145 A 
ATOM      8  C2  1K3 d   1      15.644 -27.626 -20.258  0.00  0.00    -0.054 A 
ATOM      9  C1  1K3 d   1      15.463 -28.925 -19.812  0.00  0.00    -0.077 A 
ATOM     10  H8  1K3 d   1      16.636 -27.270 -20.512  0.00  0.00     0.087 H 
ATOM     11  C5  1K3 d   1      14.186 -29.371 -19.486  0.00  0.00    -0.038 A 
ATOM     12  H11 1K3 d   1      16.313 -29.591 -19.717  0.00  0.00     0.083 H 
ATOM     13  H10 1K3 d   1      14.030 -30.382 -19.129  0.00  0.00     0.089 H 
ATOM     14  N3  1K3 d   1      11.788 -28.599 -19.397  0.00  0.00    -0.172 N 
ATOM     15  H9  1K3 d   1      11.274 -29.426 -19.059  0.00  0.00     0.186 HD
BRANCH   6  16
ATOM     16  C7  1K3 d   1      14.725 -25.391 -20.885  0.00  0.00    -0.007 A 
ATOM     17  C8  1K3 d   1      15.827 -24.596 -20.545  0.00  0.00    -0.068 A 
ATOM     18  C9  1K3 d   1      15.948 -23.307 -21.071  0.00  0.00    -0.050 A 
ATOM     19  H5  1K3 d   1      16.586 -24.981 -19.874  0.00  0.00     0.085 H 
ATOM     20  C10 1K3 d   1      14.985 -22.806 -21.964  0.00  0.00     0.068 A 
ATOM     21  H4  1K3 d   1      16.792 -22.688 -20.788  0.00  0.00     0.087 H 
ATOM     22  C11 1K3 d   1      13.899 -23.606 -22.309  0.00  0.00    -0.050 A 
ATOM     23  C12 1K3 d   1      13.782 -24.888 -21.790  0.00  0.00    -0.068 A 
ATOM     24  H6  1K3 d   1      13.142 -23.226 -22.985  0.00  0.00     0.087 H 
ATOM     25  H7  1K3 d   1      12.947 -25.510 -22.090  0.00  0.00     0.085 H 
BRANCH  20  26
ATOM     26  O1  1K3 d   1      15.044 -21.542 -22.517  0.00  0.00    -0.356 OA
BRANCH  26  27
ATOM     27  C24 1K3 d   1      16.107 -20.644 -22.203  0.00  0.00     0.010 C 
ATOM     28  H1  1K3 d   1      15.962 -19.699 -22.747  0.00  0.00     0.066 H 
ATOM     29  H2  1K3 d   1      17.066 -21.094 -22.499  0.00  0.00     0.066 H 
ATOM     30  H3  1K3 d   1      16.113 -20.447 -21.121  0.00  0.00     0.066 H 
ENDBRANCH  26  27
ENDBRANCH  20  26
ENDBRANCH   6  16
ENDBRANCH   1   3
BRANCH   1  31
ATOM     31  C13 1K3 d   1       9.221 -26.032 -19.977  0.00  0.00     0.049 A 
ATOM     32  C18 1K3 d   1       9.810 -24.875 -20.457  0.00  0.00    -0.054 A 
ATOM     33  C17 1K3 d   1       9.044 -23.771 -20.788  0.00  0.00    -0.055 A 
ATOM     34  H13 1K3 d   1      10.887 -24.833 -20.575  0.00  0.00     0.087 H 
ATOM     35  C16 1K3 d   1       7.654 -23.781 -20.651  0.00  0.00     0.030 A 
ATOM     36  H14 1K3 d   1       9.534 -22.879 -21.162  0.00  0.00     0.087 H 
ATOM     37  C15 1K3 d   1       7.063 -24.952 -20.160  0.00  0.00    -0.055 A 
ATOM     38  C14 1K3 d   1       7.841 -26.058 -19.833  0.00  0.00    -0.054 A 
ATOM     39  H15 1K3 d   1       5.987 -24.997 -20.033  0.00  0.00     0.087 H 
ATOM     40  H16 1K3 d   1       7.361 -26.955 -19.459  0.00  0.00     0.087 H 
BRANCH  35  41
ATOM     41  N5  1K3 d   1       6.910 -22.671 -20.993  0.00  0.00    -0.378 N 
ATOM     42  C22 1K3 d   1       7.579 -21.463 -21.485  0.00  0.00     0.018 C 
ATOM     43  C21 1K3 d   1       6.781 -20.879 -22.637  0.00  0.00     0.098 C 
ATOM     44  H17 1K3 d   1       8.591 -21.719 -21.832  0.00  0.00     0.066 H 
ATOM     45  H18 1K3 d   1       7.646 -20.724 -20.673  0.00  0.00     0.066 H 
ATOM     46  N6  1K3 d   1       5.462 -20.623 -22.087  0.00  0.00    -0.072 N 
ATOM     47  H19 1K3 d   1       6.721 -21.596 -23.469  0.00  0.00     0.078 H 
ATOM     48  H20 1K3 d   1       7.240 -19.944 -22.991  0.00  0.00     0.078 H 
ATOM     49  C20 1K3 d   1       4.773 -21.899 -21.965  0.00  0.00     0.098 C 
ATOM     50  H21 1K3 d   1       5.540 -20.185 -21.183  0.00  0.00     0.279 HD
ATOM     51  C19 1K3 d   1       5.450 -22.656 -20.824  0.00  0.00     0.018 C 
ATOM     52  H25 1K3 d   1       4.861 -22.468 -22.902  0.00  0.00     0.078 H 
ATOM     53  H26 1K3 d   1       3.710 -21.735 -21.733  0.00  0.00     0.078 H 
ATOM     54  H27 1K3 d   1       5.204 -22.165 -19.871  0.00  0.00     0.066 H 
ATOM     55  H28 1K3 d   1       5.079 -23.692 -20.810  0.00  0.00     0.066 H 
BRANCH  46  56
ATOM     56  C23 1K3 d   1       4.734 -19.748 -23.000  0.00  0.00     0.066 C 
ATOM     57  H22 1K3 d   1       3.732 -19.547 -22.594  0.00  0.00     0.068 H 
ATOM     58  H23 1K3 d   1       4.641 -20.238 -23.981  0.00  0.00     0.068 H 
ATOM     59  H24 1K3 d   1       5.281 -18.800 -23.114  0.00  0.00     0.068 H 
ENDBRANCH  46  56
ENDBRANCH  35  41
ENDBRANCH   1  31
TORSDOF 7
