REMARK  11 active torsions:
REMARK  status: ('A' for Active; 'I' for Inactive)
REMARK    1  A    between atoms: C2_1  and  N10_2 
REMARK    2  A    between atoms: N10_2  and  C11_3 
REMARK    3  A    between atoms: C11_3  and  C12_4 
REMARK    4  A    between atoms: C19_8  and  C40_9 
REMARK       I    between atoms: C40_9  and  N22_11 
REMARK    5  A    between atoms: N22_11  and  C23_12 
REMARK    6  A    between atoms: N22_11  and  C29_18 
REMARK    7  A    between atoms: C29_18  and  C30_19 
REMARK    8  A    between atoms: C30_19  and  C31_20 
REMARK    9  A    between atoms: N13_26  and  C17_27 
REMARK   10  A    between atoms: C5_30  and  C7_31 
REMARK   11  A    between atoms: C7_31  and  N9_32 
ROOT
ATOM      1  C12 4CC d   1     -39.676  53.933   2.223  0.00  0.00     0.124 A 
ATOM      2  N16 4CC d   1     -39.342  55.159   1.943  0.00  0.00    -0.231 NA
ATOM      3  C15 4CC d   1     -39.106  55.845   3.104  0.00  0.00     0.086 A 
ATOM      4  C18 4CC d   1     -38.709  57.160   3.411  0.00  0.00    -0.038 A 
ATOM      5  C19 4CC d   1     -38.566  57.529   4.760  0.00  0.00     0.035 A 
ATOM      6  C20 4CC d   1     -38.810  56.603   5.783  0.00  0.00    -0.065 A 
ATOM      7  C21 4CC d   1     -39.168  55.315   5.482  0.00  0.00    -0.054 A 
ATOM      8  C14 4CC d   1     -39.324  54.939   4.153  0.00  0.00     0.064 A 
ATOM      9  N13 4CC d   1     -39.641  53.738   3.567  0.00  0.00    -0.336 N 
ATOM     10  H   4CC d   1     -38.517  57.876   2.620  0.00  0.00     0.088 H 
ATOM     11  H   4CC d   1     -38.715  56.907   6.819  0.00  0.00     0.085 H 
ATOM     12  H   4CC d   1     -39.328  54.594   6.275  0.00  0.00     0.087 H 
ENDROOT
BRANCH   1  13
ATOM     13  C11 4CC d   1     -39.937  52.858   1.189  0.00  0.00     0.047 C 
ATOM     14  H   4CC d   1     -39.777  51.869   1.642  0.00  0.00     0.075 H 
ATOM     15  H   4CC d   1     -40.976  52.936   0.836  0.00  0.00     0.075 H 
BRANCH  13  16
ATOM     16  N10 4CC d   1     -39.017  53.029   0.048  0.00  0.00    -0.383 N 
ATOM     17  H   4CC d   1     -39.416  53.279  -0.868  0.00  0.00     0.160 HD
BRANCH  16  18
ATOM     18  C2  4CC d   1     -37.625  52.869   0.147  0.00  0.00     0.028 A 
ATOM     19  C3  4CC d   1     -37.013  52.621   1.380  0.00  0.00    -0.057 A 
ATOM     20  C4  4CC d   1     -35.635  52.481   1.467  0.00  0.00    -0.067 A 
ATOM     21  H   4CC d   1     -37.620  52.538   2.275  0.00  0.00     0.086 H 
ATOM     22  C5  4CC d   1     -34.858  52.556   0.305  0.00  0.00     0.007 A 
ATOM     23  H   4CC d   1     -35.163  52.315   2.429  0.00  0.00     0.085 H 
ATOM     24  C6  4CC d   1     -35.469  52.804  -0.937  0.00  0.00    -0.067 A 
ATOM     25  C1  4CC d   1     -36.847  52.960  -1.015  0.00  0.00    -0.057 A 
ATOM     26  H   4CC d   1     -34.864  52.873  -1.834  0.00  0.00     0.085 H 
ATOM     27  H   4CC d   1     -37.319  53.151  -1.972  0.00  0.00     0.086 H 
BRANCH  22  28
ATOM     28  C7  4CC d   1     -33.383  52.373   0.407  0.00  0.00     0.102 C 
ATOM     29  N8  4CC d   1     -32.608  52.844  -0.558  0.00  0.00    -0.385 N 
ATOM     30  H   4CC d   1     -33.026  53.340  -1.358  0.00  0.00     0.157 HD
ATOM     31  H   4CC d   1     -31.587  52.715  -0.508  0.00  0.00     0.157 HD
BRANCH  28  32
ATOM     32  N9  4CC d   1     -32.871  51.726   1.457  0.00  0.00    -0.385 N 
ATOM     33  H   4CC d   1     -31.852  51.595   1.535  0.00  0.00     0.157 HD
ATOM     34  H   4CC d   1     -33.495  51.358   2.189  0.00  0.00     0.157 HD
ENDBRANCH  28  32
ENDBRANCH  22  28
ENDBRANCH  16  18
ENDBRANCH  13  16
ENDBRANCH   1  13
BRANCH   9  35
ATOM     35  C17 4CC d   1     -39.848  52.509   4.328  0.00  0.00    -0.012 C 
ATOM     36  H   4CC d   1     -40.090  51.687   3.638  0.00  0.00     0.057 H 
ATOM     37  H   4CC d   1     -40.679  52.651   5.035  0.00  0.00     0.057 H 
ATOM     38  H   4CC d   1     -38.931  52.263   4.884  0.00  0.00     0.057 H 
ENDBRANCH   9  35
BRANCH   5  39
ATOM     39  C40 4CC d   1     -38.074  58.883   5.127  0.00  0.00     0.259 C 
ATOM     40  O21 4CC d   1     -38.348  59.825   4.402  0.00  0.00    -0.267 OA
ATOM     41  N22 4CC d   1     -37.298  59.042   6.242  0.00  0.00    -0.298 N 
BRANCH  41  42
ATOM     42  C23 4CC d   1     -36.208  58.176   6.467  0.00  0.00     0.132 A 
ATOM     43  C24 4CC d   1     -35.487  57.572   5.426  0.00  0.00    -0.038 A 
ATOM     44  C25 4CC d   1     -34.459  56.687   5.743  0.00  0.00    -0.078 A 
ATOM     45  H   4CC d   1     -35.726  57.791   4.391  0.00  0.00     0.089 H 
ATOM     46  C26 4CC d   1     -34.163  56.425   7.080  0.00  0.00    -0.066 A 
ATOM     47  H   4CC d   1     -33.892  56.205   4.955  0.00  0.00     0.083 H 
ATOM     48  C27 4CC d   1     -34.919  57.047   8.062  0.00  0.00     0.004 A 
ATOM     49  H   4CC d   1     -33.358  55.749   7.346  0.00  0.00     0.085 H 
ATOM     50  N28 4CC d   1     -35.910  57.863   7.727  0.00  0.00    -0.243 NA
ATOM     51  H   4CC d   1     -34.699  56.866   9.108  0.00  0.00     0.114 H 
ENDBRANCH  41  42
BRANCH  41  52
ATOM     52  C29 4CC d   1     -37.081  60.429   6.698  0.00  0.00     0.013 C 
ATOM     53  H   4CC d   1     -36.679  60.405   7.721  0.00  0.00     0.065 H 
ATOM     54  H   4CC d   1     -38.046  60.957   6.696  0.00  0.00     0.065 H 
BRANCH  52  55
ATOM     55  C30 4CC d   1     -36.100  61.193   5.801  0.00  0.00     0.031 C 
ATOM     56  H   4CC d   1     -36.556  61.342   4.811  0.00  0.00     0.051 H 
ATOM     57  H   4CC d   1     -35.175  60.606   5.695  0.00  0.00     0.051 H 
BRANCH  55  58
ATOM     58  C31 4CC d   1     -35.767  62.542   6.403  0.00  0.00     0.174 C 
ATOM     59  O32 4CC d   1     -35.134  63.358   5.754  0.00  0.00    -0.648 OA
ATOM     60  O33 4CC d   1     -36.123  62.815   7.538  0.00  0.00    -0.648 OA
ENDBRANCH  55  58
ENDBRANCH  52  55
ENDBRANCH  41  52
ENDBRANCH   5  39
TORSDOF 11
