REMARK  10 active torsions:
REMARK  status: ('A' for Active; 'I' for Inactive)
REMARK    1  A    between atoms: O3B_8  and  PG_1 
REMARK    2  A    between atoms: PB_5  and  O3B_8 
REMARK    3  A    between atoms: O3A_12  and  PB_5 
REMARK    4  A    between atoms: PA_9  and  O3A_12 
REMARK    5  A    between atoms: PA_9  and  O5'_13 
REMARK    6  A    between atoms: O5'_13  and  C5'_14 
REMARK    7  A    between atoms: C5'_14  and  C4'_15 
REMARK    8  A    between atoms: C3'_17  and  O3'_18 
REMARK    9  A    between atoms: C2'_19  and  O2'_20 
REMARK   10  A    between atoms: C1'_21  and  N9_22 
ROOT
ATOM      1  C4' ATP d   1      19.431  77.838  30.886  0.00  0.00     0.089 C 
ATOM      2  O4' ATP d   1      20.257  77.093  31.780  0.00  0.00    -0.353 OA
ATOM      3  C3' ATP d   1      20.108  79.191  30.689  0.00  0.00     0.091 C 
ATOM      4  C2' ATP d   1      21.508  78.979  31.233  0.00  0.00     0.105 C 
ATOM      5  C1' ATP d   1      21.224  77.979  32.325  0.00  0.00     0.139 C 
ATOM      6  H3  ATP d   1      18.434  77.992  31.325  0.00  0.00     0.090 H 
ATOM      7  H4  ATP d   1      20.126  79.498  29.633  0.00  0.00     0.091 H 
ATOM      8  H6  ATP d   1      22.156  78.544  30.458  0.00  0.00     0.093 H 
ATOM      9  H8  ATP d   1      20.829  78.492  33.214  0.00  0.00     0.122 H 
ENDROOT
BRANCH   1  10
ATOM     10  C5' ATP d   1      19.286  77.037  29.591  0.00  0.00     0.058 C 
ATOM     11  H1  ATP d   1      18.584  77.543  28.912  0.00  0.00     0.079 H 
ATOM     12  H2  ATP d   1      20.265  76.937  29.099  0.00  0.00     0.079 H 
BRANCH  10  13
ATOM     13  O5' ATP d   1      18.784  75.752  29.942  0.00  0.00    -0.287 OA
BRANCH  13  14
ATOM     14  PA  ATP d   1      18.050  74.852  28.825  0.00  0.00     0.417 P 
ATOM     15  O1A ATP d   1      18.957  74.795  27.624  0.00  0.00    -0.624 OA
ATOM     16  O2A ATP d   1      17.537  73.624  29.506  0.00  0.00    -0.624 OA
BRANCH  14  17
ATOM     17  O3A ATP d   1      16.809  75.827  28.490  0.00  0.00    -0.180 OA
BRANCH  17  18
ATOM     18  PB  ATP d   1      15.764  75.664  27.273  0.00  0.00     0.428 P 
ATOM     19  O1B ATP d   1      15.314  74.237  27.167  0.00  0.00    -0.624 OA
ATOM     20  O2B ATP d   1      16.345  76.302  26.040  0.00  0.00    -0.624 OA
BRANCH  18  21
ATOM     21  O3B ATP d   1      14.615  76.619  27.918  0.00  0.00    -0.173 OA
BRANCH  21  22
ATOM     22  PG  ATP d   1      13.036  76.378  28.187  0.00  0.00     0.431 P 
ATOM     23  O1G ATP d   1      12.324  76.874  26.937  0.00  0.00    -0.616 OA
ATOM     24  O2G ATP d   1      12.822  77.235  29.416  0.00  0.00    -0.616 OA
ATOM     25  O3G ATP d   1      12.790  74.939  28.473  0.00  0.00    -0.616 OA
ENDBRANCH  21  22
ENDBRANCH  18  21
ENDBRANCH  17  18
ENDBRANCH  14  17
ENDBRANCH  13  14
ENDBRANCH  10  13
ENDBRANCH   1  10
BRANCH   3  26
ATOM     26  O3' ATP d   1      19.397  80.148  31.487  0.00  0.00    -0.390 OA
ATOM     27  H5  ATP d   1      19.797  81.004  31.385  0.00  0.00     0.210 HD
ENDBRANCH   3  26
BRANCH   5  28
ATOM     28  N9  ATP d   1      22.414  77.201  32.696  0.00  0.00    -0.294 N 
ATOM     29  C8  ATP d   1      23.205  76.475  31.884  0.00  0.00     0.071 A 
ATOM     30  N7  ATP d   1      24.199  75.887  32.602  0.00  0.00    -0.236 NA
ATOM     31  H9  ATP d   1      23.069  76.373  30.808  0.00  0.00     0.144 H 
ATOM     32  C5  ATP d   1      24.032  76.246  33.889  0.00  0.00     0.149 A 
ATOM     33  C6  ATP d   1      24.732  75.991  35.158  0.00  0.00     0.155 A 
ATOM     34  C4  ATP d   1      22.853  77.117  33.945  0.00  0.00     0.167 A 
ATOM     35  N6  ATP d   1      25.837  75.201  35.177  0.00  0.00    -0.382 N 
ATOM     36  N1  ATP d   1      24.228  76.565  36.279  0.00  0.00    -0.222 NA
ATOM     37  H10 ATP d   1      26.327  75.022  36.065  0.00  0.00     0.157 HD
ATOM     38  H11 ATP d   1      26.185  74.781  34.303  0.00  0.00     0.157 HD
ATOM     39  C2  ATP d   1      23.131  77.351  36.254  0.00  0.00     0.091 A 
ATOM     40  N3  ATP d   1      22.451  77.637  35.128  0.00  0.00    -0.222 NA
ATOM     41  H12 ATP d   1      22.780  77.773  37.188  0.00  0.00     0.146 H 
ENDBRANCH   5  28
BRANCH   4  42
ATOM     42  O2' ATP d   1      22.151  80.151  31.742  0.00  0.00    -0.388 OA
ATOM     43  H7  ATP d   1      22.226  80.796  31.049  0.00  0.00     0.210 HD
ENDBRANCH   4  42
TORSDOF 10
