REMARK  4 active torsions:
REMARK  status: ('A' for Active; 'I' for Inactive)
REMARK    1  A    between atoms: N_1  and  CA_2 
REMARK    2  A    between atoms: CA_2  and  C_3 
REMARK    3  A    between atoms: CA_2  and  CB_5 
REMARK    4  A    between atoms: CB_5  and  CG_6 
ROOT
ATOM      1  CB  PHE d   1       6.051  -8.180 -14.662  0.00  0.00    -0.005 C 
ATOM      2  H5  PHE d   1       7.011  -8.229 -14.128  0.00  0.00     0.044 H 
ATOM      3  H6  PHE d   1       5.618  -9.189 -14.731  0.00  0.00     0.044 H 
ENDROOT
BRANCH   1   4
ATOM      4  CA  PHE d   1       6.310  -7.663 -16.082  0.00  0.00     0.186 C 
ATOM      5  H4  PHE d   1       6.441  -6.572 -16.027  0.00  0.00     0.101 H 
BRANCH   4   6
ATOM      6  N   PHE d   1       5.160  -7.930 -16.948  0.00  0.00    -0.065 N 
ATOM      7  H1  PHE d   1       4.332  -7.522 -16.542  0.00  0.00     0.275 HD
ATOM      8  H2  PHE d   1       5.033  -8.926 -17.041  0.00  0.00     0.275 HD
ATOM      9  H3  PHE d   1       5.323  -7.526 -17.857  0.00  0.00     0.275 HD
ENDBRANCH   4   6
BRANCH   4  10
ATOM     10  C   PHE d   1       7.595  -8.256 -16.644  0.00  0.00     0.204 C 
ATOM     11  O   PHE d   1       7.678  -8.604 -17.816  0.00  0.00    -0.646 OA
ATOM     12  OXT PHE d   1       8.595  -8.394 -15.952  0.00  0.00    -0.646 OA
ENDBRANCH   4  10
ENDBRANCH   1   4
BRANCH   1  13
ATOM     13  CG  PHE d   1       5.114  -7.312 -13.878  0.00  0.00    -0.056 A 
ATOM     14  CD1 PHE d   1       5.547  -6.098 -13.344  0.00  0.00    -0.077 A 
ATOM     15  CE1 PHE d   1       4.677  -5.291 -12.628  0.00  0.00    -0.082 A 
ATOM     16  H7  PHE d   1       6.574  -5.783 -13.491  0.00  0.00     0.084 H 
ATOM     17  CZ  PHE d   1       3.358  -5.680 -12.452  0.00  0.00    -0.083 A 
ATOM     18  H9  PHE d   1       5.028  -4.356 -12.206  0.00  0.00     0.083 H 
ATOM     19  CE2 PHE d   1       2.924  -6.876 -12.984  0.00  0.00    -0.082 A 
ATOM     20  H11 PHE d   1       2.672  -5.048 -11.900  0.00  0.00     0.083 H 
ATOM     21  CD2 PHE d   1       3.799  -7.682 -13.697  0.00  0.00    -0.077 A 
ATOM     22  H10 PHE d   1       1.895  -7.187 -12.844  0.00  0.00     0.083 H 
ATOM     23  H8  PHE d   1       3.444  -8.616 -14.118  0.00  0.00     0.084 H 
ENDBRANCH   1  13
TORSDOF 4
