REMARK  4 active torsions:
REMARK  status: ('A' for Active; 'I' for Inactive)
REMARK    1  A    between atoms: N_1  and  CA_2 
REMARK    2  A    between atoms: CA_2  and  C_3 
REMARK    3  A    between atoms: CA_2  and  CB_5 
REMARK    4  A    between atoms: CB_5  and  CG_6 
ROOT
ATOM      1  CB  PHE d   1      -7.758   6.361  14.682  0.00  0.00    -0.005 C 
ATOM      2  H5  PHE d   1      -7.822   7.341  14.187  0.00  0.00     0.044 H 
ATOM      3  H6  PHE d   1      -8.769   5.945  14.803  0.00  0.00     0.044 H 
ENDROOT
BRANCH   1   4
ATOM      4  CA  PHE d   1      -7.142   6.560  16.078  0.00  0.00     0.186 C 
ATOM      5  H4  PHE d   1      -6.048   6.509  15.970  0.00  0.00     0.101 H 
BRANCH   4   6
ATOM      6  N   PHE d   1      -7.563   5.471  17.009  0.00  0.00    -0.065 N 
ATOM      7  H1  PHE d   1      -7.326   4.577  16.609  0.00  0.00     0.275 HD
ATOM      8  H2  PHE d   1      -8.559   5.521  17.156  0.00  0.00     0.275 HD
ATOM      9  H3  PHE d   1      -7.088   5.581  17.891  0.00  0.00     0.275 HD
ENDBRANCH   4   6
BRANCH   4  10
ATOM     10  C   PHE d   1      -7.488   7.923  16.659  0.00  0.00     0.204 C 
ATOM     11  O   PHE d   1      -7.431   8.945  15.988  0.00  0.00    -0.646 OA
ATOM     12  OXT PHE d   1      -7.818   8.019  17.845  0.00  0.00    -0.646 OA
ENDBRANCH   4  10
ENDBRANCH   1   4
BRANCH   1  13
ATOM     13  CG  PHE d   1      -6.956   5.425  13.794  0.00  0.00    -0.056 A 
ATOM     14  CD1 PHE d   1      -5.836   5.898  13.078  0.00  0.00    -0.077 A 
ATOM     15  CE1 PHE d   1      -5.091   5.042  12.269  0.00  0.00    -0.082 A 
ATOM     16  H7  PHE d   1      -5.551   6.941  13.158  0.00  0.00     0.084 H 
ATOM     17  CZ  PHE d   1      -5.447   3.704  12.156  0.00  0.00    -0.083 A 
ATOM     18  H9  PHE d   1      -4.232   5.421  11.727  0.00  0.00     0.083 H 
ATOM     19  CE2 PHE d   1      -6.542   3.227  12.867  0.00  0.00    -0.082 A 
ATOM     20  H11 PHE d   1      -4.876   3.038  11.519  0.00  0.00     0.083 H 
ATOM     21  CD2 PHE d   1      -7.288   4.087  13.687  0.00  0.00    -0.077 A 
ATOM     22  H10 PHE d   1      -6.822   2.183  12.787  0.00  0.00     0.083 H 
ATOM     23  H8  PHE d   1      -8.134   3.698  14.243  0.00  0.00     0.084 H 
ENDBRANCH   1  13
TORSDOF 4
