REMARK  2 active torsions:
REMARK  status: ('A' for Active; 'I' for Inactive)
REMARK    1  A    between atoms: C04_4  and  S07_7 
REMARK    2  A    between atoms: S07_7  and  NP0_10 
ROOT
ATOM      1  C01 FB2 d   1      16.546   4.598  14.246  0.00  0.00    -0.083 A 
ATOM      2  C02 FB2 d   1      17.348   3.524  14.626  0.00  0.00    -0.082 A 
ATOM      3  C03 FB2 d   1      16.870   2.400  15.310  0.00  0.00    -0.060 A 
ATOM      4  C04 FB2 d   1      15.482   2.403  15.580  0.00  0.00     0.079 A 
ATOM      5  C05 FB2 d   1      14.681   3.461  15.149  0.00  0.00    -0.060 A 
ATOM      6  C06 FB2 d   1      15.204   4.591  14.471  0.00  0.00    -0.082 A 
ATOM      7  H1  FB2 d   1      17.000   5.455  13.762  0.00  0.00     0.083 H 
ATOM      8  H2  FB2 d   1      18.403   3.561  14.378  0.00  0.00     0.083 H 
ATOM      9  H3  FB2 d   1      17.518   1.585  15.611  0.00  0.00     0.085 H 
ATOM     10  H4  FB2 d   1      13.615   3.417  15.340  0.00  0.00     0.085 H 
ATOM     11  H5  FB2 d   1      14.568   5.407  14.149  0.00  0.00     0.083 H 
ENDROOT
BRANCH   4  12
ATOM     12  S07 FB2 d   1      14.943   0.937  16.432  0.00  0.00     0.256 S 
ATOM     13  O09 FB2 d   1      13.449   1.021  16.633  0.00  0.00    -0.201 OA
ATOM     14  O08 FB2 d   1      15.540   0.839  17.814  0.00  0.00    -0.201 OA
BRANCH  12  15
ATOM     15  NP0 FB2 d   1      15.468  -0.464  15.528  0.00  0.00    -0.324 N 
ATOM     16  H6  FB2 d   1      15.253  -1.383  15.860  0.00  0.00     0.169 HD
ATOM     17  H7  FB2 d   1      15.984  -0.347  14.679  0.00  0.00     0.169 HD
ENDBRANCH  12  15
ENDBRANCH   4  12
TORSDOF 2
