REMARK  1 active torsions:
REMARK  status: ('A' for Active; 'I' for Inactive)
REMARK    1  A    between atoms: N2_4  and  O8_5 
ROOT
ATOM      1  C4  BEW d   1      16.087   3.063  12.978  0.00  0.00    -0.087 C 
ATOM      2  C5  BEW d   1      15.533   3.701  14.108  0.00  0.00    -0.099 C 
ATOM      3  C6  BEW d   1      14.773   2.954  15.022  0.00  0.00     0.000 C 
ATOM      4  N2  BEW d   1      15.490   0.902  13.934  0.00  0.00    -0.251 N 
ATOM      5  C3  BEW d   1      16.099   1.667  12.905  0.00  0.00     0.036 C 
ATOM      6  C1  BEW d   1      14.762   1.534  14.930  0.00  0.00     0.104 C 
ATOM      7  S7  BEW d   1      13.804   0.603  15.988  0.00  0.00    -0.063 SA
ATOM      8  H1  BEW d   1      16.504   3.656  12.165  0.00  0.00     0.079 H 
ATOM      9  H2  BEW d   1      15.694   4.766  14.270  0.00  0.00     0.077 H 
ATOM     10  H3  BEW d   1      13.730   3.289  14.920  0.00  0.00     0.049 H 
ATOM     11  H4  BEW d   1      15.143   3.206  16.027  0.00  0.00     0.049 H 
ATOM     12  H6  BEW d   1      17.154   1.359  12.861  0.00  0.00     0.074 H 
ATOM     13  H7  BEW d   1      15.598   1.393  11.965  0.00  0.00     0.074 H 
ENDROOT
BRANCH   4  14
ATOM     14  O8  BEW d   1      15.595  -0.481  13.941  0.00  0.00    -0.286 OA
ATOM     15  H5  BEW d   1      15.213  -0.831  13.144  0.00  0.00     0.244 HD
ENDBRANCH   4  14
TORSDOF 1
