REMARK  2 active torsions:
REMARK  status: ('A' for Active; 'I' for Inactive)
REMARK    1  A    between atoms: C04_4  and  S07_7 
REMARK    2  A    between atoms: S07_7  and  NP0_10 
ROOT
ATOM      1  C01 FB2 d   1      34.869  -2.135  10.878  0.00  0.00    -0.083 A 
ATOM      2  C02 FB2 d   1      34.300  -3.081  11.728  0.00  0.00    -0.082 A 
ATOM      3  C03 FB2 d   1      33.350  -2.690  12.690  0.00  0.00    -0.060 A 
ATOM      4  C04 FB2 d   1      33.001  -1.319  12.821  0.00  0.00     0.079 A 
ATOM      5  C05 FB2 d   1      33.563  -0.367  11.965  0.00  0.00    -0.060 A 
ATOM      6  C06 FB2 d   1      34.479  -0.789  10.982  0.00  0.00    -0.082 A 
ATOM      7  H1  FB2 d   1      35.607  -2.435  10.142  0.00  0.00     0.083 H 
ATOM      8  H2  FB2 d   1      34.590  -4.122  11.648  0.00  0.00     0.083 H 
ATOM      9  H3  FB2 d   1      32.886  -3.433  13.329  0.00  0.00     0.085 H 
ATOM     10  H4  FB2 d   1      33.298   0.680  12.057  0.00  0.00     0.085 H 
ATOM     11  H5  FB2 d   1      34.891  -0.061  10.292  0.00  0.00     0.083 H 
ENDROOT
BRANCH   4  12
ATOM     12  S07 FB2 d   1      31.732  -0.853  14.103  0.00  0.00     0.256 S 
ATOM     13  O09 FB2 d   1      31.026   0.395  13.675  0.00  0.00    -0.201 OA
ATOM     14  O08 FB2 d   1      32.453  -0.646  15.491  0.00  0.00    -0.201 OA
BRANCH  12  15
ATOM     15  NP0 FB2 d   1      30.847  -2.146  14.095  0.00  0.00    -0.324 N 
ATOM     16  H6  FB2 d   1      30.052  -2.212  14.698  0.00  0.00     0.169 HD
ATOM     17  H7  FB2 d   1      31.077  -2.905  13.486  0.00  0.00     0.169 HD
ENDBRANCH  12  15
ENDBRANCH   4  12
TORSDOF 2
