REMARK  6 active torsions:
REMARK  status: ('A' for Active; 'I' for Inactive)
REMARK    1  A    between atoms: O5'_1  and  C5'_2 
REMARK    2  A    between atoms: C5'_2  and  C4'_3 
REMARK    3  A    between atoms: C1'_5  and  N1_6 
REMARK    4  A    between atoms: C4_9  and  N4_13 
REMARK    5  A    between atoms: C2'_14  and  O2'_15 
REMARK    6  A    between atoms: C3'_16  and  O3'_17 
ROOT
ATOM      1  C4' CTN d   1      -0.003  13.764  27.011  0.00  0.00     0.088 C 
ATOM      2  O4' CTN d   1       1.177  14.557  27.229  0.00  0.00    -0.353 OA
ATOM      3  C1' CTN d   1       1.381  14.562  28.654  0.00  0.00     0.141 C 
ATOM      4  C2' CTN d   1      -0.010  14.305  29.234  0.00  0.00     0.105 C 
ATOM      5  C3' CTN d   1      -0.951  14.291  28.044  0.00  0.00     0.091 C 
ATOM      6  H4  CTN d   1       0.242  12.724  27.274  0.00  0.00     0.090 H 
ATOM      7  H5  CTN d   1       2.053  13.729  28.907  0.00  0.00     0.123 H 
ATOM      8  H11 CTN d   1      -0.297  15.093  29.945  0.00  0.00     0.093 H 
ATOM      9  H13 CTN d   1      -1.328  15.296  27.804  0.00  0.00     0.091 H 
ENDROOT
BRANCH   3  10
ATOM     10  N1  CTN d   1       1.947  15.783  29.266  0.00  0.00    -0.280 N 
ATOM     11  C6  CTN d   1       2.474  15.638  30.495  0.00  0.00    -0.010 A 
ATOM     12  C5  CTN d   1       3.027  16.706  31.191  0.00  0.00    -0.026 A 
ATOM     13  H6  CTN d   1       2.467  14.653  30.959  0.00  0.00     0.112 H 
ATOM     14  C4  CTN d   1       3.035  17.963  30.603  0.00  0.00     0.103 A 
ATOM     15  H7  CTN d   1       3.448  16.559  32.184  0.00  0.00     0.091 H 
ATOM     16  N3  CTN d   1       2.499  18.130  29.367  0.00  0.00    -0.295 N 
ATOM     17  C2  CTN d   1       1.955  17.086  28.676  0.00  0.00     0.330 A 
ATOM     18  H8  CTN d   1       2.503  19.040  28.953  0.00  0.00     0.172 HD
ATOM     19  O2  CTN d   1       1.484  17.310  27.537  0.00  0.00    -0.246 OA
BRANCH  14  20
ATOM     20  N4  CTN d   1       3.579  19.009  31.280  0.00  0.00    -0.385 N 
ATOM     21  H9  CTN d   1       3.981  18.863  32.217  0.00  0.00     0.157 HD
ATOM     22  H10 CTN d   1       3.589  19.948  30.856  0.00  0.00     0.157 HD
ENDBRANCH  14  20
ENDBRANCH   3  10
BRANCH   4  23
ATOM     23  O2' CTN d   1       0.012  13.030  29.893  0.00  0.00    -0.388 OA
ATOM     24  H12 CTN d   1      -0.845  12.850  30.261  0.00  0.00     0.210 HD
ENDBRANCH   4  23
BRANCH   1  25
ATOM     25  C5' CTN d   1      -0.553  13.698  25.589  0.00  0.00     0.043 C 
ATOM     26  H2  CTN d   1      -1.359  14.438  25.475  0.00  0.00     0.078 H 
ATOM     27  H3  CTN d   1       0.253  13.921  24.875  0.00  0.00     0.078 H 
BRANCH  25  28
ATOM     28  O5' CTN d   1      -1.075  12.373  25.326  0.00  0.00    -0.398 OA
ATOM     29  H1  CTN d   1      -0.379  11.734  25.424  0.00  0.00     0.209 HD
ENDBRANCH  25  28
ENDBRANCH   1  25
BRANCH   5  30
ATOM     30  O3' CTN d   1      -2.044  13.387  28.198  0.00  0.00    -0.390 OA
ATOM     31  H14 CTN d   1      -1.710  12.505  28.309  0.00  0.00     0.210 HD
ENDBRANCH   5  30
TORSDOF 6
