REMARK  5 active torsions:
REMARK  status: ('A' for Active; 'I' for Inactive)
REMARK    1  A    between atoms: N1_1  and  C1'_9 
REMARK    2  A    between atoms: C2'_10  and  O2'_13 
REMARK    3  A    between atoms: C3'_11  and  O3'_14 
REMARK    4  A    between atoms: C4'_12  and  C5'_16 
REMARK    5  A    between atoms: C5'_16  and  O5'_17 
ROOT
ATOM      1  C1' URI d   1       1.445  15.723  29.906  0.00  0.00     0.141 C 
ATOM      2  C2' URI d   1       2.233  15.305  28.763  0.00  0.00     0.105 C 
ATOM      3  C3' URI d   1       1.884  13.954  28.919  0.00  0.00     0.091 C 
ATOM      4  C4' URI d   1       0.425  13.967  28.788  0.00  0.00     0.088 C 
ATOM      5  O4' URI d   1       0.390  14.728  29.963  0.00  0.00    -0.353 OA
ATOM      6  H4  URI d   1       0.974  16.700  29.723  0.00  0.00     0.123 H 
ATOM      7  H5  URI d   1       3.321  15.460  28.821  0.00  0.00     0.093 H 
ATOM      8  H6  URI d   1       2.068  13.739  29.982  0.00  0.00     0.091 H 
ATOM      9  H7  URI d   1       0.053  14.572  27.948  0.00  0.00     0.090 H 
ENDROOT
BRANCH   1  10
ATOM     10  N1  URI d   1       2.407  15.901  31.026  0.00  0.00    -0.280 N 
ATOM     11  C2  URI d   1       2.806  17.198  31.339  0.00  0.00     0.331 A 
ATOM     12  N3  URI d   1       3.621  17.447  32.328  0.00  0.00    -0.275 N 
ATOM     13  O2  URI d   1       2.323  18.157  30.676  0.00  0.00    -0.246 OA
ATOM     14  C4  URI d   1       4.153  16.444  33.041  0.00  0.00     0.250 A 
ATOM     15  H1  URI d   1       3.850  18.393  32.556  0.00  0.00     0.173 HD
ATOM     16  C5  URI d   1       3.785  15.135  32.760  0.00  0.00    -0.002 A 
ATOM     17  O4  URI d   1       4.953  16.641  34.020  0.00  0.00    -0.268 OA
ATOM     18  C6  URI d   1       2.931  14.890  31.683  0.00  0.00    -0.008 A 
ATOM     19  H2  URI d   1       4.157  14.313  33.370  0.00  0.00     0.094 H 
ATOM     20  H3  URI d   1       2.700  13.867  31.389  0.00  0.00     0.112 H 
ENDBRANCH   1  10
BRANCH   2  21
ATOM     21  O2' URI d   1       1.664  16.117  27.759  0.00  0.00    -0.388 OA
ATOM     22  H8  URI d   1       0.722  16.155  27.880  0.00  0.00     0.210 HD
ENDBRANCH   2  21
BRANCH   3  23
ATOM     23  O3' URI d   1       2.568  13.044  28.353  0.00  0.00    -0.390 OA
ATOM     24  H9  URI d   1       2.423  13.078  27.415  0.00  0.00     0.210 HD
ENDBRANCH   3  23
BRANCH   4  25
ATOM     25  C5' URI d   1      -0.081  12.537  28.530  0.00  0.00     0.043 C 
ATOM     26  H10 URI d   1      -1.133  12.419  28.830  0.00  0.00     0.078 H 
ATOM     27  H11 URI d   1       0.535  11.789  29.050  0.00  0.00     0.078 H 
BRANCH  25  28
ATOM     28  O5' URI d   1       0.076  12.453  27.101  0.00  0.00    -0.398 OA
ATOM     29  H12 URI d   1       0.990  12.581  26.876  0.00  0.00     0.209 HD
ENDBRANCH  25  28
ENDBRANCH   4  25
TORSDOF 5
