REMARK  6 active torsions:
REMARK  status: ('A' for Active; 'I' for Inactive)
REMARK    1  A    between atoms: C8_3  and  C9_4 
REMARK    2  A    between atoms: C3_9  and  C2_10 
REMARK    3  A    between atoms: C2_10  and  N1_11 
REMARK    4  A    between atoms: N1_11  and  S13_12 
REMARK    5  A    between atoms: S13_12  and  C15_15 
REMARK    6  A    between atoms: C18_19  and  C21_20 
ROOT
ATOM      1  C2  18U d   1      81.424   5.159  30.939  0.00  0.00     0.026 C 
ATOM      2  H   18U d   1      82.076   4.894  30.093  0.00  0.00     0.072 H 
ATOM      3  H   18U d   1      81.204   6.236  30.908  0.00  0.00     0.072 H 
ENDROOT
BRANCH   1   4
ATOM      4  C3  18U d   1      82.145   4.830  32.252  0.00  0.00    -0.040 A 
ATOM      5  C4  18U d   1      81.441   4.340  33.364  0.00  0.00    -0.074 A 
ATOM      6  C6  18U d   1      82.121   4.051  34.550  0.00  0.00    -0.066 A 
ATOM      7  H   18U d   1      80.370   4.186  33.302  0.00  0.00     0.084 H 
ATOM      8  C8  18U d   1      83.506   4.248  34.617  0.00  0.00     0.040 A 
ATOM      9  H   18U d   1      81.581   3.677  35.412  0.00  0.00     0.085 H 
ATOM     10  C7  18U d   1      84.201   4.738  33.506  0.00  0.00    -0.066 A 
ATOM     11  C5  18U d   1      83.532   5.029  32.316  0.00  0.00    -0.074 A 
ATOM     12  H   18U d   1      85.272   4.894  33.570  0.00  0.00     0.085 H 
ATOM     13  H   18U d   1      84.075   5.403  31.456  0.00  0.00     0.084 H 
BRANCH   8  14
ATOM     14  C9  18U d   1      84.308   3.922  35.879  0.00  0.00     0.209 C 
ATOM     15  O10 18U d   1      85.343   3.286  35.668  0.00  0.00    -0.644 OA
ATOM     16  O11 18U d   1      83.925   4.248  37.019  0.00  0.00    -0.644 OA
ENDBRANCH   8  14
ENDBRANCH   1   4
BRANCH   1  17
ATOM     17  N1  18U d   1      80.152   4.399  30.831  0.00  0.00    -0.311 N 
ATOM     18  H   18U d   1      80.068   3.404  30.881  0.00  0.00     0.172 HD
BRANCH  17  19
ATOM     19  S13 18U d   1      78.900   5.449  30.616  0.00  0.00     0.260 S 
ATOM     20  O16 18U d   1      77.592   4.715  30.684  0.00  0.00    -0.200 OA
ATOM     21  O17 18U d   1      78.990   6.497  31.699  0.00  0.00    -0.200 OA
BRANCH  19  22
ATOM     22  C15 18U d   1      79.099   6.235  29.070  0.00  0.00     0.103 A 
ATOM     23  C19 18U d   1      79.153   7.577  28.986  0.00  0.00    -0.052 A 
ATOM     24  C22 18U d   1      79.312   8.079  27.754  0.00  0.00    -0.043 A 
ATOM     25  H   18U d   1      79.073   8.215  29.865  0.00  0.00     0.086 H 
ATOM     26  S20 18U d   1      79.381   6.772  26.668  0.00  0.00    -0.094 SA
ATOM     27  H   18U d   1      79.384   9.134  27.495  0.00  0.00     0.095 H 
ATOM     28  C18 18U d   1      79.223   5.590  27.842  0.00  0.00     0.104 A 
BRANCH  28  29
ATOM     29  C21 18U d   1      79.224   4.112  27.484  0.00  0.00     0.218 C 
ATOM     30  O24 18U d   1      78.977   3.268  28.361  0.00  0.00    -0.643 OA
ATOM     31  O23 18U d   1      79.463   3.855  26.279  0.00  0.00    -0.643 OA
ENDBRANCH  28  29
ENDBRANCH  19  22
ENDBRANCH  17  19
ENDBRANCH   1  17
TORSDOF 6
