REMARK  11 active torsions:
REMARK  status: ('A' for Active; 'I' for Inactive)
REMARK    1  A    between atoms: PG_1  and  N3B_5 
REMARK    2  A    between atoms: N3B_5  and  PB_6 
REMARK    3  A    between atoms: PB_6  and  O3A_9 
REMARK    4  A    between atoms: O3A_9  and  PA_10 
REMARK    5  A    between atoms: PA_10  and  O5'_13 
REMARK    6  A    between atoms: O5'_13  and  C5'_14 
REMARK    7  A    between atoms: C5'_14  and  C4'_15 
REMARK    8  A    between atoms: C3'_17  and  O3'_18 
REMARK    9  A    between atoms: C2'_19  and  O2'_20 
REMARK   10  A    between atoms: C1'_21  and  N9_22 
REMARK   11  A    between atoms: C2_29  and  N2_30 
ROOT
ATOM      1  C4' GNP d   1      63.159   1.981  47.035  0.00  0.00     0.089 C 
ATOM      2  O4' GNP d   1      64.340   2.773  47.152  0.00  0.00    -0.353 OA
ATOM      3  C3' GNP d   1      62.628   1.774  48.450  0.00  0.00     0.091 C 
ATOM      4  C2' GNP d   1      63.188   2.927  49.237  0.00  0.00     0.105 C 
ATOM      5  C1' GNP d   1      64.510   3.137  48.528  0.00  0.00     0.139 C 
ATOM      6  H4  GNP d   1      63.399   1.007  46.584  0.00  0.00     0.090 H 
ATOM      7  H5  GNP d   1      61.528   1.773  48.466  0.00  0.00     0.091 H 
ATOM      8  H7  GNP d   1      62.533   3.807  49.150  0.00  0.00     0.093 H 
ATOM      9  H9  GNP d   1      65.269   2.476  48.972  0.00  0.00     0.122 H 
ENDROOT
BRANCH   1  10
ATOM     10  C5' GNP d   1      62.162   2.701  46.157  0.00  0.00     0.058 C 
ATOM     11  H2  GNP d   1      62.638   2.976  45.204  0.00  0.00     0.079 H 
ATOM     12  H3  GNP d   1      61.300   2.046  45.961  0.00  0.00     0.079 H 
BRANCH  10  13
ATOM     13  O5' GNP d   1      61.725   3.884  46.838  0.00  0.00    -0.287 OA
BRANCH  13  14
ATOM     14  PA  GNP d   1      60.334   4.551  46.417  0.00  0.00     0.417 P 
ATOM     15  O1A GNP d   1      60.213   5.887  47.140  0.00  0.00    -0.624 OA
ATOM     16  O2A GNP d   1      59.243   3.536  46.522  0.00  0.00    -0.624 OA
BRANCH  14  17
ATOM     17  O3A GNP d   1      60.687   4.783  44.854  0.00  0.00    -0.186 OA
BRANCH  17  18
ATOM     18  PB  GNP d   1      59.681   5.367  43.738  0.00  0.00     0.379 P 
ATOM     19  O1B GNP d   1      60.475   6.231  42.826  0.00  0.00    -0.629 OA
ATOM     20  O2B GNP d   1      58.583   6.230  44.486  0.00  0.00    -0.629 OA
BRANCH  18  21
ATOM     21  N3B GNP d   1      59.019   4.062  42.796  0.00  0.00    -0.218 N 
ATOM     22  H1  GNP d   1      59.476   3.172  42.809  0.00  0.00     0.179 HD
BRANCH  21  23
ATOM     23  PG  GNP d   1      57.555   4.266  41.812  0.00  0.00     0.381 P 
ATOM     24  O1G GNP d   1      57.315   2.988  41.103  0.00  0.00    -0.622 OA
ATOM     25  O2G GNP d   1      57.716   5.431  40.707  0.00  0.00    -0.622 OA
ATOM     26  O3G GNP d   1      56.314   4.668  42.770  0.00  0.00    -0.622 OA
ENDBRANCH  21  23
ENDBRANCH  18  21
ENDBRANCH  17  18
ENDBRANCH  14  17
ENDBRANCH  13  14
ENDBRANCH  10  13
ENDBRANCH   1  10
BRANCH   3  27
ATOM     27  O3' GNP d   1      63.135   0.548  48.992  0.00  0.00    -0.390 OA
ATOM     28  H6  GNP d   1      62.857  -0.177  48.445  0.00  0.00     0.210 HD
ENDBRANCH   3  27
BRANCH   5  29
ATOM     29  N9  GNP d   1      64.950   4.533  48.715  0.00  0.00    -0.295 N 
ATOM     30  C8  GNP d   1      64.268   5.688  48.516  0.00  0.00     0.071 A 
ATOM     31  N7  GNP d   1      65.054   6.762  48.819  0.00  0.00    -0.234 NA
ATOM     32  H10 GNP d   1      63.239   5.750  48.164  0.00  0.00     0.144 H 
ATOM     33  C5  GNP d   1      66.251   6.284  49.238  0.00  0.00     0.171 A 
ATOM     34  C6  GNP d   1      67.522   6.845  49.726  0.00  0.00     0.292 A 
ATOM     35  C4  GNP d   1      66.153   4.824  49.167  0.00  0.00     0.161 A 
ATOM     36  O6  GNP d   1      67.689   8.087  49.803  0.00  0.00    -0.265 OA
ATOM     37  N1  GNP d   1      68.505   5.974  50.061  0.00  0.00    -0.154 N 
ATOM     38  C2  GNP d   1      68.333   4.635  49.969  0.00  0.00     0.680 A 
ATOM     39  H11 GNP d   1      69.381   6.331  50.385  0.00  0.00     0.187 HD
ATOM     40  N3  GNP d   1      67.186   4.056  49.540  0.00  0.00    -0.174 N 
ATOM     41  H14 GNP d   1      67.108   3.030  49.501  0.00  0.00     0.186 HD
BRANCH  38  42
ATOM     42  N2  GNP d   1      69.314   3.789  50.300  0.00  0.00    -0.234 N 
ATOM     43  H12 GNP d   1      69.165   2.773  50.224  0.00  0.00     0.174 HD
ATOM     44  H13 GNP d   1      70.219   4.154  50.631  0.00  0.00     0.174 HD
ENDBRANCH  38  42
ENDBRANCH   5  29
BRANCH   4  45
ATOM     45  O2' GNP d   1      63.432   2.666  50.626  0.00  0.00    -0.388 OA
ATOM     46  H8  GNP d   1      64.057   1.956  50.709  0.00  0.00     0.210 HD
ENDBRANCH   4  45
TORSDOF 11
