REMARK  9 active torsions:
REMARK  status: ('A' for Active; 'I' for Inactive)
REMARK    1  A    between atoms: PB_1  and  O3A_5 
REMARK    2  A    between atoms: O3A_5  and  PA_6 
REMARK    3  A    between atoms: PA_6  and  O5'_9 
REMARK    4  A    between atoms: O5'_9  and  C5'_10 
REMARK    5  A    between atoms: C5'_10  and  C4'_11 
REMARK    6  A    between atoms: C3'_13  and  O3'_14 
REMARK    7  A    between atoms: C2'_15  and  O2'_16 
REMARK    8  A    between atoms: C1'_17  and  N9_18 
REMARK    9  A    between atoms: C2_25  and  N2_26 
ROOT
ATOM      1  C4' GDP d   1     -33.939  -2.586  47.534  0.00  0.00     0.089 C 
ATOM      2  O4' GDP d   1     -32.821  -1.715  47.835  0.00  0.00    -0.353 OA
ATOM      3  C3' GDP d   1     -34.627  -2.996  48.829  0.00  0.00     0.091 C 
ATOM      4  C2' GDP d   1     -34.197  -1.862  49.738  0.00  0.00     0.105 C 
ATOM      5  C1' GDP d   1     -32.797  -1.516  49.245  0.00  0.00     0.139 C 
ATOM      6  H3  GDP d   1     -33.563  -3.491  47.035  0.00  0.00     0.090 H 
ATOM      7  H4  GDP d   1     -35.720  -2.978  48.704  0.00  0.00     0.091 H 
ATOM      8  H6  GDP d   1     -34.867  -1.003  49.583  0.00  0.00     0.093 H 
ATOM      9  H8  GDP d   1     -32.058  -2.184  49.713  0.00  0.00     0.122 H 
ENDROOT
BRANCH   5  10
ATOM     10  N9  GDP d   1     -32.448  -0.130  49.545  0.00  0.00    -0.295 N 
ATOM     11  C8  GDP d   1     -33.196   0.975  49.325  0.00  0.00     0.071 A 
ATOM     12  N7  GDP d   1     -32.523   2.077  49.730  0.00  0.00    -0.234 NA
ATOM     13  H9  GDP d   1     -34.193   0.978  48.887  0.00  0.00     0.144 H 
ATOM     14  C5  GDP d   1     -31.330   1.701  50.218  0.00  0.00     0.171 A 
ATOM     15  C6  GDP d   1     -30.145   2.370  50.796  0.00  0.00     0.292 A 
ATOM     16  C4  GDP d   1     -31.290   0.230  50.078  0.00  0.00     0.161 A 
ATOM     17  O6  GDP d   1     -30.067   3.615  50.970  0.00  0.00    -0.265 OA
ATOM     18  N1  GDP d   1     -29.139   1.570  51.157  0.00  0.00    -0.154 N 
ATOM     19  C2  GDP d   1     -29.177   0.217  51.003  0.00  0.00     0.680 A 
ATOM     20  H10 GDP d   1     -28.321   1.982  51.558  0.00  0.00     0.187 HD
ATOM     21  N3  GDP d   1     -30.197  -0.454  50.461  0.00  0.00    -0.174 N 
ATOM     22  H13 GDP d   1     -30.148  -1.476  50.339  0.00  0.00     0.186 HD
BRANCH  19  23
ATOM     23  N2  GDP d   1     -28.124  -0.529  51.382  0.00  0.00    -0.234 N 
ATOM     24  H11 GDP d   1     -28.150  -1.552  51.267  0.00  0.00     0.174 HD
ATOM     25  H12 GDP d   1     -27.292  -0.077  51.787  0.00  0.00     0.174 HD
ENDBRANCH  19  23
ENDBRANCH   5  10
BRANCH   4  26
ATOM     26  O2' GDP d   1     -34.211  -2.169  51.123  0.00  0.00    -0.388 OA
ATOM     27  H7  GDP d   1     -33.620  -2.894  51.291  0.00  0.00     0.210 HD
ENDBRANCH   4  26
BRANCH   1  28
ATOM     28  C5' GDP d   1     -34.900  -1.873  46.589  0.00  0.00     0.058 C 
ATOM     29  H1  GDP d   1     -34.342  -1.516  45.711  0.00  0.00     0.079 H 
ATOM     30  H2  GDP d   1     -35.678  -2.580  46.266  0.00  0.00     0.079 H 
BRANCH  28  31
ATOM     31  O5' GDP d   1     -35.519  -0.760  47.234  0.00  0.00    -0.287 OA
BRANCH  31  32
ATOM     32  PA  GDP d   1     -36.826  -0.027  46.628  0.00  0.00     0.418 P 
ATOM     33  O1A GDP d   1     -37.918  -1.051  46.452  0.00  0.00    -0.624 OA
ATOM     34  O2A GDP d   1     -37.092   1.161  47.529  0.00  0.00    -0.624 OA
BRANCH  32  35
ATOM     35  O3A GDP d   1     -36.319   0.494  45.205  0.00  0.00    -0.173 OA
BRANCH  35  36
ATOM     36  PB  GDP d   1     -37.199   0.950  43.924  0.00  0.00     0.431 P 
ATOM     37  O1B GDP d   1     -38.453   1.581  44.461  0.00  0.00    -0.616 OA
ATOM     38  O2B GDP d   1     -37.439  -0.242  43.069  0.00  0.00    -0.616 OA
ATOM     39  O3B GDP d   1     -36.213   1.921  43.274  0.00  0.00    -0.616 OA
ENDBRANCH  35  36
ENDBRANCH  32  35
ENDBRANCH  31  32
ENDBRANCH  28  31
ENDBRANCH   1  28
BRANCH   3  40
ATOM     40  O3' GDP d   1     -34.263  -4.335  49.268  0.00  0.00    -0.390 OA
ATOM     41  H5  GDP d   1     -34.719  -4.537  50.076  0.00  0.00     0.210 HD
ENDBRANCH   3  40
TORSDOF 9
