REMARK  1 active torsions:
REMARK  status: ('A' for Active; 'I' for Inactive)
REMARK    1  A    between atoms: C07_7  and  C11_11 
ROOT
ATOM      1  O01 KKN d   1      88.879 -54.054 -28.390  0.00  0.00    -0.357 OA
ATOM      2  C02 KKN d   1      88.384 -53.032 -27.511  0.00  0.00     0.070 A 
ATOM      3  C03 KKN d   1      87.151 -53.335 -26.703  0.00  0.00     0.088 A 
ATOM      4  C04 KKN d   1      86.502 -54.587 -26.808  0.00  0.00    -0.011 A 
ATOM      5  C05 KKN d   1      86.999 -55.618 -27.692  0.00  0.00    -0.052 A 
ATOM      6  C06 KKN d   1      88.209 -55.327 -28.487  0.00  0.00     0.013 A 
ATOM      7  C07 KKN d   1      85.357 -54.613 -25.932  0.00  0.00     0.055 A 
ATOM      8  C08 KKN d   1      85.342 -53.306 -25.284  0.00  0.00     0.272 A 
ATOM      9  O09 KKN d   1      84.534 -52.907 -24.462  0.00  0.00    -0.264 OA
ATOM     10  O10 KKN d   1      86.487 -52.457 -25.761  0.00  0.00    -0.280 OA
ATOM     11  H1  KKN d   1      88.163 -52.148 -28.128  0.00  0.00     0.085 H 
ATOM     12  H2  KKN d   1      89.190 -52.791 -26.802  0.00  0.00     0.085 H 
ATOM     13  H3  KKN d   1      86.496 -56.581 -27.769  0.00  0.00     0.087 H 
ATOM     14  H4  KKN d   1      88.603 -56.088 -29.159  0.00  0.00     0.122 H 
ATOM     15  H5  KKN d   1      84.694 -54.257 -26.734  0.00  0.00     0.062 H 
ENDROOT
BRANCH   7  16
ATOM     16  C11 KKN d   1      84.396 -55.741 -25.734  0.00  0.00    -0.060 C 
ATOM     17  H6  KKN d   1      84.688 -56.588 -26.373  0.00  0.00     0.029 H 
ATOM     18  H7  KKN d   1      83.382 -55.410 -26.004  0.00  0.00     0.029 H 
ATOM     19  H8  KKN d   1      84.411 -56.055 -24.680  0.00  0.00     0.029 H 
ENDBRANCH   7  16
TORSDOF 1
