REMARK  12 active torsions:
REMARK  status: ('A' for Active; 'I' for Inactive)
REMARK    1  A    between atoms: S1_2  and  C18_4 
REMARK    2  A    between atoms: S1_2  and  N2_14 
REMARK    3  A    between atoms: N2_14  and  C1_15 
REMARK    4  A    between atoms: C2_16  and  O1_17 
REMARK    5  A    between atoms: O1_17  and  C7_18 
REMARK    6  A    between atoms: C10_21  and  C28_22 
REMARK    7  A    between atoms: C28_22  and  N4_23 
REMARK    8  A    between atoms: C28_22  and  N3_24 
REMARK    9  A    between atoms: C3_29  and  O2_31 
REMARK   10  A    between atoms: O2_31  and  C6_32 
REMARK   11  A    between atoms: C15_35  and  C29_36 
REMARK   12  A    between atoms: C29_36  and  N6_37 
ROOT
ATOM      1  C1  N4A d   1      16.192  63.519  23.081  0.00  0.00     0.096 A 
ATOM      2  C2  N4A d   1      16.550  62.411  23.797  0.00  0.00     0.200 A 
ATOM      3  C5  N4A d   1      15.236  64.398  23.577  0.00  0.00    -0.048 A 
ATOM      4  C4  N4A d   1      14.667  64.108  24.811  0.00  0.00    -0.029 A 
ATOM      5  C3  N4A d   1      15.050  62.961  25.528  0.00  0.00     0.172 A 
ATOM      6  N1  N4A d   1      15.990  62.128  25.003  0.00  0.00    -0.198 NA
ATOM      7  H   N4A d   1      14.944  65.281  23.019  0.00  0.00     0.087 H 
ATOM      8  H   N4A d   1      13.919  64.774  25.226  0.00  0.00     0.090 H 
ENDROOT
BRANCH   1   9
ATOM      9  N2  N4A d   1      16.836  63.517  21.905  0.00  0.00    -0.276 N 
ATOM     10  H   N4A d   1      17.313  62.660  21.710  0.00  0.00     0.179 HD
BRANCH   9  11
ATOM     11  S1  N4A d   1      16.989  64.592  20.776  0.00  0.00     0.263 S 
ATOM     12  O4  N4A d   1      17.975  64.132  19.821  0.00  0.00    -0.200 OA
ATOM     13  O3  N4A d   1      17.756  65.422  21.650  0.00  0.00    -0.200 OA
BRANCH  11  14
ATOM     14  C18 N4A d   1      15.913  65.613  20.173  0.00  0.00     0.080 A 
ATOM     15  C23 N4A d   1      15.337  66.658  20.911  0.00  0.00    -0.059 A 
ATOM     16  C22 N4A d   1      14.446  67.548  20.302  0.00  0.00    -0.071 A 
ATOM     17  H   N4A d   1      15.584  66.776  21.960  0.00  0.00     0.085 H 
ATOM     18  C21 N4A d   1      14.159  67.403  18.954  0.00  0.00    -0.026 A 
ATOM     19  H   N4A d   1      13.985  68.342  20.878  0.00  0.00     0.084 H 
ATOM     20  C27 N4A d   1      13.279  68.280  18.314  0.00  0.00    -0.072 A 
ATOM     21  C20 N4A d   1      14.765  66.385  18.229  0.00  0.00    -0.025 A 
ATOM     22  C26 N4A d   1      13.013  68.118  16.961  0.00  0.00    -0.082 A 
ATOM     23  H   N4A d   1      12.807  69.082  18.870  0.00  0.00     0.084 H 
ATOM     24  C25 N4A d   1      13.625  67.106  16.249  0.00  0.00    -0.082 A 
ATOM     25  H   N4A d   1      12.322  68.788  16.462  0.00  0.00     0.083 H 
ATOM     26  C24 N4A d   1      14.499  66.236  16.888  0.00  0.00    -0.072 A 
ATOM     27  H   N4A d   1      13.423  66.990  15.190  0.00  0.00     0.083 H 
ATOM     28  H   N4A d   1      14.973  65.438  16.328  0.00  0.00     0.084 H 
ATOM     29  C19 N4A d   1      15.651  65.505  18.821  0.00  0.00    -0.050 A 
ATOM     30  H   N4A d   1      16.136  64.737  18.230  0.00  0.00     0.087 H 
ENDBRANCH  11  14
ENDBRANCH   9  11
ENDBRANCH   1   9
BRANCH   2  31
ATOM     31  O1  N4A d   1      17.498  61.634  23.185  0.00  0.00    -0.290 OA
BRANCH  31  32
ATOM     32  C7  N4A d   1      18.165  60.689  23.903  0.00  0.00     0.078 A 
ATOM     33  C12 N4A d   1      18.221  59.380  23.428  0.00  0.00    -0.049 A 
ATOM     34  C11 N4A d   1      18.883  58.422  24.181  0.00  0.00    -0.067 A 
ATOM     35  H   N4A d   1      17.755  59.115  22.486  0.00  0.00     0.087 H 
ATOM     36  C10 N4A d   1      19.470  58.789  25.399  0.00  0.00     0.007 A 
ATOM     37  H   N4A d   1      18.946  57.398  23.830  0.00  0.00     0.085 H 
ATOM     38  C9  N4A d   1      19.408  60.100  25.870  0.00  0.00    -0.067 A 
ATOM     39  C8  N4A d   1      18.748  61.054  25.121  0.00  0.00    -0.049 A 
ATOM     40  H   N4A d   1      19.872  60.367  26.812  0.00  0.00     0.085 H 
ATOM     41  H   N4A d   1      18.682  62.077  25.474  0.00  0.00     0.087 H 
BRANCH  36  42
ATOM     42  C28 N4A d   1      20.178  57.735  26.168  0.00  0.00     0.102 C 
BRANCH  42  43
ATOM     43  N4  N4A d   1      20.798  57.998  27.308  0.00  0.00    -0.385 N 
ATOM     44  H   N4A d   1      21.280  57.244  27.818  0.00  0.00     0.157 HD
ATOM     45  H   N4A d   1      20.798  58.956  27.685  0.00  0.00     0.157 HD
ENDBRANCH  42  43
BRANCH  42  46
ATOM     46  N3  N4A d   1      20.160  56.576  25.699  0.00  0.00    -0.385 N 
ATOM     47  H   N4A d   1      19.673  56.387  24.811  0.00  0.00     0.157 HD
ATOM     48  H   N4A d   1      20.632  55.810  26.201  0.00  0.00     0.157 HD
ENDBRANCH  42  46
ENDBRANCH  36  42
ENDBRANCH  31  32
ENDBRANCH   2  31
BRANCH   5  49
ATOM     49  O2  N4A d   1      14.491  62.675  26.765  0.00  0.00    -0.292 OA
BRANCH  49  50
ATOM     50  C6  N4A d   1      14.726  63.516  27.837  0.00  0.00     0.077 A 
ATOM     51  C17 N4A d   1      14.885  63.028  29.145  0.00  0.00    -0.049 A 
ATOM     52  C16 N4A d   1      15.114  63.929  30.211  0.00  0.00    -0.067 A 
ATOM     53  H   N4A d   1      14.832  61.962  29.337  0.00  0.00     0.087 H 
ATOM     54  C15 N4A d   1      15.178  65.313  29.979  0.00  0.00     0.007 A 
ATOM     55  H   N4A d   1      15.242  63.547  31.218  0.00  0.00     0.085 H 
ATOM     56  C14 N4A d   1      15.011  65.782  28.687  0.00  0.00    -0.067 A 
ATOM     57  C13 N4A d   1      14.793  64.903  27.639  0.00  0.00    -0.049 A 
ATOM     58  H   N4A d   1      15.051  66.848  28.494  0.00  0.00     0.085 H 
ATOM     59  H   N4A d   1      14.671  65.298  26.637  0.00  0.00     0.087 H 
BRANCH  54  60
ATOM     60  C29 N4A d   1      15.400  66.354  31.045  0.00  0.00     0.102 C 
ATOM     61  N5  N4A d   1      14.982  66.168  32.302  0.00  0.00    -0.385 N 
ATOM     62  H   N4A d   1      14.527  65.283  32.568  0.00  0.00     0.157 HD
ATOM     63  H   N4A d   1      15.115  66.910  33.004  0.00  0.00     0.157 HD
BRANCH  60  64
ATOM     64  N6  N4A d   1      15.960  67.450  30.727  0.00  0.00    -0.385 N 
ATOM     65  H   N4A d   1      16.120  68.173  31.443  0.00  0.00     0.157 HD
ATOM     66  H   N4A d   1      16.254  67.615  29.754  0.00  0.00     0.157 HD
ENDBRANCH  60  64
ENDBRANCH  54  60
ENDBRANCH  49  50
ENDBRANCH   5  49
TORSDOF 12
