REMARK  12 active torsions:
REMARK  status: ('A' for Active; 'I' for Inactive)
REMARK    1  A    between atoms: S1_2  and  C18_4 
REMARK    2  A    between atoms: S1_2  and  N2_11 
REMARK    3  A    between atoms: N2_11  and  C1_12 
REMARK    4  A    between atoms: C2_13  and  O1_14 
REMARK    5  A    between atoms: O1_14  and  C6_15 
REMARK    6  A    between atoms: C10_18  and  C25_19 
REMARK    7  A    between atoms: C25_19  and  N6_20 
REMARK    8  A    between atoms: C25_19  and  N5_21 
REMARK    9  A    between atoms: C3_26  and  O2_28 
REMARK   10  A    between atoms: O2_28  and  C7_29 
REMARK   11  A    between atoms: C15_32  and  C24_33 
REMARK   12  A    between atoms: C24_33  and  N4_34 
ROOT
ATOM      1  C1  F4D d   1      16.245  63.763  23.350  0.00  0.00     0.096 A 
ATOM      2  C2  F4D d   1      16.902  62.794  24.023  0.00  0.00     0.200 A 
ATOM      3  C5  F4D d   1      15.105  64.387  23.874  0.00  0.00    -0.048 A 
ATOM      4  C4  F4D d   1      14.727  64.115  25.157  0.00  0.00    -0.029 A 
ATOM      5  C3  F4D d   1      15.456  63.159  25.836  0.00  0.00     0.172 A 
ATOM      6  N1  F4D d   1      16.517  62.531  25.278  0.00  0.00    -0.198 NA
ATOM      7  H   F4D d   1      14.530  65.078  23.268  0.00  0.00     0.087 H 
ATOM      8  H   F4D d   1      13.892  64.626  25.622  0.00  0.00     0.090 H 
ENDROOT
BRANCH   2   9
ATOM      9  O1  F4D d   1      17.942  62.156  23.423  0.00  0.00    -0.290 OA
BRANCH   9  10
ATOM     10  C6  F4D d   1      18.481  61.076  24.073  0.00  0.00     0.078 A 
ATOM     11  C12 F4D d   1      19.151  61.299  25.265  0.00  0.00    -0.049 A 
ATOM     12  C11 F4D d   1      19.711  60.237  25.948  0.00  0.00    -0.067 A 
ATOM     13  H   F4D d   1      19.235  62.305  25.661  0.00  0.00     0.087 H 
ATOM     14  C10 F4D d   1      19.622  58.942  25.445  0.00  0.00     0.007 A 
ATOM     15  H   F4D d   1      20.225  60.414  26.886  0.00  0.00     0.085 H 
ATOM     16  C9  F4D d   1      18.943  58.711  24.247  0.00  0.00    -0.067 A 
ATOM     17  C8  F4D d   1      18.368  59.784  23.564  0.00  0.00    -0.049 A 
ATOM     18  H   F4D d   1      18.863  57.705  23.850  0.00  0.00     0.085 H 
ATOM     19  H   F4D d   1      17.833  59.612  22.637  0.00  0.00     0.087 H 
BRANCH  14  20
ATOM     20  C25 F4D d   1      20.250  57.805  26.189  0.00  0.00     0.102 C 
BRANCH  20  21
ATOM     21  N6  F4D d   1      20.210  56.644  25.705  0.00  0.00    -0.385 N 
ATOM     22  H   F4D d   1      20.641  55.859  26.214  0.00  0.00     0.157 HD
ATOM     23  H   F4D d   1      19.746  56.479  24.800  0.00  0.00     0.157 HD
ENDBRANCH  20  21
BRANCH  20  24
ATOM     24  N5  F4D d   1      20.875  58.007  27.340  0.00  0.00    -0.385 N 
ATOM     25  H   F4D d   1      20.914  58.953  27.746  0.00  0.00     0.157 HD
ATOM     26  H   F4D d   1      21.322  57.218  27.829  0.00  0.00     0.157 HD
ENDBRANCH  20  24
ENDBRANCH  14  20
ENDBRANCH   9  10
ENDBRANCH   2   9
BRANCH   1  27
ATOM     27  N2  F4D d   1      16.345  63.913  22.059  0.00  0.00    -0.276 N 
ATOM     28  H   F4D d   1      15.580  63.384  21.692  0.00  0.00     0.179 HD
BRANCH  27  29
ATOM     29  S1  F4D d   1      17.026  64.478  20.828  0.00  0.00     0.263 S 
ATOM     30  O4  F4D d   1      18.027  63.970  19.925  0.00  0.00    -0.200 OA
ATOM     31  O3  F4D d   1      17.859  65.217  21.698  0.00  0.00    -0.200 OA
BRANCH  29  32
ATOM     32  C18 F4D d   1      16.012  65.621  20.329  0.00  0.00     0.080 A 
ATOM     33  C23 F4D d   1      15.601  66.581  21.265  0.00  0.00    -0.057 A 
ATOM     34  C22 F4D d   1      14.695  67.574  20.930  0.00  0.00    -0.044 A 
ATOM     35  H   F4D d   1      16.001  66.545  22.272  0.00  0.00     0.086 H 
ATOM     36  C21 F4D d   1      14.186  67.628  19.650  0.00  0.00     0.116 A 
ATOM     37  H   F4D d   1      14.388  68.304  21.670  0.00  0.00     0.088 H 
ATOM     38  F1  F4D d   1      13.302  68.604  19.338  0.00  0.00    -0.206 F 
ATOM     39  C20 F4D d   1      14.576  66.678  18.709  0.00  0.00    -0.044 A 
ATOM     40  C19 F4D d   1      15.483  65.673  19.052  0.00  0.00    -0.057 A 
ATOM     41  H   F4D d   1      14.173  66.719  17.704  0.00  0.00     0.088 H 
ATOM     42  H   F4D d   1      15.773  64.932  18.316  0.00  0.00     0.086 H 
ENDBRANCH  29  32
ENDBRANCH  27  29
ENDBRANCH   1  27
BRANCH   5  43
ATOM     43  O2  F4D d   1      15.183  62.899  27.136  0.00  0.00    -0.292 OA
BRANCH  43  44
ATOM     44  C7  F4D d   1      14.048  62.465  27.680  0.00  0.00     0.077 A 
ATOM     45  C17 F4D d   1      12.876  62.387  26.946  0.00  0.00    -0.049 A 
ATOM     46  C16 F4D d   1      11.754  61.900  27.570  0.00  0.00    -0.067 A 
ATOM     47  H   F4D d   1      12.845  62.701  25.909  0.00  0.00     0.087 H 
ATOM     48  C15 F4D d   1      11.836  61.508  28.894  0.00  0.00     0.007 A 
ATOM     49  H   F4D d   1      10.816  61.824  27.032  0.00  0.00     0.085 H 
ATOM     50  C14 F4D d   1      13.013  61.587  29.623  0.00  0.00    -0.067 A 
ATOM     51  C13 F4D d   1      14.146  62.071  29.005  0.00  0.00    -0.049 A 
ATOM     52  H   F4D d   1      13.041  61.274  30.660  0.00  0.00     0.085 H 
ATOM     53  H   F4D d   1      15.086  62.141  29.540  0.00  0.00     0.087 H 
BRANCH  48  54
ATOM     54  C24 F4D d   1      10.622  60.966  29.541  0.00  0.00     0.102 C 
ATOM     55  N3  F4D d   1       9.435  61.477  29.239  0.00  0.00    -0.385 N 
ATOM     56  H   F4D d   1       9.367  62.267  28.582  0.00  0.00     0.157 HD
ATOM     57  H   F4D d   1       8.582  61.083  29.661  0.00  0.00     0.157 HD
BRANCH  54  58
ATOM     58  N4  F4D d   1      10.758  60.000  30.338  0.00  0.00    -0.385 N 
ATOM     59  H   F4D d   1       9.933  59.598  30.806  0.00  0.00     0.157 HD
ATOM     60  H   F4D d   1      11.694  59.612  30.522  0.00  0.00     0.157 HD
ENDBRANCH  54  58
ENDBRANCH  48  54
ENDBRANCH  43  44
ENDBRANCH   5  43
TORSDOF 12
