REMARK  12 active torsions:
REMARK  status: ('A' for Active; 'I' for Inactive)
REMARK       I    between atoms: C8_2  and  N2_3 
REMARK    1  A    between atoms: C8_2  and  C5_11 
REMARK    2  A    between atoms: N2_3  and  C9_4 
REMARK    3  A    between atoms: C12_7  and  N3_8 
REMARK    4  A    between atoms: C3_14  and  O2_15 
REMARK    5  A    between atoms: O2_15  and  C6_16 
REMARK    6  A    between atoms: C22_19  and  C26_20 
REMARK    7  A    between atoms: C26_20  and  N7_21 
REMARK    8  A    between atoms: C26_20  and  N6_22 
REMARK    9  A    between atoms: C2_26  and  O1_27 
REMARK   10  A    between atoms: O1_27  and  C7_28 
REMARK   11  A    between atoms: C17_31  and  C25_32 
REMARK   12  A    between atoms: C25_32  and  N5_33 
ROOT
ATOM      1  C5  N4C d   1      14.955  63.206  25.460  0.00  0.00     0.040 A 
ATOM      2  C1  N4C d   1      15.939  62.393  24.910  0.00  0.00    -0.016 A 
ATOM      3  C4  N4C d   1      14.722  64.455  24.916  0.00  0.00    -0.016 A 
ATOM      4  C3  N4C d   1      15.464  64.863  23.823  0.00  0.00     0.173 A 
ATOM      5  N1  N4C d   1      16.415  64.066  23.283  0.00  0.00    -0.200 NA
ATOM      6  C2  N4C d   1      16.666  62.845  23.802  0.00  0.00     0.173 A 
ATOM      7  H   N4C d   1      16.142  61.417  25.335  0.00  0.00     0.091 H 
ATOM      8  H   N4C d   1      13.967  65.106  25.341  0.00  0.00     0.091 H 
ENDROOT
BRANCH   1   9
ATOM      9  C8  N4C d   1      14.155  62.785  26.647  0.00  0.00     0.252 C 
ATOM     10  O3  N4C d   1      12.962  62.556  26.521  0.00  0.00    -0.268 OA
ATOM     11  N2  N4C d   1      14.830  62.704  27.791  0.00  0.00    -0.352 N 
ATOM     12  H   N4C d   1      15.808  62.906  27.745  0.00  0.00     0.163 HD
BRANCH  11  13
ATOM     13  C9  N4C d   1      14.301  62.353  29.103  0.00  0.00     0.012 C 
ATOM     14  C14 N4C d   1      12.890  61.788  29.116  0.00  0.00    -0.044 C 
ATOM     15  C13 N4C d   1      12.443  61.596  30.560  0.00  0.00    -0.037 C 
ATOM     16  H   N4C d   1      12.876  60.820  28.594  0.00  0.00     0.036 H 
ATOM     17  H   N4C d   1      12.209  62.487  28.609  0.00  0.00     0.036 H 
ATOM     18  C12 N4C d   1      12.239  62.971  31.162  0.00  0.00     0.100 C 
ATOM     19  H   N4C d   1      13.215  61.051  31.123  0.00  0.00     0.036 H 
ATOM     20  H   N4C d   1      11.500  61.030  30.589  0.00  0.00     0.036 H 
ATOM     21  C11 N4C d   1      13.639  63.564  31.275  0.00  0.00    -0.037 C 
ATOM     22  H   N4C d   1      11.612  63.586  30.500  0.00  0.00     0.083 H 
ATOM     23  C10 N4C d   1      14.309  63.657  29.902  0.00  0.00    -0.044 C 
ATOM     24  H   N4C d   1      14.249  62.924  31.930  0.00  0.00     0.036 H 
ATOM     25  H   N4C d   1      13.569  64.572  31.710  0.00  0.00     0.036 H 
ATOM     26  H   N4C d   1      13.783  64.423  29.314  0.00  0.00     0.036 H 
ATOM     27  H   N4C d   1      15.355  63.963  30.050  0.00  0.00     0.036 H 
ATOM     28  H   N4C d   1      14.970  61.615  29.570  0.00  0.00     0.072 H 
BRANCH  18  29
ATOM     29  N3  N4C d   1      11.624  62.901  32.467  0.00  0.00    -0.075 N 
ATOM     30  H   N4C d   1      11.505  63.833  32.833  0.00  0.00     0.274 HD
ATOM     31  H   N4C d   1      12.213  62.369  33.088  0.00  0.00     0.274 HD
ATOM     32  H   N4C d   1      10.724  62.453  32.391  0.00  0.00     0.274 HD
ENDBRANCH  18  29
ENDBRANCH  11  13
ENDBRANCH   1   9
BRANCH   6  33
ATOM     33  O1  N4C d   1      17.642  62.092  23.216  0.00  0.00    -0.292 OA
BRANCH  33  34
ATOM     34  C7  N4C d   1      18.251  61.091  23.914  0.00  0.00     0.077 A 
ATOM     35  C19 N4C d   1      18.882  61.351  25.137  0.00  0.00    -0.049 A 
ATOM     36  C18 N4C d   1      19.484  60.316  25.841  0.00  0.00    -0.067 A 
ATOM     37  H   N4C d   1      18.901  62.359  25.534  0.00  0.00     0.087 H 
ATOM     38  C17 N4C d   1      19.468  59.022  25.322  0.00  0.00     0.007 A 
ATOM     39  H   N4C d   1      19.965  60.514  26.792  0.00  0.00     0.085 H 
ATOM     40  C16 N4C d   1      18.839  58.776  24.105  0.00  0.00    -0.067 A 
ATOM     41  C15 N4C d   1      18.225  59.806  23.401  0.00  0.00    -0.049 A 
ATOM     42  H   N4C d   1      18.828  57.770  23.701  0.00  0.00     0.085 H 
ATOM     43  H   N4C d   1      17.730  59.604  22.458  0.00  0.00     0.087 H 
BRANCH  38  44
ATOM     44  C25 N4C d   1      20.135  57.921  26.096  0.00  0.00     0.102 C 
ATOM     45  N4  N4C d   1      20.756  58.190  27.148  0.00  0.00    -0.385 N 
ATOM     46  H   N4C d   1      20.795  59.161  27.489  0.00  0.00     0.157 HD
ATOM     47  H   N4C d   1      21.228  57.440  27.673  0.00  0.00     0.157 HD
BRANCH  44  48
ATOM     48  N5  N4C d   1      20.097  56.671  25.677  0.00  0.00    -0.385 N 
ATOM     49  H   N4C d   1      20.561  55.931  26.223  0.00  0.00     0.157 HD
ATOM     50  H   N4C d   1      19.603  56.435  24.804  0.00  0.00     0.157 HD
ENDBRANCH  44  48
ENDBRANCH  38  44
ENDBRANCH  33  34
ENDBRANCH   6  33
BRANCH   4  51
ATOM     51  O2  N4C d   1      15.230  66.102  23.304  0.00  0.00    -0.292 OA
BRANCH  51  52
ATOM     52  C6  N4C d   1      14.834  66.318  22.018  0.00  0.00     0.077 A 
ATOM     53  C24 N4C d   1      13.480  66.328  21.744  0.00  0.00    -0.049 A 
ATOM     54  C23 N4C d   1      13.056  66.590  20.449  0.00  0.00    -0.067 A 
ATOM     55  H   N4C d   1      12.759  66.134  22.530  0.00  0.00     0.087 H 
ATOM     56  C22 N4C d   1      13.972  66.828  19.422  0.00  0.00     0.007 A 
ATOM     57  H   N4C d   1      11.994  66.610  20.230  0.00  0.00     0.085 H 
ATOM     58  C21 N4C d   1      15.335  66.827  19.713  0.00  0.00    -0.067 A 
ATOM     59  C20 N4C d   1      15.763  66.574  21.012  0.00  0.00    -0.049 A 
ATOM     60  H   N4C d   1      16.059  67.023  18.930  0.00  0.00     0.085 H 
ATOM     61  H   N4C d   1      16.822  66.576  21.242  0.00  0.00     0.087 H 
BRANCH  56  62
ATOM     62  C26 N4C d   1      13.457  67.110  18.027  0.00  0.00     0.102 C 
BRANCH  62  63
ATOM     63  N7  N4C d   1      12.268  67.536  17.871  0.00  0.00    -0.385 N 
ATOM     64  H   N4C d   1      11.911  67.730  16.925  0.00  0.00     0.157 HD
ATOM     65  H   N4C d   1      11.663  67.687  18.691  0.00  0.00     0.157 HD
ENDBRANCH  62  63
BRANCH  62  66
ATOM     66  N6  N4C d   1      14.238  66.932  16.960  0.00  0.00    -0.385 N 
ATOM     67  H   N4C d   1      15.201  66.588  17.079  0.00  0.00     0.157 HD
ATOM     68  H   N4C d   1      13.877  67.139  16.018  0.00  0.00     0.157 HD
ENDBRANCH  62  66
ENDBRANCH  56  62
ENDBRANCH  51  52
ENDBRANCH   4  51
TORSDOF 12
