REMARK  4 active torsions:
REMARK  status: ('A' for Active; 'I' for Inactive)
REMARK    1  A    between atoms: C6_6  and  N7_7 
REMARK       I    between atoms: N7_7  and  C8_8 
REMARK    2  A    between atoms: C8_8  and  C10_10 
REMARK    3  A    between atoms: C16_16  and  C20_20 
REMARK    4  A    between atoms: C18_18  and  O19_19 
ROOT
ATOM      1  C10 1OA d   1     -67.556  46.945  -0.791  0.00  0.00     0.099 A 
ATOM      2  C11 1OA d   1     -67.415  47.033  -2.190  0.00  0.00     0.041 A 
ATOM      3  N12 1OA d   1     -66.516  47.954  -2.450  0.00  0.00    -0.175 NA
ATOM      4  N13 1OA d   1     -66.010  48.471  -1.253  0.00  0.00    -0.192 N 
ATOM      5  C14 1OA d   1     -66.640  47.844  -0.211  0.00  0.00     0.171 A 
ATOM      6  N15 1OA d   1     -66.337  48.143   1.059  0.00  0.00    -0.232 NA
ATOM      7  C16 1OA d   1     -65.422  49.061   1.337  0.00  0.00     0.045 A 
ATOM      8  C17 1OA d   1     -64.746  49.713   0.299  0.00  0.00    -0.008 A 
ATOM      9  C18 1OA d   1     -65.059  49.416  -0.996  0.00  0.00     0.167 A 
ATOM     10  H6  1OA d   1     -67.957  46.441  -2.926  0.00  0.00     0.119 H 
ATOM     11  H7  1OA d   1     -63.977  50.451   0.523  0.00  0.00     0.093 H 
ENDROOT
BRANCH   7  12
ATOM     12  C20 1OA d   1     -65.019  49.402   2.752  0.00  0.00    -0.009 C 
ATOM     13  C21 1OA d   1     -66.015  48.878   3.786  0.00  0.00    -0.034 C 
ATOM     14  C22 1OA d   1     -65.439  49.170   5.175  0.00  0.00     0.082 C 
ATOM     15  H10 1OA d   1     -66.153  47.794   3.658  0.00  0.00     0.036 H 
ATOM     16  H11 1OA d   1     -66.982  49.388   3.667  0.00  0.00     0.036 H 
ATOM     17  N23 1OA d   1     -64.209  48.384   5.367  0.00  0.00    -0.075 N 
ATOM     18  H12 1OA d   1     -66.175  48.893   5.944  0.00  0.00     0.075 H 
ATOM     19  H13 1OA d   1     -65.207  50.242   5.258  0.00  0.00     0.075 H 
ATOM     20  C24 1OA d   1     -63.158  48.822   4.432  0.00  0.00     0.082 C 
ATOM     21  H14 1OA d   1     -64.410  47.410   5.205  0.00  0.00     0.277 HD
ATOM     22  H15 1OA d   1     -63.882  48.507   6.313  0.00  0.00     0.277 HD
ATOM     23  C25 1OA d   1     -63.662  48.703   2.985  0.00  0.00    -0.034 C 
ATOM     24  H16 1OA d   1     -62.268  48.189   4.561  0.00  0.00     0.075 H 
ATOM     25  H17 1OA d   1     -62.897  49.870   4.642  0.00  0.00     0.075 H 
ATOM     26  H18 1OA d   1     -62.916  49.157   2.317  0.00  0.00     0.036 H 
ATOM     27  H19 1OA d   1     -63.772  47.636   2.740  0.00  0.00     0.036 H 
ATOM     28  H9  1OA d   1     -64.919  50.492   2.860  0.00  0.00     0.049 H 
ENDBRANCH   7  12
BRANCH   9  29
ATOM     29  O19 1OA d   1     -64.416  50.028  -2.010  0.00  0.00    -0.345 OA
ATOM     30  H8  1OA d   1     -63.957  49.379  -2.530  0.00  0.00     0.219 HD
ENDBRANCH   9  29
BRANCH   1  31
ATOM     31  C8  1OA d   1     -68.401  46.036  -0.037  0.00  0.00     0.261 C 
ATOM     32  N7  1OA d   1     -68.164  46.039   1.296  0.00  0.00    -0.323 N 
ATOM     33  H5  1OA d   1     -67.501  46.711   1.625  0.00  0.00     0.169 HD
ATOM     34  O9  1OA d   1     -69.195  45.305  -0.608  0.00  0.00    -0.267 OA
BRANCH  32  35
ATOM     35  C6  1OA d   1     -68.738  45.213   2.266  0.00  0.00     0.035 A 
ATOM     36  C1  1OA d   1     -68.147  45.232   3.533  0.00  0.00    -0.054 A 
ATOM     37  C2  1OA d   1     -68.629  44.412   4.535  0.00  0.00    -0.044 A 
ATOM     38  H1  1OA d   1     -67.309  45.891   3.729  0.00  0.00     0.087 H 
ATOM     39  C3  1OA d   1     -69.685  43.551   4.259  0.00  0.00     0.116 A 
ATOM     40  H2  1OA d   1     -68.189  44.440   5.525  0.00  0.00     0.088 H 
ATOM     41  C4  1OA d   1     -70.256  43.514   2.990  0.00  0.00    -0.044 A 
ATOM     42  F26 1OA d   1     -70.166  42.738   5.229  0.00  0.00    -0.206 F 
ATOM     43  C5  1OA d   1     -69.777  44.329   1.986  0.00  0.00    -0.054 A 
ATOM     44  H3  1OA d   1     -71.082  42.841   2.790  0.00  0.00     0.088 H 
ATOM     45  H4  1OA d   1     -70.204  44.282   0.991  0.00  0.00     0.087 H 
ENDBRANCH  32  35
ENDBRANCH   1  31
TORSDOF 4
