REMARK  5 active torsions:
REMARK  status: ('A' for Active; 'I' for Inactive)
REMARK    1  A    between atoms: C6_6  and  C7_7 
REMARK    2  A    between atoms: C7_7  and  C8_8 
REMARK    3  A    between atoms: C10_10  and  O27_27 
REMARK    4  A    between atoms: C14_14  and  C17_17 
REMARK       I    between atoms: C17_17  and  N19_19 
REMARK    5  A    between atoms: N19_19  and  C20_20 
ROOT
ATOM      1  C1  1OB d   1     -18.174 -35.613   5.268  0.00  0.00    -0.075 A 
ATOM      2  C2  1OB d   1     -18.500 -36.944   5.471  0.00  0.00    -0.062 A 
ATOM      3  C3  1OB d   1     -19.830 -37.308   5.708  0.00  0.00     0.044 A 
ATOM      4  C4  1OB d   1     -20.823 -36.323   5.726  0.00  0.00    -0.062 A 
ATOM      5  C5  1OB d   1     -20.475 -34.998   5.514  0.00  0.00    -0.075 A 
ATOM      6  C6  1OB d   1     -19.157 -34.641   5.279  0.00  0.00    -0.052 A 
ATOM      7  C28 1OB d   1     -20.168 -38.677   5.925  0.00  0.00     0.099 C 
ATOM      8  N29 1OB d   1     -20.428 -39.768   6.096  0.00  0.00    -0.191 NA
ATOM      9  H1  1OB d   1     -17.141 -35.332   5.099  0.00  0.00     0.084 H 
ATOM     10  H2  1OB d   1     -17.726 -37.702   5.446  0.00  0.00     0.085 H 
ATOM     11  H3  1OB d   1     -21.857 -36.594   5.904  0.00  0.00     0.085 H 
ATOM     12  H4  1OB d   1     -21.242 -34.233   5.532  0.00  0.00     0.084 H 
ENDROOT
BRANCH   6  13
ATOM     13  C7  1OB d   1     -18.785 -33.196   5.064  0.00  0.00    -0.001 C 
ATOM     14  H5  1OB d   1     -18.105 -32.890   5.873  0.00  0.00     0.049 H 
ATOM     15  H6  1OB d   1     -19.704 -32.593   5.109  0.00  0.00     0.049 H 
BRANCH  13  16
ATOM     16  C8  1OB d   1     -18.104 -32.924   3.745  0.00  0.00     0.045 A 
ATOM     17  C9  1OB d   1     -17.283 -31.804   3.644  0.00  0.00    -0.008 A 
ATOM     18  C10 1OB d   1     -16.664 -31.548   2.451  0.00  0.00     0.167 A 
ATOM     19  H7  1OB d   1     -17.136 -31.145   4.498  0.00  0.00     0.093 H 
ATOM     20  N11 1OB d   1     -16.872 -32.363   1.389  0.00  0.00    -0.192 N 
ATOM     21  C12 1OB d   1     -17.691 -33.438   1.531  0.00  0.00     0.171 A 
ATOM     22  N16 1OB d   1     -16.385 -32.333   0.078  0.00  0.00    -0.175 NA
ATOM     23  N13 1OB d   1     -18.292 -33.707   2.694  0.00  0.00    -0.232 NA
ATOM     24  C14 1OB d   1     -17.700 -34.076   0.285  0.00  0.00     0.099 A 
ATOM     25  C15 1OB d   1     -16.883 -33.342  -0.585  0.00  0.00     0.041 A 
ATOM     26  H8  1OB d   1     -16.696 -33.573  -1.633  0.00  0.00     0.119 H 
BRANCH  18  27
ATOM     27  O27 1OB d   1     -15.866 -30.481   2.277  0.00  0.00    -0.345 OA
ATOM     28  H14 1OB d   1     -15.001 -30.773   2.015  0.00  0.00     0.219 HD
ENDBRANCH  18  27
BRANCH  24  29
ATOM     29  C17 1OB d   1     -18.485 -35.251  -0.038  0.00  0.00     0.261 C 
ATOM     30  O18 1OB d   1     -18.442 -35.696  -1.171  0.00  0.00    -0.267 OA
ATOM     31  N19 1OB d   1     -19.261 -35.731   0.963  0.00  0.00    -0.323 N 
ATOM     32  H9  1OB d   1     -19.200 -35.242   1.833  0.00  0.00     0.169 HD
BRANCH  31  33
ATOM     33  C20 1OB d   1     -20.138 -36.823   0.939  0.00  0.00     0.035 A 
ATOM     34  C21 1OB d   1     -20.664 -37.243   2.157  0.00  0.00    -0.054 A 
ATOM     35  C22 1OB d   1     -21.539 -38.310   2.212  0.00  0.00    -0.044 A 
ATOM     36  H10 1OB d   1     -20.385 -36.729   3.070  0.00  0.00     0.087 H 
ATOM     37  C23 1OB d   1     -21.895 -38.958   1.041  0.00  0.00     0.116 A 
ATOM     38  H11 1OB d   1     -21.943 -38.637   3.163  0.00  0.00     0.088 H 
ATOM     39  C24 1OB d   1     -21.379 -38.550  -0.176  0.00  0.00    -0.044 A 
ATOM     40  F26 1OB d   1     -22.745 -40.003   1.083  0.00  0.00    -0.206 F 
ATOM     41  C25 1OB d   1     -20.507 -37.477  -0.231  0.00  0.00    -0.054 A 
ATOM     42  H12 1OB d   1     -21.657 -39.070  -1.085  0.00  0.00     0.088 H 
ATOM     43  H13 1OB d   1     -20.112 -37.147  -1.185  0.00  0.00     0.087 H 
ENDBRANCH  31  33
ENDBRANCH  24  29
ENDBRANCH  13  16
ENDBRANCH   6  13
TORSDOF 5
