REMARK  10 active torsions:
REMARK  status: ('A' for Active; 'I' for Inactive)
REMARK    1  A    between atoms: O1_1  and  C5_2 
REMARK    2  A    between atoms: C2_5  and  C1_8 
REMARK    3  A    between atoms: C1_8  and  C14_9 
REMARK    4  A    between atoms: C1_8  and  C8_18 
REMARK    5  A    between atoms: C17_12  and  N2_13 
REMARK    6  A    between atoms: N2_13  and  C23_14 
REMARK    7  A    between atoms: N2_13  and  C22_15 
REMARK    8  A    between atoms: C11_21  and  N1_22 
REMARK    9  A    between atoms: N1_22  and  C21_23 
REMARK   10  A    between atoms: N1_22  and  C20_24 
ROOT
ATOM      1  C1  1OM d   1       2.123   7.787  -1.917  0.00  0.00     0.022 C 
ATOM      2  H6  1OM d   1       3.025   8.039  -1.339  0.00  0.00     0.062 H 
ENDROOT
BRANCH   1   3
ATOM      3  C2  1OM d   1       1.869   6.635  -1.021  0.00  0.00    -0.045 A 
ATOM      4  C3  1OM d   1       1.652   5.356  -1.530  0.00  0.00    -0.073 A 
ATOM      5  C4  1OM d   1       1.436   4.236  -0.650  0.00  0.00    -0.051 A 
ATOM      6  H3  1OM d   1       1.646   5.202  -2.603  0.00  0.00     0.084 H 
ATOM      7  C5  1OM d   1       1.449   4.402   0.763  0.00  0.00     0.065 A 
ATOM      8  H2  1OM d   1       1.261   3.252  -1.071  0.00  0.00     0.087 H 
ATOM      9  C6  1OM d   1       1.677   5.689   1.278  0.00  0.00    -0.051 A 
ATOM     10  C7  1OM d   1       1.899   6.802   0.410  0.00  0.00    -0.073 A 
ATOM     11  H5  1OM d   1       1.685   5.840   2.351  0.00  0.00     0.087 H 
ATOM     12  H4  1OM d   1       2.092   7.782   0.832  0.00  0.00     0.084 H 
BRANCH   7  13
ATOM     13  O1  1OM d   1       1.198   3.315   1.646  0.00  0.00    -0.361 OA
ATOM     14  H1  1OM d   1       1.250   3.620   2.544  0.00  0.00     0.217 HD
ENDBRANCH   7  13
ENDBRANCH   1   3
BRANCH   1  15
ATOM     15  C14 1OM d   1       1.556   9.057  -1.595  0.00  0.00    -0.045 A 
ATOM     16  C19 1OM d   1       2.162  10.285  -1.966  0.00  0.00    -0.074 A 
ATOM     17  C18 1OM d   1       1.521  11.529  -1.752  0.00  0.00    -0.057 A 
ATOM     18  H7  1OM d   1       3.143  10.270  -2.426  0.00  0.00     0.084 H 
ATOM     19  C17 1OM d   1       0.221  11.590  -1.115  0.00  0.00     0.029 A 
ATOM     20  H8  1OM d   1       2.007  12.445  -2.068  0.00  0.00     0.086 H 
ATOM     21  C16 1OM d   1      -0.373  10.362  -0.765  0.00  0.00    -0.057 A 
ATOM     22  C15 1OM d   1       0.261   9.117  -0.983  0.00  0.00    -0.074 A 
ATOM     23  H15 1OM d   1      -1.357  10.372  -0.310  0.00  0.00     0.086 H 
ATOM     24  H16 1OM d   1      -0.236   8.201  -0.685  0.00  0.00     0.084 H 
BRANCH  19  25
ATOM     25  N2  1OM d   1      -0.553  12.807  -1.023  0.00  0.00    -0.390 N 
BRANCH  25  26
ATOM     26  C23 1OM d   1      -1.981  12.676  -0.808  0.00  0.00    -0.019 C 
ATOM     27  H9  1OM d   1      -2.438  13.676  -0.759  0.00  0.00     0.056 H 
ATOM     28  H10 1OM d   1      -2.162  12.143   0.137  0.00  0.00     0.056 H 
ATOM     29  H11 1OM d   1      -2.426  12.110  -1.639  0.00  0.00     0.056 H 
ENDBRANCH  25  26
BRANCH  25  30
ATOM     30  C22 1OM d   1       0.091  14.104  -1.252  0.00  0.00    -0.019 C 
ATOM     31  H12 1OM d   1       1.173  13.957  -1.389  0.00  0.00     0.056 H 
ATOM     32  H13 1OM d   1      -0.084  14.758  -0.385  0.00  0.00     0.056 H 
ATOM     33  H14 1OM d   1      -0.333  14.570  -2.154  0.00  0.00     0.056 H 
ENDBRANCH  25  30
ENDBRANCH  19  25
ENDBRANCH   1  15
BRANCH   1  34
ATOM     34  C8  1OM d   1       2.928   7.638  -3.101  0.00  0.00    -0.045 A 
ATOM     35  C13 1OM d   1       2.623   8.341  -4.321  0.00  0.00    -0.074 A 
ATOM     36  C12 1OM d   1       3.411   8.240  -5.474  0.00  0.00    -0.057 A 
ATOM     37  H17 1OM d   1       1.745   8.976  -4.348  0.00  0.00     0.084 H 
ATOM     38  C11 1OM d   1       4.540   7.416  -5.463  0.00  0.00     0.029 A 
ATOM     39  H18 1OM d   1       3.148   8.796  -6.367  0.00  0.00     0.086 H 
ATOM     40  C10 1OM d   1       4.857   6.718  -4.278  0.00  0.00    -0.057 A 
ATOM     41  C9  1OM d   1       4.048   6.832  -3.101  0.00  0.00    -0.074 A 
ATOM     42  H25 1OM d   1       5.734   6.080  -4.258  0.00  0.00     0.086 H 
ATOM     43  H26 1OM d   1       4.317   6.282  -2.206  0.00  0.00     0.084 H 
BRANCH  38  44
ATOM     44  N1  1OM d   1       5.350   7.375  -6.528  0.00  0.00    -0.390 N 
BRANCH  44  45
ATOM     45  C21 1OM d   1       4.855   7.832  -7.850  0.00  0.00    -0.019 C 
ATOM     46  H19 1OM d   1       5.655   7.725  -8.598  0.00  0.00     0.056 H 
ATOM     47  H20 1OM d   1       4.554   8.888  -7.784  0.00  0.00     0.056 H 
ATOM     48  H21 1OM d   1       3.990   7.222  -8.149  0.00  0.00     0.056 H 
ENDBRANCH  44  45
BRANCH  44  49
ATOM     49  C20 1OM d   1       6.735   6.974  -6.411  0.00  0.00    -0.019 C 
ATOM     50  H22 1OM d   1       6.941   6.665  -5.376  0.00  0.00     0.056 H 
ATOM     51  H23 1OM d   1       7.386   7.820  -6.677  0.00  0.00     0.056 H 
ATOM     52  H24 1OM d   1       6.932   6.132  -7.091  0.00  0.00     0.056 H 
ENDBRANCH  44  49
ENDBRANCH  38  44
ENDBRANCH   1  34
TORSDOF 10
