REMARK  4 active torsions:
REMARK  status: ('A' for Active; 'I' for Inactive)
REMARK    1  A    between atoms: P_2  and  C1_5 
REMARK    2  A    between atoms: C1_5  and  N1_6 
REMARK    3  A    between atoms: C1_5  and  C2_7 
REMARK    4  A    between atoms: C5_10  and  N2_13 
ROOT
ATOM      1  C2  1OT d   1      84.898  73.861  31.119  0.00  0.00    -0.014 A 
ATOM      2  C10 1OT d   1      83.851  74.031  32.000  0.00  0.00    -0.072 A 
ATOM      3  C9  1OT d   1      83.019  72.971  32.270  0.00  0.00    -0.055 A 
ATOM      4  C5  1OT d   1      83.173  71.723  31.681  0.00  0.00     0.058 A 
ATOM      5  C4  1OT d   1      84.236  71.578  30.782  0.00  0.00    -0.055 A 
ATOM      6  C3  1OT d   1      85.099  72.637  30.494  0.00  0.00    -0.072 A 
ATOM      7  H5  1OT d   1      83.686  74.991  32.475  0.00  0.00     0.084 H 
ATOM      8  H6  1OT d   1      82.207  73.115  32.974  0.00  0.00     0.087 H 
ATOM      9  H7  1OT d   1      84.393  70.621  30.298  0.00  0.00     0.087 H 
ATOM     10  H8  1OT d   1      85.915  72.506  29.792  0.00  0.00     0.084 H 
ENDROOT
BRANCH   1  11
ATOM     11  C1  1OT d   1      85.734  75.045  30.862  0.00  0.00     0.231 C 
ATOM     12  H1  1OT d   1      85.887  75.602  31.798  0.00  0.00     0.114 H 
BRANCH  11  13
ATOM     13  P   1OT d   1      87.349  74.651  30.138  0.00  0.00     0.295 P 
ATOM     14  O1  1OT d   1      88.005  75.966  29.940  0.00  0.00    -0.638 OA
ATOM     15  O2  1OT d   1      87.184  73.867  28.739  0.00  0.00    -0.638 OA
ATOM     16  O3  1OT d   1      88.243  73.757  31.140  0.00  0.00    -0.638 OA
ENDBRANCH  11  13
BRANCH  11  17
ATOM     17  N1  1OT d   1      84.978  75.835  29.912  0.00  0.00    -0.058 N 
ATOM     18  H2  1OT d   1      84.077  76.060  30.304  0.00  0.00     0.275 HD
ATOM     19  H3  1OT d   1      84.852  75.308  29.062  0.00  0.00     0.275 HD
ATOM     20  H4  1OT d   1      85.478  76.686  29.709  0.00  0.00     0.275 HD
ENDBRANCH  11  17
ENDBRANCH   1  11
BRANCH   4  21
ATOM     21  N2  1OT d   1      82.319  70.754  32.002  0.00  0.00    -0.245 N 
ATOM     22  N3  1OT d   1      82.384  69.470  31.473  0.00  0.00    -0.180 NA
ATOM     23  C8  1OT d   1      81.343  68.853  32.073  0.00  0.00     0.023 A 
ATOM     24  C7  1OT d   1      80.692  69.754  32.910  0.00  0.00    -0.048 A 
ATOM     25  H9  1OT d   1      81.058  67.812  31.925  0.00  0.00     0.117 H 
ATOM     26  C6  1OT d   1      81.332  70.972  32.864  0.00  0.00     0.006 A 
ATOM     27  H10 1OT d   1      79.811  69.530  33.510  0.00  0.00     0.087 H 
ATOM     28  H11 1OT d   1      81.089  71.888  33.401  0.00  0.00     0.114 H 
ENDBRANCH   4  21
TORSDOF 4
