REMARK  6 active torsions:
REMARK  status: ('A' for Active; 'I' for Inactive)
REMARK    1  A    between atoms: C8_11  and  C9_12 
REMARK    2  A    between atoms: C9_12  and  C19_13 
REMARK    3  A    between atoms: C10_14  and  C11_15 
REMARK    4  A    between atoms: C12_16  and  C13_17 
REMARK    5  A    between atoms: C13_17  and  C20_18 
REMARK    6  A    between atoms: C14_19  and  C15_20 
ROOT
ATOM      1  C2' 1O8 d   1      66.019  46.352  29.846  0.00  0.00    -0.040 C 
ATOM      2  C1' 1O8 d   1      67.421  46.246  30.454  0.00  0.00    -0.058 C 
ATOM      3  C18 1O8 d   1      67.407  45.949  31.957  0.00  0.00    -0.040 C 
ATOM      4  C5  1O8 d   1      66.415  46.844  32.707  0.00  0.00    -0.047 A 
ATOM      5  C4  1O8 d   1      66.584  47.002  34.079  0.00  0.00    -0.076 A 
ATOM      6  C3  1O8 d   1      65.703  47.780  34.822  0.00  0.00    -0.082 A 
ATOM      7  C2  1O8 d   1      64.634  48.426  34.206  0.00  0.00    -0.082 A 
ATOM      8  C1  1O8 d   1      64.462  48.278  32.836  0.00  0.00    -0.072 A 
ATOM      9  C6  1O8 d   1      65.344  47.494  32.099  0.00  0.00    -0.024 A 
ATOM     10  C7  1O8 d   1      65.164  47.336  30.647  0.00  0.00    -0.047 C 
ATOM     11  C8  1O8 d   1      64.181  48.077  30.006  0.00  0.00    -0.070 C 
ATOM     12  H1  1O8 d   1      65.541  45.361  29.861  0.00  0.00     0.040 H 
ATOM     13  H2  1O8 d   1      66.100  46.704  28.807  0.00  0.00     0.040 H 
ATOM     14  H3  1O8 d   1      67.946  47.199  30.291  0.00  0.00     0.033 H 
ATOM     15  H4  1O8 d   1      67.963  45.437  29.943  0.00  0.00     0.033 H 
ATOM     16  H5  1O8 d   1      68.415  46.118  32.362  0.00  0.00     0.040 H 
ATOM     17  H6  1O8 d   1      67.122  44.897  32.109  0.00  0.00     0.040 H 
ATOM     18  H7  1O8 d   1      67.414  46.512  34.575  0.00  0.00     0.084 H 
ATOM     19  H8  1O8 d   1      65.850  47.885  35.891  0.00  0.00     0.083 H 
ATOM     20  H9  1O8 d   1      63.948  49.033  34.786  0.00  0.00     0.083 H 
ATOM     21  H10 1O8 d   1      63.637  48.775  32.339  0.00  0.00     0.084 H 
ATOM     22  H11 1O8 d   1      63.563  48.760  30.587  0.00  0.00     0.085 H 
ENDROOT
BRANCH  11  23
ATOM     23  C9  1O8 d   1      63.958  47.958  28.557  0.00  0.00    -0.061 C 
ATOM     24  C10 1O8 d   1      62.716  47.571  28.062  0.00  0.00    -0.077 C 
ATOM     25  H15 1O8 d   1      62.576  47.495  26.985  0.00  0.00     0.084 H 
BRANCH  23  26
ATOM     26  C19 1O8 d   1      65.084  48.297  27.580  0.00  0.00    -0.051 C 
ATOM     27  H12 1O8 d   1      64.731  48.149  26.549  0.00  0.00     0.033 H 
ATOM     28  H13 1O8 d   1      65.945  47.640  27.771  0.00  0.00     0.033 H 
ATOM     29  H14 1O8 d   1      65.385  49.346  27.717  0.00  0.00     0.033 H 
ENDBRANCH  23  26
BRANCH  24  30
ATOM     30  C11 1O8 d   1      61.593  47.264  28.948  0.00  0.00    -0.082 C 
ATOM     31  C12 1O8 d   1      60.368  46.896  28.399  0.00  0.00    -0.077 C 
ATOM     32  H17 1O8 d   1      60.266  46.831  27.317  0.00  0.00     0.084 H 
ATOM     33  H16 1O8 d   1      61.715  47.323  30.029  0.00  0.00     0.083 H 
BRANCH  31  34
ATOM     34  C13 1O8 d   1      59.211  46.594  29.250  0.00  0.00    -0.056 C 
ATOM     35  C14 1O8 d   1      57.933  46.838  28.759  0.00  0.00    -0.004 C 
ATOM     36  H21 1O8 d   1      57.829  47.247  27.755  0.00  0.00     0.094 H 
BRANCH  34  37
ATOM     37  C20 1O8 d   1      59.424  46.000  30.644  0.00  0.00    -0.051 C 
ATOM     38  H18 1O8 d   1      58.449  45.843  31.128  0.00  0.00     0.033 H 
ATOM     39  H19 1O8 d   1      60.027  46.693  31.250  0.00  0.00     0.033 H 
ATOM     40  H20 1O8 d   1      59.949  45.037  30.556  0.00  0.00     0.033 H 
ENDBRANCH  34  37
BRANCH  35  41
ATOM     41  C15 1O8 d   1      56.720  46.567  29.537  0.00  0.00     0.199 C 
ATOM     42  O1  1O8 d   1      55.776  47.381  29.444  0.00  0.00    -0.644 OA
ATOM     43  O2  1O8 d   1      56.685  45.548  30.261  0.00  0.00    -0.644 OA
ENDBRANCH  35  41
ENDBRANCH  31  34
ENDBRANCH  24  30
ENDBRANCH  11  23
TORSDOF 6
