REMARK  5 active torsions:
REMARK  status: ('A' for Active; 'I' for Inactive)
REMARK    1  A    between atoms: P_2  and  C6_5 
REMARK    2  A    between atoms: C6_5  and  N3_6 
REMARK    3  A    between atoms: C6_5  and  C5_7 
REMARK    4  A    between atoms: C2_10  and  C1_11 
REMARK    5  A    between atoms: C1_11  and  N1_12 
ROOT
ATOM      1  C5  1OS d   1      12.418  12.565  13.958  0.00  0.00    -0.015 A 
ATOM      2  C7  1OS d   1      13.193  13.402  14.739  0.00  0.00    -0.073 A 
ATOM      3  C8  1OS d   1      13.307  13.036  16.092  0.00  0.00    -0.069 A 
ATOM      4  C2  1OS d   1      12.654  11.904  16.639  0.00  0.00     0.007 A 
ATOM      5  C3  1OS d   1      11.877  11.116  15.832  0.00  0.00    -0.069 A 
ATOM      6  C4  1OS d   1      11.766  11.453  14.493  0.00  0.00    -0.073 A 
ATOM      7  H5  1OS d   1      13.681  14.282  14.335  0.00  0.00     0.084 H 
ATOM      8  H6  1OS d   1      13.921  13.646  16.744  0.00  0.00     0.085 H 
ATOM      9  H11 1OS d   1      11.362  10.250  16.231  0.00  0.00     0.085 H 
ATOM     10  H12 1OS d   1      11.156  10.836  13.843  0.00  0.00     0.084 H 
ENDROOT
BRANCH   1  11
ATOM     11  C6  1OS d   1      12.102  12.808  12.539  0.00  0.00     0.231 C 
ATOM     12  H1  1OS d   1      12.222  13.877  12.308  0.00  0.00     0.114 H 
BRANCH  11  13
ATOM     13  P   1OS d   1      13.033  11.814  11.410  0.00  0.00     0.295 P 
ATOM     14  O1  1OS d   1      12.588  12.718  10.151  0.00  0.00    -0.638 OA
ATOM     15  O2  1OS d   1      12.224  10.485  10.718  0.00  0.00    -0.638 OA
ATOM     16  O3  1OS d   1      14.628  12.030  11.371  0.00  0.00    -0.638 OA
ENDBRANCH  11  13
BRANCH  11  17
ATOM     17  N3  1OS d   1      10.718  12.340  12.313  0.00  0.00    -0.058 N 
ATOM     18  H2  1OS d   1      10.089  12.848  12.915  0.00  0.00     0.275 HD
ATOM     19  H3  1OS d   1      10.659  11.355  12.519  0.00  0.00     0.275 HD
ATOM     20  H4  1OS d   1      10.463  12.498  11.351  0.00  0.00     0.275 HD
ENDBRANCH  11  17
ENDBRANCH   1  11
BRANCH   4  21
ATOM     21  C1  1OS d   1      12.764  11.414  18.086  0.00  0.00     0.102 C 
ATOM     22  N2  1OS d   1      13.969  11.050  18.549  0.00  0.00    -0.385 N 
ATOM     23  H9  1OS d   1      14.804  11.161  17.956  0.00  0.00     0.157 HD
ATOM     24  H10 1OS d   1      14.060  10.659  19.498  0.00  0.00     0.157 HD
BRANCH  21  25
ATOM     25  N1  1OS d   1      11.763  11.256  18.860  0.00  0.00    -0.385 N 
ATOM     26  H7  1OS d   1      11.905  10.923  19.824  0.00  0.00     0.157 HD
ATOM     27  H8  1OS d   1      10.812  11.462  18.521  0.00  0.00     0.157 HD
ENDBRANCH  21  25
ENDBRANCH   4  21
TORSDOF 5
