REMARK  8 active torsions:
REMARK  status: ('A' for Active; 'I' for Inactive)
REMARK    1  A    between atoms: C51_2  and  C11_4 
REMARK    2  A    between atoms: C14_8  and  C47_10 
REMARK    3  A    between atoms: C47_10  and  C4_12 
REMARK    4  A    between atoms: C3_13  and  C43_14 
REMARK    5  A    between atoms: C19_18  and  C27_19 
REMARK    6  A    between atoms: C19_18  and  C31_20 
REMARK    7  A    between atoms: C22_23  and  C39_25 
REMARK    8  A    between atoms: C22_23  and  C35_26 
ROOT
ATOM      1  C4  9RA d   1      -2.245  18.867  -2.779  0.00  0.00    -0.019 A 
ATOM      2  C3  9RA d   1      -1.501  19.984  -2.423  0.00  0.00    -0.050 A 
ATOM      3  C2  9RA d   1      -0.463  20.402  -3.246  0.00  0.00    -0.069 A 
ATOM      4  C5  9RA d   1      -1.932  18.189  -3.951  0.00  0.00    -0.064 A 
ATOM      5  C6  9RA d   1      -0.890  18.605  -4.776  0.00  0.00    -0.042 A 
ATOM      6  C19 9RA d   1      -0.601  17.805  -6.050  0.00  0.00    -0.020 C 
ATOM      7  C20 9RA d   1       0.728  18.218  -6.693  0.00  0.00    -0.054 C 
ATOM      8  C21 9RA d   1       0.852  19.737  -6.716  0.00  0.00    -0.054 C 
ATOM      9  C22 9RA d   1       1.008  20.242  -5.281  0.00  0.00    -0.020 C 
ATOM     10  C1  9RA d   1      -0.150  19.730  -4.418  0.00  0.00    -0.043 A 
ATOM     11  H10 9RA d   1       0.116  21.274  -2.965  0.00  0.00     0.085 H 
ATOM     12  H11 9RA d   1      -2.512  17.317  -4.229  0.00  0.00     0.085 H 
ATOM     13  H18 9RA d   1       0.768  17.835  -7.723  0.00  0.00     0.034 H 
ATOM     14  H19 9RA d   1       1.560  17.794  -6.112  0.00  0.00     0.034 H 
ATOM     15  H20 9RA d   1      -0.052  20.175  -7.165  0.00  0.00     0.034 H 
ATOM     16  H21 9RA d   1       1.733  20.027  -7.307  0.00  0.00     0.034 H 
ENDROOT
BRANCH   1  17
ATOM     17  C47 9RA d   1      -3.274  18.437  -1.939  0.00  0.00    -0.025 C 
ATOM     18  C48 9RA d   1      -2.962  17.609  -0.869  0.00  0.00    -0.110 C 
ATOM     19  H5  9RA d   1      -3.749  17.262  -0.201  0.00  0.00     0.068 H 
ATOM     20  H6  9RA d   1      -1.930  17.307  -0.697  0.00  0.00     0.068 H 
BRANCH  17  21
ATOM     21  C14 9RA d   1      -4.595  18.809  -2.165  0.00  0.00    -0.026 A 
ATOM     22  C13 9RA d   1      -5.579  18.538  -1.215  0.00  0.00    -0.071 A 
ATOM     23  C12 9RA d   1      -6.911  18.843  -1.465  0.00  0.00    -0.066 A 
ATOM     24  H3  9RA d   1      -5.301  18.084  -0.271  0.00  0.00     0.084 H 
ATOM     25  C11 9RA d   1      -7.281  19.426  -2.673  0.00  0.00     0.040 A 
ATOM     26  H2  9RA d   1      -7.665  18.626  -0.717  0.00  0.00     0.085 H 
ATOM     27  C10 9RA d   1      -6.302  19.711  -3.619  0.00  0.00    -0.066 A 
ATOM     28  C9  9RA d   1      -4.969  19.403  -3.366  0.00  0.00    -0.071 A 
ATOM     29  H1  9RA d   1      -6.579  20.176  -4.558  0.00  0.00     0.085 H 
ATOM     30  H4  9RA d   1      -4.215  19.628  -4.112  0.00  0.00     0.084 H 
BRANCH  25  31
ATOM     31  C51 9RA d   1      -8.757  19.673  -3.005  0.00  0.00     0.209 C 
ATOM     32  O53 9RA d   1      -9.620  18.969  -2.436  0.00  0.00    -0.644 OA
ATOM     33  O52 9RA d   1      -9.020  20.553  -3.851  0.00  0.00    -0.644 OA
ENDBRANCH  25  31
ENDBRANCH  17  21
ENDBRANCH   1  17
BRANCH   2  34
ATOM     34  C43 9RA d   1      -1.845  20.786  -1.165  0.00  0.00    -0.050 C 
ATOM     35  H7  9RA d   1      -1.142  21.626  -1.062  0.00  0.00     0.033 H 
ATOM     36  H8  9RA d   1      -1.770  20.134  -0.282  0.00  0.00     0.033 H 
ATOM     37  H9  9RA d   1      -2.871  21.175  -1.247  0.00  0.00     0.033 H 
ENDBRANCH   2  34
BRANCH   6  38
ATOM     38  C27 9RA d   1      -0.548  16.317  -5.698  0.00  0.00    -0.065 C 
ATOM     39  H12 9RA d   1      -0.341  15.732  -6.606  0.00  0.00     0.028 H 
ATOM     40  H13 9RA d   1      -1.514  16.006  -5.274  0.00  0.00     0.028 H 
ATOM     41  H14 9RA d   1       0.249  16.143  -4.960  0.00  0.00     0.028 H 
ENDBRANCH   6  38
BRANCH   6  42
ATOM     42  C31 9RA d   1      -1.730  18.057  -7.049  0.00  0.00    -0.065 C 
ATOM     43  H15 9RA d   1      -1.765  19.127  -7.300  0.00  0.00     0.028 H 
ATOM     44  H16 9RA d   1      -2.689  17.753  -6.603  0.00  0.00     0.028 H 
ATOM     45  H17 9RA d   1      -1.548  17.472  -7.963  0.00  0.00     0.028 H 
ENDBRANCH   6  42
BRANCH   9  46
ATOM     46  C39 9RA d   1       1.031  21.768  -5.287  0.00  0.00    -0.065 C 
ATOM     47  H22 9RA d   1       1.143  22.137  -4.257  0.00  0.00     0.028 H 
ATOM     48  H23 9RA d   1       0.090  22.147  -5.712  0.00  0.00     0.028 H 
ATOM     49  H24 9RA d   1       1.877  22.120  -5.896  0.00  0.00     0.028 H 
ENDBRANCH   9  46
BRANCH   9  50
ATOM     50  C35 9RA d   1       2.321  19.733  -4.692  0.00  0.00    -0.065 C 
ATOM     51  H25 9RA d   1       2.317  18.633  -4.682  0.00  0.00     0.028 H 
ATOM     52  H26 9RA d   1       2.432  20.108  -3.664  0.00  0.00     0.028 H 
ATOM     53  H27 9RA d   1       3.161  20.091  -5.305  0.00  0.00     0.028 H 
ENDBRANCH   9  50
TORSDOF 8
