REMARK  2 active torsions:
REMARK  status: ('A' for Active; 'I' for Inactive)
REMARK    1  A    between atoms: C9_8  and  N13_12 
REMARK    2  A    between atoms: N13_12  and  C14_13 
ROOT
ATOM      1  C14 1Q4 d   1      14.807   7.357   1.315  0.00  0.00     0.011 C 
ATOM      2  C15 1Q4 d   1      13.992   7.556   2.593  0.00  0.00    -0.046 C 
ATOM      3  C16 1Q4 d   1      13.506   9.009   2.705  0.00  0.00    -0.063 C 
ATOM      4  C17 1Q4 d   1      14.700   9.975   2.676  0.00  0.00    -0.065 C 
ATOM      5  C18 1Q4 d   1      15.334   9.840   1.291  0.00  0.00    -0.063 C 
ATOM      6  C19 1Q4 d   1      15.908   8.418   1.183  0.00  0.00    -0.046 C 
ATOM      7  H6  1Q4 d   1      14.140   7.412   0.442  0.00  0.00     0.072 H 
ATOM      8  H7  1Q4 d   1      14.621   7.317   3.463  0.00  0.00     0.035 H 
ATOM      9  H8  1Q4 d   1      13.121   6.884   2.575  0.00  0.00     0.035 H 
ATOM     10  H9  1Q4 d   1      12.959   9.137   3.651  0.00  0.00     0.033 H 
ATOM     11  H10 1Q4 d   1      12.837   9.234   1.861  0.00  0.00     0.033 H 
ATOM     12  H11 1Q4 d   1      15.428   9.704   3.455  0.00  0.00     0.033 H 
ATOM     13  H12 1Q4 d   1      14.357  11.008   2.838  0.00  0.00     0.033 H 
ATOM     14  H13 1Q4 d   1      16.139  10.580   1.173  0.00  0.00     0.033 H 
ATOM     15  H14 1Q4 d   1      14.573   9.998   0.512  0.00  0.00     0.033 H 
ATOM     16  H15 1Q4 d   1      16.399   8.304   0.205  0.00  0.00     0.035 H 
ATOM     17  H16 1Q4 d   1      16.647   8.269   1.984  0.00  0.00     0.035 H 
ENDROOT
BRANCH   1  18
ATOM     18  N13 1Q4 d   1      15.441   6.040   1.381  0.00  0.00    -0.369 N 
ATOM     19  H5  1Q4 d   1      16.325   5.918   1.896  0.00  0.00     0.161 HD
BRANCH  18  20
ATOM     20  C9  1Q4 d   1      14.853   4.960   0.752  0.00  0.00     0.138 A 
ATOM     21  C8  1Q4 d   1      15.479   3.686   0.730  0.00  0.00     0.045 A 
ATOM     22  C1  1Q4 d   1      16.781   3.430   1.336  0.00  0.00    -0.052 A 
ATOM     23  C7  1Q4 d   1      14.808   2.631   0.070  0.00  0.00     0.140 A 
ATOM     24  C2  1Q4 d   1      17.290   2.191   1.260  0.00  0.00    -0.019 A 
ATOM     25  H1  1Q4 d   1      17.328   4.227   1.839  0.00  0.00     0.087 H 
ATOM     26  N3  1Q4 d   1      16.654   1.155   0.628  0.00  0.00    -0.332 N 
ATOM     27  H2  1Q4 d   1      18.257   1.999   1.724  0.00  0.00     0.111 H 
ATOM     28  C5  1Q4 d   1      15.450   1.305   0.023  0.00  0.00     0.275 A 
ATOM     29  H3  1Q4 d   1      17.093   0.257   0.612  0.00  0.00     0.168 HD
ATOM     30  O6  1Q4 d   1      14.906   0.361  -0.551  0.00  0.00    -0.266 OA
ATOM     31  N12 1Q4 d   1      13.627   2.874  -0.489  0.00  0.00    -0.235 NA
ATOM     32  C11 1Q4 d   1      13.088   4.063  -0.440  0.00  0.00     0.089 A 
ATOM     33  N10 1Q4 d   1      13.676   5.091   0.153  0.00  0.00    -0.224 NA
ATOM     34  H4  1Q4 d   1      12.120   4.214  -0.904  0.00  0.00     0.146 H 
ENDBRANCH  18  20
ENDBRANCH   1  18
TORSDOF 2
