REMARK  10 active torsions:
REMARK  status: ('A' for Active; 'I' for Inactive)
REMARK    1  A    between atoms: C5_5  and  N36_36 
REMARK    2  A    between atoms: C14_14  and  N8_8 
REMARK    3  A    between atoms: N32_32  and  C11_11 
REMARK    4  A    between atoms: N16_16  and  C22_22 
REMARK    5  A    between atoms: N29_29  and  C17_17 
REMARK    6  A    between atoms: C19_19  and  C21_21 
REMARK    7  A    between atoms: C21_21  and  C33_33 
REMARK    8  A    between atoms: C21_21  and  C34_34 
REMARK    9  A    between atoms: C21_21  and  C35_35 
REMARK   10  A    between atoms: C25_25  and  C28_28 
REMARK       I    between atoms: C30_30  and  N29_29 
REMARK       I    between atoms: C30_30  and  N32_32 
ROOT
ATOM      1  N16 K9Y d   1     -20.762 -25.708   1.937  0.00  0.00    -0.217 N 
ATOM      2  C17 K9Y d   1     -21.283 -26.889   2.370  0.00  0.00     0.135 A 
ATOM      3  C18 K9Y d   1     -20.291 -27.829   2.337  0.00  0.00    -0.012 A 
ATOM      4  C19 K9Y d   1     -19.107 -27.184   1.988  0.00  0.00     0.066 A 
ATOM      5  N20 K9Y d   1     -19.405 -25.934   1.724  0.00  0.00    -0.169 NA
ATOM      6  H7  K9Y d   1     -20.406 -28.892   2.546  0.00  0.00     0.092 H 
ENDROOT
BRANCH   2   7
ATOM      7  N29 K9Y d   1     -22.632 -27.128   2.615  0.00  0.00    -0.293 N 
ATOM      8  C30 K9Y d   1     -23.095 -28.079   3.435  0.00  0.00     0.326 C 
ATOM      9  O31 K9Y d   1     -22.335 -28.805   4.072  0.00  0.00    -0.247 OA
ATOM     10  N32 K9Y d   1     -24.449 -28.204   3.490  0.00  0.00    -0.309 N 
ATOM     11  H16 K9Y d   1     -24.990 -27.559   2.950  0.00  0.00     0.170 HD
ATOM     12  H15 K9Y d   1     -23.300 -26.550   2.147  0.00  0.00     0.172 HD
BRANCH  10  13
ATOM     13  C11 K9Y d   1     -25.147 -29.154   4.234  0.00  0.00     0.036 A 
ATOM     14  C10 K9Y d   1     -26.533 -29.010   4.379  0.00  0.00    -0.055 A 
ATOM     15  C15 K9Y d   1     -27.283 -29.984   5.041  0.00  0.00    -0.054 A 
ATOM     16  H3  K9Y d   1     -27.027 -28.135   3.974  0.00  0.00     0.087 H 
ATOM     17  C14 K9Y d   1     -26.644 -31.132   5.510  0.00  0.00     0.042 A 
ATOM     18  H6  K9Y d   1     -28.349 -29.850   5.189  0.00  0.00     0.087 H 
ATOM     19  C13 K9Y d   1     -25.263 -31.274   5.348  0.00  0.00    -0.054 A 
ATOM     20  C12 K9Y d   1     -24.514 -30.323   4.674  0.00  0.00    -0.055 A 
ATOM     21  H5  K9Y d   1     -24.767 -32.147   5.758  0.00  0.00     0.087 H 
ATOM     22  H4  K9Y d   1     -23.457 -30.481   4.491  0.00  0.00     0.087 H 
BRANCH  17  23
ATOM     23  N8  K9Y d   1     -27.256 -32.121   6.295  0.00  0.00    -0.288 N 
ATOM     24  C3  K9Y d   1     -27.911 -31.890   7.474  0.00  0.00     0.169 A 
ATOM     25  N2  K9Y d   1     -28.357 -30.796   8.098  0.00  0.00    -0.221 NA
ATOM     26  C4  K9Y d   1     -28.137 -33.170   8.043  0.00  0.00     0.149 A 
ATOM     27  C1  K9Y d   1     -28.992 -30.879   9.253  0.00  0.00     0.091 A 
ATOM     28  N6  K9Y d   1     -29.201 -32.054   9.836  0.00  0.00    -0.222 NA
ATOM     29  H1  K9Y d   1     -29.348 -29.974   9.732  0.00  0.00     0.146 H 
ATOM     30  C5  K9Y d   1     -28.823 -33.212   9.275  0.00  0.00     0.155 A 
ATOM     31  N7  K9Y d   1     -27.586 -34.095   7.212  0.00  0.00    -0.236 NA
ATOM     32  C9  K9Y d   1     -27.043 -33.482   6.195  0.00  0.00     0.073 A 
ATOM     33  H2  K9Y d   1     -26.502 -33.972   5.387  0.00  0.00     0.144 H 
BRANCH  30  34
ATOM     34  N36 K9Y d   1     -28.993 -34.405   9.954  0.00  0.00    -0.382 N 
ATOM     35  H26 K9Y d   1     -29.496 -34.419  10.853  0.00  0.00     0.157 HD
ATOM     36  H27 K9Y d   1     -28.616 -35.279   9.561  0.00  0.00     0.157 HD
ENDBRANCH  30  34
ENDBRANCH  17  23
ENDBRANCH  10  13
ENDBRANCH   2   7
BRANCH   1  37
ATOM     37  C22 K9Y d   1     -21.430 -24.480   1.716  0.00  0.00     0.060 A 
ATOM     38  C23 K9Y d   1     -21.072 -23.758   0.578  0.00  0.00    -0.055 A 
ATOM     39  C24 K9Y d   1     -21.674 -22.540   0.301  0.00  0.00    -0.075 A 
ATOM     40  H8  K9Y d   1     -20.318 -24.151  -0.094  0.00  0.00     0.087 H 
ATOM     41  C25 K9Y d   1     -22.687 -22.068   1.141  0.00  0.00    -0.062 A 
ATOM     42  H9  K9Y d   1     -21.362 -21.959  -0.559  0.00  0.00     0.084 H 
ATOM     43  C26 K9Y d   1     -23.082 -22.799   2.271  0.00  0.00    -0.075 A 
ATOM     44  C27 K9Y d   1     -22.425 -23.992   2.580  0.00  0.00    -0.055 A 
ATOM     45  H10 K9Y d   1     -23.890 -22.441   2.899  0.00  0.00     0.084 H 
ATOM     46  H11 K9Y d   1     -22.681 -24.538   3.481  0.00  0.00     0.087 H 
BRANCH  41  47
ATOM     47  C28 K9Y d   1     -23.374 -20.763   0.786  0.00  0.00    -0.051 C 
ATOM     48  H12 K9Y d   1     -22.923 -20.348  -0.127  0.00  0.00     0.033 H 
ATOM     49  H13 K9Y d   1     -23.253 -20.048   1.613  0.00  0.00     0.033 H 
ATOM     50  H14 K9Y d   1     -24.445 -20.947   0.615  0.00  0.00     0.033 H 
ENDBRANCH  41  47
ENDBRANCH   1  37
BRANCH   4  51
ATOM     51  C21 K9Y d   1     -17.752 -27.827   1.793  0.00  0.00    -0.005 C 
BRANCH  51  52
ATOM     52  C33 K9Y d   1     -17.842 -28.812   0.628  0.00  0.00    -0.064 C 
ATOM     53  H17 K9Y d   1     -16.863 -29.288   0.474  0.00  0.00     0.028 H 
ATOM     54  H18 K9Y d   1     -18.136 -28.274  -0.285  0.00  0.00     0.028 H 
ATOM     55  H19 K9Y d   1     -18.593 -29.583   0.857  0.00  0.00     0.028 H 
ENDBRANCH  51  52
BRANCH  51  56
ATOM     56  C34 K9Y d   1     -16.737 -26.757   1.386  0.00  0.00    -0.064 C 
ATOM     57  H20 K9Y d   1     -16.636 -26.020   2.196  0.00  0.00     0.028 H 
ATOM     58  H21 K9Y d   1     -17.083 -26.252   0.472  0.00  0.00     0.028 H 
ATOM     59  H22 K9Y d   1     -15.762 -27.230   1.197  0.00  0.00     0.028 H 
ENDBRANCH  51  56
BRANCH  51  60
ATOM     60  C35 K9Y d   1     -17.244 -28.597   3.014  0.00  0.00    -0.064 C 
ATOM     61  H23 K9Y d   1     -17.981 -29.363   3.297  0.00  0.00     0.028 H 
ATOM     62  H24 K9Y d   1     -17.099 -27.900   3.853  0.00  0.00     0.028 H 
ATOM     63  H25 K9Y d   1     -16.287 -29.082   2.770  0.00  0.00     0.028 H 
ENDBRANCH  51  60
ENDBRANCH   4  51
TORSDOF 10
