REMARK  17 active torsions:
REMARK  status: ('A' for Active; 'I' for Inactive)
REMARK    1  A    between atoms: C2_1  and  O39_38 
REMARK    2  A    between atoms: S8_7  and  C5_4 
REMARK    3  A    between atoms: N11_10  and  S8_7 
REMARK    4  A    between atoms: N11_10  and  C12_11 
REMARK    5  A    between atoms: C16_15  and  N11_10 
REMARK    6  A    between atoms: C12_11  and  C13_12 
REMARK    7  A    between atoms: C13_12  and  C14_13 
REMARK    8  A    between atoms: C13_12  and  C15_14 
REMARK    9  A    between atoms: C17_16  and  C16_15 
REMARK   10  A    between atoms: C17_16  and  O18_17 
REMARK   11  A    between atoms: C19_18  and  C17_16 
REMARK   12  A    between atoms: C19_18  and  N20_19 
REMARK   13  A    between atoms: C32_31  and  C19_18 
REMARK       I    between atoms: N20_19  and  C21_20 
REMARK   14  A    between atoms: C21_20  and  O23_22 
REMARK   15  A    between atoms: O23_22  and  C24_23 
REMARK   16  A    between atoms: C38_37  and  C32_31 
REMARK   17  A    between atoms: O39_38  and  C40_39 
ROOT
ATOM      1  C19 G79 d   1      14.156  20.196  16.978  0.00  0.00     0.044 C 
ATOM      2  H18 G79 d   1      13.227  20.696  16.665  0.00  0.00     0.077 H 
ENDROOT
BRANCH   1   3
ATOM      3  C17 G79 d   1      13.808  19.093  17.984  0.00  0.00     0.071 C 
ATOM      4  H16 G79 d   1      13.458  19.586  18.903  0.00  0.00     0.088 H 
BRANCH   3   5
ATOM      5  C16 G79 d   1      12.681  18.171  17.491  0.00  0.00     0.031 C 
ATOM      6  H14 G79 d   1      12.945  17.793  16.492  0.00  0.00     0.069 H 
ATOM      7  H15 G79 d   1      12.585  17.326  18.189  0.00  0.00     0.069 H 
BRANCH   5   8
ATOM      8  N11 G79 d   1      11.399  18.858  17.408  0.00  0.00    -0.304 N 
BRANCH   8   9
ATOM      9  S8  G79 d   1      10.698  19.108  15.943  0.00  0.00     0.260 S 
ATOM     10  O9  G79 d   1      11.743  19.187  14.911  0.00  0.00    -0.200 OA
ATOM     11  O10 G79 d   1       9.785  20.274  16.128  0.00  0.00    -0.200 OA
BRANCH   9  12
ATOM     12  C5  G79 d   1       9.682  17.744  15.443  0.00  0.00     0.079 C 
ATOM     13  C4  G79 d   1      10.268  16.646  14.827  0.00  0.00    -0.058 C 
ATOM     14  C3  G79 d   1       9.536  15.469  14.633  0.00  0.00    -0.049 C 
ATOM     15  H2  G79 d   1      11.298  16.701  14.495  0.00  0.00     0.086 H 
ATOM     16  C2  G79 d   1       8.170  15.447  14.894  0.00  0.00     0.068 C 
ATOM     17  H1  G79 d   1      10.034  14.574  14.279  0.00  0.00     0.087 H 
ATOM     18  C7  G79 d   1       7.564  16.596  15.409  0.00  0.00    -0.049 C 
ATOM     19  C6  G79 d   1       8.329  17.736  15.691  0.00  0.00    -0.058 C 
ATOM     20  H4  G79 d   1       6.495  16.606  15.591  0.00  0.00     0.087 H 
ATOM     21  H3  G79 d   1       7.852  18.616  16.107  0.00  0.00     0.086 H 
BRANCH  16  22
ATOM     22  O39 G79 d   1       7.525  14.260  14.711  0.00  0.00    -0.356 OA
BRANCH  22  23
ATOM     23  C40 G79 d   1       6.136  14.349  14.920  0.00  0.00     0.010 C 
ATOM     24  H36 G79 d   1       5.677  13.363  14.758  0.00  0.00     0.066 H 
ATOM     25  H37 G79 d   1       5.705  15.075  14.215  0.00  0.00     0.066 H 
ATOM     26  H38 G79 d   1       5.941  14.679  15.951  0.00  0.00     0.066 H 
ENDBRANCH  22  23
ENDBRANCH  16  22
ENDBRANCH   9  12
ENDBRANCH   8   9
BRANCH   8  27
ATOM     27  C12 G79 d   1      10.473  18.583  18.488  0.00  0.00     0.008 C 
ATOM     28  H5  G79 d   1      10.533  17.509  18.718  0.00  0.00     0.066 H 
ATOM     29  H6  G79 d   1       9.460  18.826  18.134  0.00  0.00     0.066 H 
BRANCH  27  30
ATOM     30  C13 G79 d   1      10.713  19.351  19.779  0.00  0.00    -0.045 C 
ATOM     31  H7  G79 d   1      11.709  19.061  20.146  0.00  0.00     0.041 H 
BRANCH  30  32
ATOM     32  C14 G79 d   1      10.710  20.865  19.604  0.00  0.00    -0.072 C 
ATOM     33  H8  G79 d   1      10.889  21.347  20.576  0.00  0.00     0.028 H 
ATOM     34  H9  G79 d   1       9.735  21.187  19.209  0.00  0.00     0.028 H 
ATOM     35  H10 G79 d   1      11.504  21.154  18.900  0.00  0.00     0.028 H 
ENDBRANCH  30  32
BRANCH  30  36
ATOM     36  C15 G79 d   1       9.687  18.981  20.852  0.00  0.00    -0.072 C 
ATOM     37  H11 G79 d   1       9.678  17.890  20.990  0.00  0.00     0.028 H 
ATOM     38  H12 G79 d   1       8.689  19.319  20.537  0.00  0.00     0.028 H 
ATOM     39  H13 G79 d   1       9.957  19.468  21.801  0.00  0.00     0.028 H 
ENDBRANCH  30  36
ENDBRANCH  27  30
ENDBRANCH   8  27
ENDBRANCH   5   8
ENDBRANCH   3   5
BRANCH   3  40
ATOM     40  O18 G79 d   1      14.963  18.307  18.314  0.00  0.00    -0.392 OA
ATOM     41  H17 G79 d   1      15.255  17.835  17.543  0.00  0.00     0.210 HD
ENDBRANCH   3  40
ENDBRANCH   1   3
BRANCH   1  42
ATOM     42  N20 G79 d   1      15.046  21.159  17.625  0.00  0.00    -0.329 N 
ATOM     43  C21 G79 d   1      14.700  22.439  17.701  0.00  0.00     0.361 C 
ATOM     44  O22 G79 d   1      13.629  22.977  17.424  0.00  0.00    -0.238 OA
ATOM     45  H19 G79 d   1      15.916  20.853  18.011  0.00  0.00     0.165 HD
BRANCH  43  46
ATOM     46  O23 G79 d   1      15.776  23.215  18.141  0.00  0.00    -0.298 OA
BRANCH  46  47
ATOM     47  C24 G79 d   1      15.528  24.610  18.157  0.00  0.00     0.056 C 
ATOM     48  C31 G79 d   1      16.716  25.342  17.542  0.00  0.00     0.005 C 
ATOM     49  C27 G79 d   1      17.879  25.388  18.498  0.00  0.00     0.048 C 
ATOM     50  C30 G79 d   1      17.308  24.549  16.369  0.00  0.00     0.004 C 
ATOM     51  H28 G79 d   1      16.408  26.352  17.232  0.00  0.00     0.048 H 
ATOM     52  C26 G79 d   1      17.600  25.742  19.920  0.00  0.00    -0.040 C 
ATOM     53  O28 G79 d   1      18.529  24.150  18.335  0.00  0.00    -0.355 OA
ATOM     54  H25 G79 d   1      18.559  26.172  18.135  0.00  0.00     0.084 H 
ATOM     55  C25 G79 d   1      16.450  24.910  20.444  0.00  0.00    -0.060 C 
ATOM     56  H23 G79 d   1      18.497  25.547  20.527  0.00  0.00     0.036 H 
ATOM     57  H24 G79 d   1      17.338  26.808  19.985  0.00  0.00     0.036 H 
ATOM     58  C44 G79 d   1      15.233  25.072  19.558  0.00  0.00    -0.040 C 
ATOM     59  H21 G79 d   1      16.201  25.238  21.464  0.00  0.00     0.033 H 
ATOM     60  H22 G79 d   1      16.747  23.851  20.461  0.00  0.00     0.033 H 
ATOM     61  H43 G79 d   1      14.406  24.474  19.968  0.00  0.00     0.036 H 
ATOM     62  H44 G79 d   1      14.943  26.133  19.535  0.00  0.00     0.036 H 
ATOM     63  C29 G79 d   1      18.312  23.626  17.038  0.00  0.00     0.135 C 
ATOM     64  O41 G79 d   1      19.517  23.654  16.254  0.00  0.00    -0.361 OA
ATOM     65  H26 G79 d   1      17.925  22.598  17.100  0.00  0.00     0.129 H 
ATOM     66  C42 G79 d   1      19.595  24.982  15.744  0.00  0.00     0.023 C 
ATOM     67  C43 G79 d   1      18.171  25.424  15.500  0.00  0.00    -0.037 C 
ATOM     68  H39 G79 d   1      20.165  24.996  14.803  0.00  0.00     0.074 H 
ATOM     69  H40 G79 d   1      20.079  25.644  16.477  0.00  0.00     0.074 H 
ATOM     70  H41 G79 d   1      18.046  26.481  15.779  0.00  0.00     0.036 H 
ATOM     71  H42 G79 d   1      17.906  25.290  14.441  0.00  0.00     0.036 H 
ATOM     72  H27 G79 d   1      16.535  24.022  15.791  0.00  0.00     0.048 H 
ATOM     73  H20 G79 d   1      14.642  24.815  17.539  0.00  0.00     0.085 H 
ENDBRANCH  46  47
ENDBRANCH  43  46
ENDBRANCH   1  42
BRANCH   1  74
ATOM     74  C32 G79 d   1      14.880  19.667  15.740  0.00  0.00    -0.020 C 
ATOM     75  H29 G79 d   1      14.228  18.950  15.221  0.00  0.00     0.043 H 
ATOM     76  H30 G79 d   1      15.805  19.161  16.053  0.00  0.00     0.043 H 
BRANCH  74  77
ATOM     77  C38 G79 d   1      15.232  20.807  14.783  0.00  0.00    -0.056 A 
ATOM     78  C33 G79 d   1      16.564  21.169  14.549  0.00  0.00    -0.077 A 
ATOM     79  C34 G79 d   1      16.854  22.229  13.691  0.00  0.00    -0.082 A 
ATOM     80  H31 G79 d   1      17.368  20.627  15.034  0.00  0.00     0.084 H 
ATOM     81  C35 G79 d   1      15.831  22.882  13.013  0.00  0.00    -0.083 A 
ATOM     82  H32 G79 d   1      17.881  22.545  13.552  0.00  0.00     0.083 H 
ATOM     83  C36 G79 d   1      14.527  22.517  13.268  0.00  0.00    -0.082 A 
ATOM     84  H33 G79 d   1      16.055  23.664  12.297  0.00  0.00     0.083 H 
ATOM     85  C37 G79 d   1      14.220  21.484  14.127  0.00  0.00    -0.077 A 
ATOM     86  H34 G79 d   1      13.723  23.056  12.781  0.00  0.00     0.083 H 
ATOM     87  H35 G79 d   1      13.186  21.202  14.288  0.00  0.00     0.084 H 
ENDBRANCH  74  77
ENDBRANCH   1  74
TORSDOF 17
