REMARK  9 active torsions:
REMARK  status: ('A' for Active; 'I' for Inactive)
REMARK    1  A    between atoms: N12_2  and  C13_3 
REMARK    2  A    between atoms: C11_19  and  N12_2 
REMARK    3  A    between atoms: C13_3  and  C14_20 
REMARK    4  A    between atoms: C26_8  and  C27_28 
REMARK    5  A    between atoms: C27_28  and  C28_9 
REMARK    6  A    between atoms: C28_9  and  O29_29 
REMARK    7  A    between atoms: C02_11  and  C01_10 
REMARK    8  A    between atoms: C03_12  and  C02_11 
REMARK    9  A    between atoms: C09_18  and  N21_25 
ROOT
ATOM      1  C10 1QK d   1      30.372 -23.018   3.420  0.00  0.00     0.005 A 
ATOM      2  C03 1QK d   1      28.794 -22.301  -0.499  0.00  0.00     0.006 A 
ATOM      3  C04 1QK d   1      28.735 -23.602  -0.989  0.00  0.00     0.004 A 
ATOM      4  N05 1QK d   1      29.207 -24.464  -0.004  0.00  0.00    -0.301 N 
ATOM      5  N06 1QK d   1      29.568 -23.674   1.113  0.00  0.00    -0.222 N 
ATOM      6  C07 1QK d   1      29.294 -22.365   0.817  0.00  0.00     0.160 A 
ATOM      7  N08 1QK d   1      29.567 -21.300   1.804  0.00  0.00    -0.211 NA
ATOM      8  C09 1QK d   1      30.090 -21.631   3.082  0.00  0.00     0.132 A 
ATOM      9  C11 1QK d   1      30.111 -24.041   2.442  0.00  0.00     0.129 A 
ATOM     10  H1  1QK d   1      30.773 -23.277   4.394  0.00  0.00     0.095 H 
ATOM     11  H19 1QK d   1      28.380 -23.896  -1.976  0.00  0.00     0.114 H 
ATOM     12  H20 1QK d   1      29.280 -25.489  -0.075  0.00  0.00     0.186 HD
ENDROOT
BRANCH   8  13
ATOM     13  N21 1QK d   1      30.324 -20.536   3.994  0.00  0.00    -0.361 N 
ATOM     14  C22 1QK d   1      30.741 -20.822   5.375  0.00  0.00    -0.003 C 
ATOM     15  C23 1QK d   1      30.302 -19.830   6.439  0.00  0.00    -0.050 C 
ATOM     16  H7  1QK d   1      31.840 -20.862   5.390  0.00  0.00     0.064 H 
ATOM     17  H8  1QK d   1      30.334 -21.807   5.649  0.00  0.00     0.064 H 
ATOM     18  C24 1QK d   1      30.022 -18.451   5.992  0.00  0.00    -0.062 C 
ATOM     19  H23 1QK d   1      31.099 -19.779   7.195  0.00  0.00     0.035 H 
ATOM     20  H24 1QK d   1      29.384 -20.223   6.901  0.00  0.00     0.035 H 
ATOM     21  C25 1QK d   1      29.410 -18.391   4.664  0.00  0.00    -0.046 C 
ATOM     22  H9  1QK d   1      30.969 -17.892   5.966  0.00  0.00     0.033 H 
ATOM     23  H10 1QK d   1      29.338 -17.981   6.714  0.00  0.00     0.033 H 
ATOM     24  C26 1QK d   1      30.283 -19.100   3.682  0.00  0.00     0.015 C 
ATOM     25  H25 1QK d   1      29.295 -17.340   4.360  0.00  0.00     0.036 H 
ATOM     26  H26 1QK d   1      28.422 -18.875   4.693  0.00  0.00     0.036 H 
ATOM     27  H11 1QK d   1      29.673 -19.019   2.770  0.00  0.00     0.072 H 
BRANCH  24  28
ATOM     28  C27 1QK d   1      31.648 -18.727   3.158  0.00  0.00    -0.026 C 
ATOM     29  H27 1QK d   1      32.387 -19.207   3.816  0.00  0.00     0.039 H 
ATOM     30  H28 1QK d   1      31.737 -17.634   3.243  0.00  0.00     0.039 H 
BRANCH  28  31
ATOM     31  C28 1QK d   1      32.018 -19.090   1.743  0.00  0.00     0.019 C 
ATOM     32  H12 1QK d   1      32.459 -20.098   1.752  0.00  0.00     0.074 H 
ATOM     33  H13 1QK d   1      32.766 -18.366   1.388  0.00  0.00     0.074 H 
BRANCH  31  34
ATOM     34  O29 1QK d   1      30.939 -19.090   0.832  0.00  0.00    -0.401 OA
ATOM     35  H29 1QK d   1      30.287 -19.719   1.116  0.00  0.00     0.209 HD
ENDBRANCH  31  34
ENDBRANCH  28  31
ENDBRANCH  24  28
ENDBRANCH   8  13
BRANCH   9  36
ATOM     36  N12 1QK d   1      30.387 -25.445   2.702  0.00  0.00    -0.370 N 
ATOM     37  H2  1QK d   1      30.247 -26.146   1.960  0.00  0.00     0.161 HD
BRANCH  36  38
ATOM     38  C13 1QK d   1      30.855 -25.849   3.996  0.00  0.00     0.019 C 
ATOM     39  H3  1QK d   1      31.382 -25.002   4.460  0.00  0.00     0.071 H 
ATOM     40  H4  1QK d   1      31.552 -26.691   3.871  0.00  0.00     0.071 H 
BRANCH  38  41
ATOM     41  C14 1QK d   1      29.727 -26.284   4.919  0.00  0.00    -0.022 A 
ATOM     42  C15 1QK d   1      28.342 -26.070   4.454  0.00  0.00    -0.072 A 
ATOM     43  C16 1QK d   1      27.237 -26.487   5.322  0.00  0.00    -0.065 A 
ATOM     44  H5  1QK d   1      28.146 -25.614   3.490  0.00  0.00     0.084 H 
ATOM     45  C17 1QK d   1      27.532 -27.131   6.607  0.00  0.00     0.010 A 
ATOM     46  H21 1QK d   1      26.210 -26.321   5.017  0.00  0.00     0.085 H 
ATOM     47  N18 1QK d   1      28.924 -27.333   7.062  0.00  0.00    -0.211 N 
ATOM     48  H6  1QK d   1      26.714 -27.465   7.235  0.00  0.00     0.115 H 
ATOM     49  C19 1QK d   1      30.019 -26.910   6.204  0.00  0.00     0.018 A 
ATOM     50  O20 1QK d   1      29.184 -27.873   8.160  0.00  0.00    -0.082 OA
ATOM     51  H22 1QK d   1      31.046 -27.059   6.517  0.00  0.00     0.116 H 
ENDBRANCH  38  41
ENDBRANCH  36  38
ENDBRANCH   9  36
BRANCH   2  52
ATOM     52  C02 1QK d   1      28.342 -21.019  -1.234  0.00  0.00    -0.039 C 
ATOM     53  H17 1QK d   1      29.013 -20.197  -0.944  0.00  0.00     0.039 H 
ATOM     54  H18 1QK d   1      28.422 -21.193  -2.317  0.00  0.00     0.039 H 
BRANCH  52  55
ATOM     55  C01 1QK d   1      26.913 -20.606  -0.918  0.00  0.00    -0.072 C 
ATOM     56  H14 1QK d   1      26.664 -19.691  -1.475  0.00  0.00     0.028 H 
ATOM     57  H15 1QK d   1      26.816 -20.416   0.161  0.00  0.00     0.028 H 
ATOM     58  H16 1QK d   1      26.225 -21.412  -1.212  0.00  0.00     0.028 H 
ENDBRANCH  52  55
ENDBRANCH   2  52
TORSDOF 9
