REMARK  2 active torsions:
REMARK  status: ('A' for Active; 'I' for Inactive)
REMARK    1  A    between atoms: CAA_1  and  CAI_2 
REMARK    2  A    between atoms: CAJ_11  and  OAC_12 
ROOT
ATOM      1  CAI 5PN d   1       0.689   6.192 -12.200  0.00  0.00     0.064 A 
ATOM      2  NAF 5PN d   1      -0.524   6.684 -11.934  0.00  0.00    -0.262 NA
ATOM      3  CAD 5PN d   1      -1.505   5.852 -11.382  0.00  0.00     0.019 A 
ATOM      4  CAK 5PN d   1      -1.219   4.575 -11.122  0.00  0.00     0.068 A 
ATOM      5  CAH 5PN d   1      -1.945   3.597 -10.603  0.00  0.00     0.295 A 
ATOM      6  OAB 5PN d   1      -3.094   3.790 -10.217  0.00  0.00    -0.259 OA
ATOM      7  OAG 5PN d   1      -1.283   2.417 -10.497  0.00  0.00    -0.313 OA
ATOM      8  CAE 5PN d   1       0.019   2.714 -11.020  0.00  0.00     0.057 A 
ATOM      9  CAL 5PN d   1      -0.010   4.067 -11.384  0.00  0.00     0.019 A 
ATOM     10  CAJ 5PN d   1       0.922   4.858 -11.907  0.00  0.00     0.099 A 
ATOM     11  H   5PN d   1      -2.493   6.243 -11.167  0.00  0.00     0.116 H 
ATOM     12  H   5PN d   1       0.230   2.087 -11.898  0.00  0.00     0.083 H 
ATOM     13  H   5PN d   1       0.788   2.541 -10.252  0.00  0.00     0.083 H 
ENDROOT
BRANCH   1  14
ATOM     14  CAA 5PN d   1       1.685   6.991 -12.755  0.00  0.00    -0.033 C 
ATOM     15  H   5PN d   1       2.599   6.395 -12.892  0.00  0.00     0.035 H 
ATOM     16  H   5PN d   1       1.895   7.835 -12.082  0.00  0.00     0.035 H 
ATOM     17  H   5PN d   1       1.347   7.374 -13.729  0.00  0.00     0.035 H 
ENDBRANCH   1  14
BRANCH  10  18
ATOM     18  OAC 5PN d   1       2.148   4.338 -12.171  0.00  0.00    -0.358 OA
ATOM     19  H   5PN d   1       2.061   3.625 -12.793  0.00  0.00     0.217 HD
ENDBRANCH  10  18
TORSDOF 2
