REMARK  5 active torsions:
REMARK  status: ('A' for Active; 'I' for Inactive)
REMARK    1  A    between atoms: C2_2  and  N14_14 
REMARK    2  A    between atoms: C3_3  and  N13_13 
REMARK    3  A    between atoms: C4_4  and  C7_7 
REMARK    4  A    between atoms: C5_5  and  C15_15 
REMARK    5  A    between atoms: C15_15  and  C16_16 
ROOT
ATOM      1  N1  CP6 d   1       2.424  -1.797   0.335  0.00  0.00    -0.045 NA
ATOM      2  C2  CP6 d   1       3.038  -2.215  -0.802  0.00  0.00     0.722 C 
ATOM      3  C3  CP6 d   1       1.843  -2.772   1.095  0.00  0.00     0.153 C 
ATOM      4  C4  CP6 d   1       1.867  -4.160   0.788  0.00  0.00     0.045 C 
ATOM      5  C5  CP6 d   1       2.479  -4.496  -0.390  0.00  0.00     0.068 C 
ATOM      6  N6  CP6 d   1       2.979  -3.527  -1.207  0.00  0.00    -0.067 NA
ENDROOT
BRANCH   4   7
ATOM      7  C7  CP6 d   1       1.309  -5.138   1.720  0.00  0.00    -0.020 A 
ATOM      8  C8  CP6 d   1      -0.050  -5.138   2.105  0.00  0.00    -0.070 A 
ATOM      9  C9  CP6 d   1      -0.534  -6.067   3.067  0.00  0.00    -0.061 A 
ATOM     10  H1  CP6 d   1      -0.732  -4.421   1.662  0.00  0.00     0.084 H 
ATOM     11  C10 CP6 d   1       0.426  -6.964   3.634  0.00  0.00     0.034 A 
ATOM     12  H2  CP6 d   1      -1.578  -6.094   3.356  0.00  0.00     0.086 H 
ATOM     13  C11 CP6 d   1       1.811  -6.968   3.334  0.00  0.00    -0.061 A 
ATOM     14 CL1  CP6 d   1      -0.181  -8.116   4.794  0.00  0.00    -0.084 Cl
ATOM     15  C12 CP6 d   1       2.188  -6.062   2.330  0.00  0.00    -0.070 A 
ATOM     16  H3  CP6 d   1       2.519  -7.616   3.837  0.00  0.00     0.086 H 
ATOM     17  H4  CP6 d   1       3.221  -6.072   2.001  0.00  0.00     0.084 H 
ENDBRANCH   4   7
BRANCH   3  18
ATOM     18  N13 CP6 d   1       1.221  -2.337   2.235  0.00  0.00    -0.383 N 
ATOM     19  H5  CP6 d   1       0.760  -3.013   2.860  0.00  0.00     0.157 HD
ATOM     20  H6  CP6 d   1       1.214  -1.334   2.467  0.00  0.00     0.157 HD
ENDBRANCH   3  18
BRANCH   5  21
ATOM     21  C15 CP6 d   1       2.571  -5.908  -0.978  0.00  0.00    -0.026 C 
ATOM     22  H9  CP6 d   1       2.174  -5.904  -2.004  0.00  0.00     0.041 H 
ATOM     23  H10 CP6 d   1       1.982  -6.601  -0.359  0.00  0.00     0.041 H 
BRANCH  21  24
ATOM     24  C16 CP6 d   1       4.050  -6.366  -1.000  0.00  0.00    -0.071 C 
ATOM     25  H11 CP6 d   1       4.114  -7.380  -1.422  0.00  0.00     0.028 H 
ATOM     26  H12 CP6 d   1       4.448  -6.370   0.025  0.00  0.00     0.028 H 
ATOM     27  H13 CP6 d   1       4.639  -5.673  -1.619  0.00  0.00     0.028 H 
ENDBRANCH  21  24
ENDBRANCH   5  21
BRANCH   2  28
ATOM     28  N14 CP6 d   1       3.638  -1.380  -1.572  0.00  0.00    -0.231 N 
ATOM     29  H7  CP6 d   1       3.704  -0.388  -1.304  0.00  0.00     0.174 HD
ATOM     30  H8  CP6 d   1       4.053  -1.703  -2.458  0.00  0.00     0.174 HD
ENDBRANCH   2  28
TORSDOF 5
