REMARK  9 active torsions:
REMARK  status: ('A' for Active; 'I' for Inactive)
REMARK    1  A    between atoms: C3_3  and  N4_4 
REMARK    2  A    between atoms: C8_8  and  C9_9 
REMARK    3  A    between atoms: C9_9  and  C10_10 
REMARK    4  A    between atoms: C12_12  and  O13_13 
REMARK    5  A    between atoms: O13_13  and  C14_14 
REMARK    6  A    between atoms: C15_15  and  O16_16 
REMARK    7  A    between atoms: O16_16  and  C17_17 
REMARK    8  A    between atoms: C18_18  and  O19_19 
REMARK    9  A    between atoms: O19_19  and  C20_20 
ROOT
ATOM      1  C10 TOP d   1      12.844   1.909  18.467  0.00  0.00    -0.048 A 
ATOM      2  C11 TOP d   1      12.488   1.230  17.297  0.00  0.00    -0.042 A 
ATOM      3  C12 TOP d   1      11.602   1.880  16.420  0.00  0.00     0.104 A 
ATOM      4  C15 TOP d   1      11.132   3.172  16.653  0.00  0.00     0.135 A 
ATOM      5  C18 TOP d   1      11.465   3.812  17.834  0.00  0.00     0.104 A 
ATOM      6  C21 TOP d   1      12.366   3.227  18.744  0.00  0.00    -0.042 A 
ATOM      7  H8  TOP d   1      12.879   0.243  17.076  0.00  0.00     0.088 H 
ATOM      8  H18 TOP d   1      12.688   3.761  19.630  0.00  0.00     0.088 H 
ENDROOT
BRANCH   1   9
ATOM      9  C9  TOP d   1      13.712   1.108  19.433  0.00  0.00    -0.012 C 
ATOM     10  H6  TOP d   1      13.089   0.767  20.273  0.00  0.00     0.047 H 
ATOM     11  H7  TOP d   1      14.123   0.235  18.904  0.00  0.00     0.047 H 
BRANCH   9  12
ATOM     12  C8  TOP d   1      14.877   1.952  19.984  0.00  0.00     0.010 A 
ATOM     13  C1  TOP d   1      14.658   2.698  21.101  0.00  0.00     0.031 A 
ATOM     14  N2  TOP d   1      15.681   3.455  21.649  0.00  0.00    -0.075 NA
ATOM     15  H1  TOP d   1      13.678   2.700  21.564  0.00  0.00     0.116 H 
ATOM     16  C3  TOP d   1      16.907   3.465  21.023  0.00  0.00     0.721 A 
ATOM     17  N5  TOP d   1      17.189   2.723  19.935  0.00  0.00    -0.045 NA
ATOM     18  C6  TOP d   1      16.215   1.947  19.426  0.00  0.00     0.148 A 
ATOM     19  N7  TOP d   1      16.531   1.274  18.330  0.00  0.00    -0.383 N 
ATOM     20  H4  TOP d   1      15.835   0.659  17.884  0.00  0.00     0.157 HD
ATOM     21  H5  TOP d   1      17.473   1.365  17.923  0.00  0.00     0.157 HD
BRANCH  16  22
ATOM     22  N4  TOP d   1      17.878   4.260  21.588  0.00  0.00    -0.231 N 
ATOM     23  H2  TOP d   1      17.660   4.827  22.420  0.00  0.00     0.174 HD
ATOM     24  H3  TOP d   1      18.823   4.288  21.179  0.00  0.00     0.174 HD
ENDBRANCH  16  22
ENDBRANCH   9  12
ENDBRANCH   1   9
BRANCH   3  25
ATOM     25  O13 TOP d   1      11.163   1.396  15.211  0.00  0.00    -0.353 OA
BRANCH  25  26
ATOM     26  C14 TOP d   1      11.421   0.023  14.983  0.00  0.00     0.010 C 
ATOM     27  H9  TOP d   1      11.033  -0.264  13.994  0.00  0.00     0.066 H 
ATOM     28  H10 TOP d   1      10.925  -0.577  15.760  0.00  0.00     0.066 H 
ATOM     29  H11 TOP d   1      12.506  -0.157  15.018  0.00  0.00     0.066 H 
ENDBRANCH  25  26
ENDBRANCH   3  25
BRANCH   5  30
ATOM     30  O19 TOP d   1      10.927   5.046  18.071  0.00  0.00    -0.353 OA
BRANCH  30  31
ATOM     31  C20 TOP d   1      11.299   5.726  19.239  0.00  0.00     0.010 C 
ATOM     32  H15 TOP d   1      10.782   6.696  19.279  0.00  0.00     0.066 H 
ATOM     33  H16 TOP d   1      12.387   5.890  19.237  0.00  0.00     0.066 H 
ATOM     34  H17 TOP d   1      11.020   5.125  20.117  0.00  0.00     0.066 H 
ENDBRANCH  30  31
ENDBRANCH   5  30
BRANCH   4  35
ATOM     35  O16 TOP d   1      10.254   3.879  15.822  0.00  0.00    -0.351 OA
BRANCH  35  36
ATOM     36  C17 TOP d   1       8.906   3.391  15.854  0.00  0.00     0.011 C 
ATOM     37  H12 TOP d   1       8.281   3.995  15.179  0.00  0.00     0.067 H 
ATOM     38  H13 TOP d   1       8.514   3.463  16.879  0.00  0.00     0.067 H 
ATOM     39  H14 TOP d   1       8.889   2.341  15.528  0.00  0.00     0.067 H 
ENDBRANCH  35  36
ENDBRANCH   4  35
TORSDOF 9
