REMARK  9 active torsions:
REMARK  status: ('A' for Active; 'I' for Inactive)
REMARK    1  A    between atoms: C9_13  and  C6_9 
REMARK    2  A    between atoms: N10_14  and  C9_13 
REMARK    3  A    between atoms: C14_18  and  N10_14 
REMARK    4  A    between atoms: C11_15  and  C_21 
REMARK    5  A    between atoms: N_23  and  CA_24 
REMARK    6  A    between atoms: CA_24  and  CB_25 
REMARK    7  A    between atoms: CA_24  and  CT_30 
REMARK    8  A    between atoms: CB_25  and  CG_26 
REMARK    9  A    between atoms: CG_26  and  CD_27 
ROOT
ATOM      1  C11 FOL d   1      29.871  47.207  45.154  0.00  0.00     0.018 A 
ATOM      2  C12 FOL d   1      30.544  46.072  45.603  0.00  0.00    -0.067 A 
ATOM      3  C13 FOL d   1      31.710  46.201  46.358  0.00  0.00    -0.057 A 
ATOM      4  C14 FOL d   1      32.221  47.464  46.662  0.00  0.00     0.028 A 
ATOM      5  C15 FOL d   1      31.546  48.598  46.214  0.00  0.00    -0.057 A 
ATOM      6  C16 FOL d   1      30.372  48.471  45.462  0.00  0.00    -0.067 A 
ATOM      7  H9  FOL d   1      30.160  45.087  45.365  0.00  0.00     0.085 H 
ATOM      8  H10 FOL d   1      32.223  45.314  46.711  0.00  0.00     0.086 H 
ATOM      9  H11 FOL d   1      31.932  49.583  46.449  0.00  0.00     0.086 H 
ATOM     10  H12 FOL d   1      29.851  49.358  45.118  0.00  0.00     0.085 H 
ENDROOT
BRANCH   4  11
ATOM     11  N10 FOL d   1      33.334  47.619  47.386  0.00  0.00    -0.384 N 
ATOM     12  H8  FOL d   1      33.765  48.554  47.402  0.00  0.00     0.160 HD
BRANCH  11  13
ATOM     13  C9  FOL d   1      33.985  46.562  48.156  0.00  0.00     0.034 C 
ATOM     14  H6  FOL d   1      33.234  45.900  48.612  0.00  0.00     0.073 H 
ATOM     15  H7  FOL d   1      34.652  45.971  47.511  0.00  0.00     0.073 H 
BRANCH  13  16
ATOM     16  C6  FOL d   1      34.780  47.279  49.227  0.00  0.00     0.070 A 
ATOM     17  N5  FOL d   1      34.240  47.458  50.489  0.00  0.00    -0.241 NA
ATOM     18  C4A FOL d   1      34.975  48.130  51.447  0.00  0.00     0.172 A 
ATOM     19  C4  FOL d   1      34.441  48.308  52.718  0.00  0.00     0.292 A 
ATOM     20  C8A FOL d   1      36.245  48.629  51.146  0.00  0.00     0.177 A 
ATOM     21  N3  FOL d   1      35.177  48.985  53.673  0.00  0.00    -0.154 N 
ATOM     22  O4  FOL d   1      33.325  47.852  52.983  0.00  0.00    -0.265 OA
ATOM     23  C2  FOL d   1      36.432  49.483  53.373  0.00  0.00     0.680 A 
ATOM     24  H4  FOL d   1      34.798  49.116  54.589  0.00  0.00     0.187 HD
ATOM     25  N1  FOL d   1      36.966  49.304  52.112  0.00  0.00    -0.172 N 
ATOM     26  NA2 FOL d   1      37.134  50.132  54.305  0.00  0.00    -0.234 N 
ATOM     27  H1  FOL d   1      37.902  49.674  51.892  0.00  0.00     0.186 HD
ATOM     28  H2  FOL d   1      36.739  50.267  55.246  0.00  0.00     0.174 HD
ATOM     29  H3  FOL d   1      38.071  50.498  54.083  0.00  0.00     0.174 HD
ATOM     30  N8  FOL d   1      36.783  48.457  49.884  0.00  0.00    -0.238 NA
ATOM     31  C7  FOL d   1      36.050  47.781  48.928  0.00  0.00     0.030 A 
ATOM     32  H5  FOL d   1      36.464  47.638  47.936  0.00  0.00     0.118 H 
ENDBRANCH  13  16
ENDBRANCH  11  13
ENDBRANCH   4  11
BRANCH   1  33
ATOM     33  C   FOL d   1      28.600  47.070  44.350  0.00  0.00     0.185 C 
ATOM     34  O   FOL d   1      28.474  46.034  43.392  0.00  0.00    -0.172 OA
ATOM     35  N   FOL d   1      27.625  47.958  44.575  0.00  0.00    -0.353 N 
ATOM     36  H13 FOL d   1      27.833  48.741  45.161  0.00  0.00     0.162 HD
BRANCH  35  37
ATOM     37  CA  FOL d   1      26.291  47.861  44.027  0.00  0.00     0.096 C 
ATOM     38  H14 FOL d   1      26.326  47.239  43.120  0.00  0.00     0.089 H 
BRANCH  37  39
ATOM     39  CB  FOL d   1      25.315  47.221  45.023  0.00  0.00    -0.028 C 
ATOM     40  H15 FOL d   1      24.353  47.057  44.515  0.00  0.00     0.037 H 
ATOM     41  H16 FOL d   1      25.171  47.913  45.866  0.00  0.00     0.037 H 
BRANCH  39  42
ATOM     42  CG  FOL d   1      25.809  45.883  45.571  0.00  0.00     0.018 C 
ATOM     43  H17 FOL d   1      26.707  46.061  46.181  0.00  0.00     0.049 H 
ATOM     44  H18 FOL d   1      26.064  45.227  44.726  0.00  0.00     0.049 H 
BRANCH  42  45
ATOM     45  CD  FOL d   1      24.767  45.191  46.428  0.00  0.00     0.172 C 
ATOM     46  OE1 FOL d   1      23.876  44.475  45.893  0.00  0.00    -0.648 OA
ATOM     47  OE2 FOL d   1      24.790  45.302  47.683  0.00  0.00    -0.648 OA
ENDBRANCH  42  45
ENDBRANCH  39  42
ENDBRANCH  37  39
BRANCH  37  48
ATOM     48  CT  FOL d   1      25.809  49.242  43.661  0.00  0.00     0.196 C 
ATOM     49  O1  FOL d   1      26.509  49.991  42.925  0.00  0.00    -0.646 OA
ATOM     50  O2  FOL d   1      24.701  49.660  44.085  0.00  0.00    -0.646 OA
ENDBRANCH  37  48
ENDBRANCH  35  37
ENDBRANCH   1  33
TORSDOF 9
