REMARK  10 active torsions:
REMARK  status: ('A' for Active; 'I' for Inactive)
REMARK    1  A    between atoms: C9_13  and  C6_9 
REMARK    2  A    between atoms: N10_14  and  C9_13 
REMARK    3  A    between atoms: N10_14  and  CM_15 
REMARK    4  A    between atoms: C14_19  and  N10_14 
REMARK    5  A    between atoms: C11_16  and  C_22 
REMARK    6  A    between atoms: N_24  and  CA_25 
REMARK    7  A    between atoms: CA_25  and  CT_26 
REMARK    8  A    between atoms: CA_25  and  CB_29 
REMARK    9  A    between atoms: CB_29  and  CG_30 
REMARK   10  A    between atoms: CG_30  and  CD_31 
ROOT
ATOM      1  C11 MTX d   1      18.012 -37.145   3.930  0.00  0.00     0.018 A 
ATOM      2  C12 MTX d   1      17.195 -38.277   3.746  0.00  0.00    -0.067 A 
ATOM      3  C13 MTX d   1      15.836 -38.116   3.443  0.00  0.00    -0.056 A 
ATOM      4  C14 MTX d   1      15.308 -36.835   3.335  0.00  0.00     0.030 A 
ATOM      5  C15 MTX d   1      16.125 -35.722   3.524  0.00  0.00    -0.056 A 
ATOM      6  C16 MTX d   1      17.475 -35.860   3.823  0.00  0.00    -0.067 A 
ATOM      7  H11 MTX d   1      17.616 -39.271   3.838  0.00  0.00     0.085 H 
ATOM      8  H12 MTX d   1      15.203 -38.983   3.294  0.00  0.00     0.086 H 
ATOM      9  H13 MTX d   1      15.699 -34.729   3.436  0.00  0.00     0.086 H 
ATOM     10  H14 MTX d   1      18.100 -34.987   3.970  0.00  0.00     0.085 H 
ENDROOT
BRANCH   4  11
ATOM     11  N10 MTX d   1      13.948 -36.646   3.024  0.00  0.00    -0.379 N 
BRANCH  11  12
ATOM     12  C9  MTX d   1      13.292 -37.598   2.129  0.00  0.00     0.036 C 
ATOM     13  H6  MTX d   1      13.720 -38.600   2.279  0.00  0.00     0.073 H 
ATOM     14  H7  MTX d   1      12.213 -37.624   2.344  0.00  0.00     0.073 H 
BRANCH  12  15
ATOM     15  C6  MTX d   1      13.514 -37.160   0.698  0.00  0.00     0.070 A 
ATOM     16  N5  MTX d   1      12.490 -36.545  -0.035  0.00  0.00    -0.242 NA
ATOM     17  C4A MTX d   1      12.739 -36.145  -1.342  0.00  0.00     0.151 A 
ATOM     18  C4  MTX d   1      11.739 -35.541  -2.096  0.00  0.00     0.173 A 
ATOM     19  C8A MTX d   1      13.998 -36.350  -1.905  0.00  0.00     0.201 A 
ATOM     20  N3  MTX d   1      11.987 -35.153  -3.397  0.00  0.00    -0.043 NA
ATOM     21  NA4 MTX d   1      10.532 -35.364  -1.567  0.00  0.00    -0.381 N 
ATOM     22  C2  MTX d   1      13.235 -35.370  -3.946  0.00  0.00     0.724 A 
ATOM     23  N1  MTX d   1      14.228 -35.979  -3.210  0.00  0.00    -0.041 NA
ATOM     24  NA2 MTX d   1      13.487 -35.006  -5.194  0.00  0.00    -0.231 N 
ATOM     25  H1  MTX d   1      14.419 -35.170  -5.600  0.00  0.00     0.174 HD
ATOM     26  H2  MTX d   1      12.751 -34.559  -5.759  0.00  0.00     0.174 HD
ATOM     27  H3  MTX d   1      10.348 -35.654  -0.596  0.00  0.00     0.157 HD
ATOM     28  H4  MTX d   1       9.781 -34.937  -2.128  0.00  0.00     0.157 HD
ATOM     29  N8  MTX d   1      15.020 -36.950  -1.166  0.00  0.00    -0.237 NA
ATOM     30  C7  MTX d   1      14.777 -37.344   0.134  0.00  0.00     0.030 A 
ATOM     31  H5  MTX d   1      15.569 -37.798   0.719  0.00  0.00     0.118 H 
ENDBRANCH  12  15
ENDBRANCH  11  12
BRANCH  11  32
ATOM     32  CM  MTX d   1      13.331 -35.316   3.207  0.00  0.00    -0.018 C 
ATOM     33  H8  MTX d   1      13.940 -34.722   3.904  0.00  0.00     0.056 H 
ATOM     34  H9  MTX d   1      12.317 -35.435   3.616  0.00  0.00     0.056 H 
ATOM     35  H10 MTX d   1      13.277 -34.800   2.237  0.00  0.00     0.056 H 
ENDBRANCH  11  32
ENDBRANCH   4  11
BRANCH   1  36
ATOM     36  C   MTX d   1      19.472 -37.291   4.286  0.00  0.00     0.185 C 
ATOM     37  O   MTX d   1      19.868 -38.475   4.911  0.00  0.00    -0.172 OA
ATOM     38  N   MTX d   1      20.336 -36.308   4.036  0.00  0.00    -0.353 N 
ATOM     39  H15 MTX d   1      20.020 -35.513   3.518  0.00  0.00     0.162 HD
BRANCH  38  40
ATOM     40  CA  MTX d   1      21.716 -36.342   4.484  0.00  0.00     0.096 C 
ATOM     41  H16 MTX d   1      21.816 -37.039   5.329  0.00  0.00     0.089 H 
BRANCH  40  42
ATOM     42  CT  MTX d   1      22.188 -34.968   4.892  0.00  0.00     0.196 C 
ATOM     43  O1  MTX d   1      23.355 -34.569   4.625  0.00  0.00    -0.646 OA
ATOM     44  O2  MTX d   1      21.421 -34.194   5.494  0.00  0.00    -0.646 OA
ENDBRANCH  40  42
BRANCH  40  45
ATOM     45  CB  MTX d   1      22.582 -36.794   3.313  0.00  0.00    -0.028 C 
ATOM     46  H17 MTX d   1      23.579 -36.339   3.405  0.00  0.00     0.037 H 
ATOM     47  H18 MTX d   1      22.116 -36.467   2.372  0.00  0.00     0.037 H 
BRANCH  45  48
ATOM     48  CG  MTX d   1      22.722 -38.297   3.301  0.00  0.00     0.018 C 
ATOM     49  H19 MTX d   1      21.747 -38.760   3.091  0.00  0.00     0.049 H 
ATOM     50  H20 MTX d   1      23.090 -38.644   4.277  0.00  0.00     0.049 H 
BRANCH  48  51
ATOM     51  CD  MTX d   1      23.706 -38.670   2.223  0.00  0.00     0.172 C 
ATOM     52  OE1 MTX d   1      24.933 -38.490   2.406  0.00  0.00    -0.648 OA
ATOM     53  OE2 MTX d   1      23.302 -39.154   1.148  0.00  0.00    -0.648 OA
ENDBRANCH  48  51
ENDBRANCH  45  48
ENDBRANCH  40  45
ENDBRANCH  38  40
ENDBRANCH   1  36
TORSDOF 10
