REMARK  9 active torsions:
REMARK  status: ('A' for Active; 'I' for Inactive)
REMARK    1  A    between atoms: C11_21  and  C_1 
REMARK    2  A    between atoms: N_2  and  CA_15 
REMARK    3  A    between atoms: C9_14  and  C6_11 
REMARK    4  A    between atoms: N10_20  and  C9_14 
REMARK    5  A    between atoms: CA_15  and  CB_16 
REMARK    6  A    between atoms: CA_15  and  CT_19 
REMARK    7  A    between atoms: CB_16  and  CG_18 
REMARK    8  A    between atoms: CG_18  and  CD_17 
REMARK    9  A    between atoms: C14_24  and  N10_20 
ROOT
ATOM      1  C11 04J d   1      18.394 -36.866   4.045  0.00  0.00     0.018 A 
ATOM      2  C12 04J d   1      17.815 -38.127   3.967  0.00  0.00    -0.067 A 
ATOM      3  C13 04J d   1      16.466 -38.260   3.663  0.00  0.00    -0.057 A 
ATOM      4  C14 04J d   1      15.684 -37.135   3.427  0.00  0.00     0.028 A 
ATOM      5  C15 04J d   1      16.258 -35.867   3.510  0.00  0.00    -0.057 A 
ATOM      6  C16 04J d   1      17.614 -35.730   3.817  0.00  0.00    -0.067 A 
ATOM      7  H11 04J d   1      18.418 -39.010   4.144  0.00  0.00     0.085 H 
ATOM      8  H12 04J d   1      16.020 -39.247   3.610  0.00  0.00     0.086 H 
ATOM      9  H13 04J d   1      15.651 -34.986   3.336  0.00  0.00     0.086 H 
ATOM     10  H14 04J d   1      18.060 -34.744   3.878  0.00  0.00     0.085 H 
ENDROOT
BRANCH   4  11
ATOM     11  N10 04J d   1      14.309 -37.332   3.121  0.00  0.00    -0.384 N 
ATOM     12  H10 04J d   1      13.907 -38.265   3.289  0.00  0.00     0.160 HD
BRANCH  11  13
ATOM     13  C9  04J d   1      13.436 -36.302   2.587  0.00  0.00     0.034 C 
ATOM     14  H3  04J d   1      12.392 -36.574   2.800  0.00  0.00     0.073 H 
ATOM     15  H4  04J d   1      13.673 -35.345   3.075  0.00  0.00     0.073 H 
BRANCH  13  16
ATOM     16  C6  04J d   1      13.607 -36.146   1.092  0.00  0.00     0.070 A 
ATOM     17  N5  04J d   1      12.543 -35.718   0.320  0.00  0.00    -0.242 NA
ATOM     18  C4A 04J d   1      12.698 -35.575  -1.045  0.00  0.00     0.151 A 
ATOM     19  C4  04J d   1      11.630 -35.149  -1.821  0.00  0.00     0.173 A 
ATOM     20  C8A 04J d   1      13.918 -35.855  -1.649  0.00  0.00     0.201 A 
ATOM     21  N3  04J d   1      11.799 -34.999  -3.184  0.00  0.00    -0.043 NA
ATOM     22  NA4 04J d   1      10.456 -34.880  -1.252  0.00  0.00    -0.381 N 
ATOM     23  C2  04J d   1      13.013 -35.278  -3.776  0.00  0.00     0.724 A 
ATOM     24  N1  04J d   1      14.076 -35.708  -3.012  0.00  0.00    -0.041 NA
ATOM     25  NA2 04J d   1      13.153 -35.135  -5.089  0.00  0.00    -0.231 N 
ATOM     26  H15 04J d   1      14.057 -35.342  -5.536  0.00  0.00     0.174 HD
ATOM     27  H16 04J d   1      12.357 -34.817  -5.660  0.00  0.00     0.174 HD
ATOM     28  H17 04J d   1      10.338 -34.994  -0.235  0.00  0.00     0.157 HD
ATOM     29  H18 04J d   1       9.666 -34.558  -1.829  0.00  0.00     0.157 HD
ATOM     30  N8  04J d   1      14.978 -36.280  -0.879  0.00  0.00    -0.237 NA
ATOM     31  C7  04J d   1      14.825 -36.430   0.486  0.00  0.00     0.030 A 
ATOM     32  H2  04J d   1      15.660 -36.771   1.088  0.00  0.00     0.118 H 
ENDBRANCH  13  16
ENDBRANCH  11  13
ENDBRANCH   4  11
BRANCH   1  33
ATOM     33  C   04J d   1      19.856 -36.778   4.379  0.00  0.00     0.185 C 
ATOM     34  N   04J d   1      20.571 -35.725   4.008  0.00  0.00    -0.353 N 
ATOM     35  H1  04J d   1      20.134 -34.958   3.539  0.00  0.00     0.162 HD
ATOM     36  O   04J d   1      20.461 -37.839   5.078  0.00  0.00    -0.172 OA
BRANCH  34  37
ATOM     37  CA  04J d   1      21.994 -35.697   4.289  0.00  0.00     0.096 C 
ATOM     38  H5  04J d   1      22.218 -36.521   4.983  0.00  0.00     0.089 H 
BRANCH  37  39
ATOM     39  CB  04J d   1      22.784 -35.930   3.001  0.00  0.00    -0.028 C 
ATOM     40  H6  04J d   1      23.274 -34.991   2.706  0.00  0.00     0.037 H 
ATOM     41  H7  04J d   1      22.091 -36.247   2.208  0.00  0.00     0.037 H 
BRANCH  39  42
ATOM     42  CG  04J d   1      23.848 -37.008   3.193  0.00  0.00     0.018 C 
ATOM     43  H8  04J d   1      24.188 -36.996   4.239  0.00  0.00     0.049 H 
ATOM     44  H9  04J d   1      24.698 -36.797   2.528  0.00  0.00     0.049 H 
BRANCH  42  45
ATOM     45  CD  04J d   1      23.295 -38.376   2.869  0.00  0.00     0.172 C 
ATOM     46  OE1 04J d   1      22.982 -38.668   1.695  0.00  0.00    -0.648 OA
ATOM     47  OE2 04J d   1      23.141 -39.230   3.769  0.00  0.00    -0.648 OA
ENDBRANCH  42  45
ENDBRANCH  39  42
ENDBRANCH  37  39
BRANCH  37  48
ATOM     48  CT  04J d   1      22.416 -34.412   4.951  0.00  0.00     0.196 C 
ATOM     49  O1  04J d   1      23.581 -33.976   4.825  0.00  0.00    -0.646 OA
ATOM     50  O2  04J d   1      21.603 -33.757   5.639  0.00  0.00    -0.646 OA
ENDBRANCH  37  48
ENDBRANCH  34  37
ENDBRANCH   1  33
TORSDOF 9
