REMARK  8 active torsions:
REMARK  status: ('A' for Active; 'I' for Inactive)
REMARK    1  A    between atoms: C4_2  and  S6_6 
REMARK    2  A    between atoms: S6_6  and  N11_8 
REMARK    3  A    between atoms: C22_10  and  C9_12 
REMARK    4  A    between atoms: C9_12  and  C10_14 
REMARK    5  A    between atoms: C10_14  and  S13_15 
REMARK    6  A    between atoms: S13_15  and  C14_16 
REMARK    7  A    between atoms: C18_18  and  C21_19 
REMARK    8  A    between atoms: C16_21  and  C20_23 
ROOT
ATOM      1  C10 E1E d   1      -2.137   5.087  12.462  0.00  0.00     0.043 C 
ATOM      2  H6  E1E d   1      -2.698   4.384  11.829  0.00  0.00     0.061 H 
ATOM      3  H7  E1E d   1      -1.121   4.700  12.628  0.00  0.00     0.061 H 
ENDROOT
BRANCH   1   4
ATOM      4  C9  E1E d   1      -2.836   5.259  13.773  0.00  0.00     0.169 C 
ATOM      5  O12 E1E d   1      -2.636   6.317  14.425  0.00  0.00    -0.291 OA
BRANCH   4   6
ATOM      6  C22 E1E d   1      -3.626   4.188  14.446  0.00  0.00     0.012 A 
ATOM      7  C2  E1E d   1      -4.661   4.511  15.381  0.00  0.00    -0.047 A 
ATOM      8  C3  E1E d   1      -5.338   3.483  16.070  0.00  0.00     0.058 A 
ATOM      9  H1  E1E d   1      -4.925   5.547  15.560  0.00  0.00     0.087 H 
ATOM     10  C4  E1E d   1      -4.971   2.136  15.848  0.00  0.00     0.101 A 
ATOM     11 CL1  E1E d   1      -6.562   3.882  17.258  0.00  0.00    -0.083 Cl
ATOM     12  C5  E1E d   1      -3.993   1.789  14.890  0.00  0.00    -0.058 A 
ATOM     13  C1  E1E d   1      -3.298   2.825  14.197  0.00  0.00    -0.068 A 
ATOM     14  H2  E1E d   1      -3.773   0.748  14.684  0.00  0.00     0.086 H 
ATOM     15  H5  E1E d   1      -2.522   2.575  13.483  0.00  0.00     0.085 H 
BRANCH  10  16
ATOM     16  S6  E1E d   1      -5.749   0.787  16.779  0.00  0.00     0.258 S 
ATOM     17  O8  E1E d   1      -7.319   0.828  16.588  0.00  0.00    -0.201 OA
ATOM     18  O7  E1E d   1      -5.235   0.922  18.309  0.00  0.00    -0.201 OA
BRANCH  16  19
ATOM     19  N11 E1E d   1      -5.030  -0.672  16.144  0.00  0.00    -0.324 N 
ATOM     20  H3  E1E d   1      -5.304  -1.563  16.506  0.00  0.00     0.169 HD
ATOM     21  H4  E1E d   1      -4.345  -0.617  15.418  0.00  0.00     0.169 HD
ENDBRANCH  16  19
ENDBRANCH  10  16
ENDBRANCH   4   6
ENDBRANCH   1   4
BRANCH   1  22
ATOM     22  S13 E1E d   1      -2.054   6.707  11.658  0.00  0.00    -0.082 SA
BRANCH  22  23
ATOM     23  C14 E1E d   1      -3.812   7.004  11.541  0.00  0.00     0.189 A 
ATOM     24  N17 E1E d   1      -4.678   6.155  12.211  0.00  0.00    -0.228 NA
ATOM     25  C18 E1E d   1      -6.011   6.351  12.114  0.00  0.00     0.035 A 
ATOM     26  C19 E1E d   1      -6.502   7.436  11.348  0.00  0.00    -0.036 A 
ATOM     27  C16 E1E d   1      -5.592   8.303  10.698  0.00  0.00     0.035 A 
ATOM     28  H11 E1E d   1      -7.570   7.602  11.260  0.00  0.00     0.089 H 
ATOM     29  N15 E1E d   1      -4.256   8.077  10.805  0.00  0.00    -0.228 NA
BRANCH  25  30
ATOM     30  C21 E1E d   1      -6.882   5.383  12.830  0.00  0.00    -0.035 C 
ATOM     31  H8  E1E d   1      -7.937   5.652  12.672  0.00  0.00     0.035 H 
ATOM     32  H9  E1E d   1      -6.654   5.410  13.906  0.00  0.00     0.035 H 
ATOM     33  H10 E1E d   1      -6.700   4.370  12.442  0.00  0.00     0.035 H 
ENDBRANCH  25  30
BRANCH  27  34
ATOM     34  C20 E1E d   1      -6.047   9.468   9.882  0.00  0.00    -0.035 C 
ATOM     35  H12 E1E d   1      -5.171   9.995   9.476  0.00  0.00     0.035 H 
ATOM     36  H13 E1E d   1      -6.627  10.155  10.515  0.00  0.00     0.035 H 
ATOM     37  H14 E1E d   1      -6.677   9.112   9.054  0.00  0.00     0.035 H 
ENDBRANCH  27  34
ENDBRANCH  22  23
ENDBRANCH   1  22
TORSDOF 8
