REMARK  6 active torsions:
REMARK  status: ('A' for Active; 'I' for Inactive)
REMARK    1  A    between atoms: C6_13  and  C1_3 
REMARK    2  A    between atoms: C3_9  and  S16_10 
REMARK    3  A    between atoms: S16_10  and  N19_11 
REMARK    4  A    between atoms: C7_15  and  C6_13 
REMARK    5  A    between atoms: S8_16  and  C7_15 
REMARK    6  A    between atoms: C9_17  and  S8_16 
ROOT
ATOM      1  C1  E1F d   1      -4.177   4.032  14.012  0.00  0.00     0.012 A 
ATOM      2  C2  E1F d   1      -5.592   3.400  15.816  0.00  0.00     0.058 A 
ATOM      3 CL1  E1F d   1      -6.664   3.865  17.111  0.00  0.00    -0.083 Cl
ATOM      4  C21 E1F d   1      -5.094   4.410  14.997  0.00  0.00    -0.047 A 
ATOM      5  C5  E1F d   1      -3.788   2.684  13.784  0.00  0.00    -0.068 A 
ATOM      6  C4  E1F d   1      -4.297   1.663  14.607  0.00  0.00    -0.058 A 
ATOM      7  C3  E1F d   1      -5.181   2.052  15.615  0.00  0.00     0.101 A 
ATOM      8  H2  E1F d   1      -5.403   5.442  15.118  0.00  0.00     0.087 H 
ATOM      9  H3  E1F d   1      -3.102   2.444  12.980  0.00  0.00     0.085 H 
ATOM     10  H4  E1F d   1      -4.017   0.625  14.466  0.00  0.00     0.086 H 
ENDROOT
BRANCH   1  11
ATOM     11  C6  E1F d   1      -3.626   5.121  13.182  0.00  0.00     0.169 C 
ATOM     12  O12 E1F d   1      -4.321   6.105  12.900  0.00  0.00    -0.291 OA
BRANCH  11  13
ATOM     13  C7  E1F d   1      -2.190   4.996  12.794  0.00  0.00     0.043 C 
ATOM     14  H7  E1F d   1      -2.000   4.014  12.337  0.00  0.00     0.061 H 
ATOM     15  H8  E1F d   1      -1.542   5.123  13.674  0.00  0.00     0.061 H 
BRANCH  13  16
ATOM     16  S8  E1F d   1      -1.894   6.325  11.590  0.00  0.00    -0.082 SA
BRANCH  16  17
ATOM     17  C9  E1F d   1      -1.518   7.583  12.789  0.00  0.00     0.188 A 
ATOM     18  N11 E1F d   1      -1.310   8.832  12.259  0.00  0.00    -0.235 NA
ATOM     19  C14 E1F d   1      -1.034   9.854  13.140  0.00  0.00     0.006 A 
ATOM     20  C15 E1F d   1      -0.945   9.607  14.530  0.00  0.00    -0.049 A 
ATOM     21  H9  E1F d   1      -0.883  10.859  12.764  0.00  0.00     0.114 H 
ATOM     22  C13 E1F d   1      -1.154   8.334  15.024  0.00  0.00     0.006 A 
ATOM     23  H10 E1F d   1      -0.712  10.419  15.209  0.00  0.00     0.087 H 
ATOM     24  N10 E1F d   1      -1.461   7.329  14.149  0.00  0.00    -0.235 NA
ATOM     25  H1  E1F d   1      -1.076   8.135  16.087  0.00  0.00     0.114 H 
ENDBRANCH  16  17
ENDBRANCH  13  16
ENDBRANCH  11  13
ENDBRANCH   1  11
BRANCH   7  26
ATOM     26  S16 E1F d   1      -5.806   0.742  16.681  0.00  0.00     0.258 S 
ATOM     27  O18 E1F d   1      -5.281   0.999  18.223  0.00  0.00    -0.201 OA
ATOM     28  O17 E1F d   1      -7.350   0.813  16.603  0.00  0.00    -0.201 OA
BRANCH  26  29
ATOM     29  N19 E1F d   1      -5.016  -0.701  16.116  0.00  0.00    -0.324 N 
ATOM     30  H5  E1F d   1      -5.195  -1.040  15.193  0.00  0.00     0.169 HD
ATOM     31  H6  E1F d   1      -4.383  -1.191  16.715  0.00  0.00     0.169 HD
ENDBRANCH  26  29
ENDBRANCH   7  26
TORSDOF 6
