REMARK  8 active torsions:
REMARK  status: ('A' for Active; 'I' for Inactive)
REMARK    1  A    between atoms: C4_2  and  S6_6 
REMARK    2  A    between atoms: S6_6  and  N11_8 
REMARK    3  A    between atoms: C22_10  and  C9_12 
REMARK    4  A    between atoms: C9_12  and  C10_14 
REMARK    5  A    between atoms: C10_14  and  S13_15 
REMARK    6  A    between atoms: S13_15  and  C14_16 
REMARK    7  A    between atoms: C18_18  and  C21_19 
REMARK    8  A    between atoms: C16_21  and  C20_23 
ROOT
ATOM      1  C10 E1E d   1      11.148  -8.143  10.105  0.00  0.00     0.043 C 
ATOM      2  H6  E1E d   1      12.083  -8.476   9.631  0.00  0.00     0.061 H 
ATOM      3  H7  E1E d   1      10.319  -8.240   9.388  0.00  0.00     0.061 H 
ENDROOT
BRANCH   1   4
ATOM      4  C9  E1E d   1      11.282  -6.705  10.533  0.00  0.00     0.169 C 
ATOM      5  O12 E1E d   1      11.053  -6.336  11.711  0.00  0.00    -0.291 OA
BRANCH   4   6
ATOM      6  C22 E1E d   1      11.693  -5.672   9.527  0.00  0.00     0.012 A 
ATOM      7  C2  E1E d   1      11.049  -4.456   9.591  0.00  0.00    -0.047 A 
ATOM      8  C3  E1E d   1      11.392  -3.421   8.682  0.00  0.00     0.058 A 
ATOM      9  H1  E1E d   1      10.280  -4.289  10.336  0.00  0.00     0.087 H 
ATOM     10  C4  E1E d   1      12.357  -3.665   7.695  0.00  0.00     0.101 A 
ATOM     11 CL1  E1E d   1      10.547  -1.908   8.760  0.00  0.00    -0.083 Cl
ATOM     12  C5  E1E d   1      13.017  -4.918   7.618  0.00  0.00    -0.058 A 
ATOM     13  C1  E1E d   1      12.685  -5.912   8.532  0.00  0.00    -0.068 A 
ATOM     14  H2  E1E d   1      13.769  -5.098   6.858  0.00  0.00     0.086 H 
ATOM     15  H5  E1E d   1      13.183  -6.874   8.488  0.00  0.00     0.085 H 
BRANCH  10  16
ATOM     16  S6  E1E d   1      12.840  -2.351   6.573  0.00  0.00     0.258 S 
ATOM     17  O8  E1E d   1      13.466  -1.308   7.480  0.00  0.00    -0.201 OA
ATOM     18  O7  E1E d   1      11.574  -1.773   5.661  0.00  0.00    -0.201 OA
BRANCH  16  19
ATOM     19  N11 E1E d   1      14.234  -2.982   5.559  0.00  0.00    -0.324 N 
ATOM     20  H3  E1E d   1      14.652  -2.396   4.865  0.00  0.00     0.169 HD
ATOM     21  H4  E1E d   1      14.575  -3.911   5.701  0.00  0.00     0.169 HD
ENDBRANCH  16  19
ENDBRANCH  10  16
ENDBRANCH   4   6
ENDBRANCH   1   4
BRANCH   1  22
ATOM     22  S13 E1E d   1      10.809  -9.162  11.573  0.00  0.00    -0.082 SA
BRANCH  22  23
ATOM     23  C14 E1E d   1       9.021  -9.099  11.479  0.00  0.00     0.189 A 
ATOM     24  N17 E1E d   1       8.291  -8.415  10.522  0.00  0.00    -0.228 NA
ATOM     25  C18 E1E d   1       6.920  -8.475  10.554  0.00  0.00     0.035 A 
ATOM     26  C19 E1E d   1       6.267  -9.240  11.553  0.00  0.00    -0.036 A 
ATOM     27  C16 E1E d   1       7.050  -9.923  12.503  0.00  0.00     0.035 A 
ATOM     28  H11 E1E d   1       5.185  -9.298  11.585  0.00  0.00     0.089 H 
ATOM     29  N15 E1E d   1       8.400  -9.821  12.445  0.00  0.00    -0.228 NA
BRANCH  25  30
ATOM     30  C21 E1E d   1       6.122  -7.739   9.532  0.00  0.00    -0.035 C 
ATOM     31  H8  E1E d   1       5.050  -7.904   9.716  0.00  0.00     0.035 H 
ATOM     32  H9  E1E d   1       6.383  -8.107   8.529  0.00  0.00     0.035 H 
ATOM     33  H10 E1E d   1       6.345  -6.664   9.598  0.00  0.00     0.035 H 
ENDBRANCH  25  30
BRANCH  27  34
ATOM     34  C20 E1E d   1       6.499 -10.767  13.607  0.00  0.00    -0.035 C 
ATOM     35  H12 E1E d   1       7.327 -11.182  14.200  0.00  0.00     0.035 H 
ATOM     36  H13 E1E d   1       5.907 -11.589  13.179  0.00  0.00     0.035 H 
ATOM     37  H14 E1E d   1       5.857 -10.151  14.254  0.00  0.00     0.035 H 
ENDBRANCH  27  34
ENDBRANCH  22  23
ENDBRANCH   1  22
TORSDOF 8
