REMARK  11 active torsions:
REMARK  status: ('A' for Active; 'I' for Inactive)
REMARK    1  A    between atoms: PG_1  and  S1G_2 
REMARK    2  A    between atoms: O3B_8  and  PG_1 
REMARK    3  A    between atoms: PB_5  and  O3B_8 
REMARK    4  A    between atoms: O3A_12  and  PB_5 
REMARK    5  A    between atoms: PA_9  and  O3A_12 
REMARK    6  A    between atoms: PA_9  and  O5'_13 
REMARK    7  A    between atoms: O5'_13  and  C5'_14 
REMARK    8  A    between atoms: C5'_14  and  C4'_15 
REMARK    9  A    between atoms: C3'_17  and  O3'_18 
REMARK   10  A    between atoms: C2'_19  and  O2'_20 
REMARK   11  A    between atoms: C1'_21  and  N9_22 
ROOT
ATOM      1  C4' AGS d   1      19.658  44.989 -10.330  0.00  0.00     0.089 C 
ATOM      2  O4' AGS d   1      20.148  44.487 -11.584  0.00  0.00    -0.353 OA
ATOM      3  C3' AGS d   1      20.810  44.858  -9.346  0.00  0.00     0.091 C 
ATOM      4  C2' AGS d   1      21.577  43.680  -9.890  0.00  0.00     0.105 C 
ATOM      5  C1' AGS d   1      21.367  43.753 -11.397  0.00  0.00     0.139 C 
ATOM      6  H4  AGS d   1      18.809  44.380  -9.987  0.00  0.00     0.090 H 
ATOM      7  H5  AGS d   1      21.431  45.766  -9.364  0.00  0.00     0.091 H 
ATOM      8  H7  AGS d   1      22.643  43.729  -9.624  0.00  0.00     0.093 H 
ATOM      9  H9  AGS d   1      21.267  42.742 -11.820  0.00  0.00     0.122 H 
ENDROOT
BRANCH   1  10
ATOM     10  C5' AGS d   1      19.197  46.429 -10.483  0.00  0.00     0.058 C 
ATOM     11  H2  AGS d   1      18.517  46.510 -11.344  0.00  0.00     0.079 H 
ATOM     12  H3  AGS d   1      18.672  46.748  -9.570  0.00  0.00     0.079 H 
BRANCH  10  13
ATOM     13  O5' AGS d   1      20.338  47.257 -10.694  0.00  0.00    -0.287 OA
BRANCH  13  14
ATOM     14  PA  AGS d   1      20.438  48.731 -10.064  0.00  0.00     0.417 P 
ATOM     15  O1A AGS d   1      21.857  49.037  -9.666  0.00  0.00    -0.624 OA
ATOM     16  O2A AGS d   1      19.307  48.978  -9.105  0.00  0.00    -0.624 OA
BRANCH  14  17
ATOM     17  O3A AGS d   1      20.160  49.578 -11.398  0.00  0.00    -0.180 OA
BRANCH  17  18
ATOM     18  PB  AGS d   1      20.405  51.160 -11.527  0.00  0.00     0.426 P 
ATOM     19  O1B AGS d   1      20.489  51.782 -10.156  0.00  0.00    -0.624 OA
ATOM     20  O2B AGS d   1      21.489  51.377 -12.553  0.00  0.00    -0.624 OA
BRANCH  18  21
ATOM     21  O3B AGS d   1      18.982  51.507 -12.212  0.00  0.00    -0.195 OA
BRANCH  21  22
ATOM     22  PG  AGS d   1      18.148  52.882 -12.082  0.00  0.00     0.322 P 
ATOM     23  O2G AGS d   1      17.952  53.224 -10.627  0.00  0.00    -0.638 OA
ATOM     24  O3G AGS d   1      18.863  53.869 -12.966  0.00  0.00    -0.638 OA
BRANCH  22  25
ATOM     25  S1G AGS d   1      16.246  52.528 -12.835  0.00  0.00    -0.054 SA
ATOM     26  H1  AGS d   1      16.311  52.292 -13.813  0.00  0.00     0.114 HD
ENDBRANCH  22  25
ENDBRANCH  21  22
ENDBRANCH  18  21
ENDBRANCH  17  18
ENDBRANCH  14  17
ENDBRANCH  13  14
ENDBRANCH  10  13
ENDBRANCH   1  10
BRANCH   3  27
ATOM     27  O3' AGS d   1      20.380  44.629  -8.000  0.00  0.00    -0.390 OA
ATOM     28  H6  AGS d   1      19.877  43.824  -7.962  0.00  0.00     0.210 HD
ENDBRANCH   3  27
BRANCH   5  29
ATOM     29  N9  AGS d   1      22.523  44.440 -12.036  0.00  0.00    -0.294 N 
ATOM     30  C8  AGS d   1      22.470  45.624 -12.673  0.00  0.00     0.071 A 
ATOM     31  N7  AGS d   1      23.686  45.988 -13.141  0.00  0.00    -0.236 NA
ATOM     32  H10 AGS d   1      21.563  46.214 -12.796  0.00  0.00     0.144 H 
ATOM     33  C5  AGS d   1      24.564  45.033 -12.797  0.00  0.00     0.149 A 
ATOM     34  C6  AGS d   1      26.022  44.805 -12.984  0.00  0.00     0.155 A 
ATOM     35  C4  AGS d   1      23.797  44.007 -12.070  0.00  0.00     0.167 A 
ATOM     36  N6  AGS d   1      26.787  45.703 -13.647  0.00  0.00    -0.382 N 
ATOM     37  N1  AGS d   1      26.555  43.672 -12.471  0.00  0.00    -0.222 NA
ATOM     38  H11 AGS d   1      27.795  45.531 -13.768  0.00  0.00     0.157 HD
ATOM     39  H12 AGS d   1      26.361  46.559 -14.030  0.00  0.00     0.157 HD
ATOM     40  C2  AGS d   1      25.794  42.771 -11.810  0.00  0.00     0.091 A 
ATOM     41  N3  AGS d   1      24.468  42.918 -11.607  0.00  0.00    -0.222 NA
ATOM     42  H13 AGS d   1      26.276  41.881 -11.421  0.00  0.00     0.146 H 
ENDBRANCH   5  29
BRANCH   4  43
ATOM     43  O2' AGS d   1      20.984  42.475  -9.398  0.00  0.00    -0.388 OA
ATOM     44  H8  AGS d   1      21.019  42.471  -8.449  0.00  0.00     0.210 HD
ENDBRANCH   4  43
TORSDOF 11
