REMARK  9 active torsions:
REMARK  status: ('A' for Active; 'I' for Inactive)
REMARK    1  A    between atoms: C10_7  and  C15_9 
REMARK    2  A    between atoms: C11_8  and  C12_10 
REMARK    3  A    between atoms: C15_9  and  O30_25 
REMARK    4  A    between atoms: C3_13  and  O16_14 
REMARK    5  A    between atoms: C3_13  and  N18_16 
REMARK    6  A    between atoms: O16_14  and  C17_15 
REMARK       I    between atoms: N18_16  and  C19_17 
REMARK    7  A    between atoms: C19_17  and  C20_19 
REMARK    8  A    between atoms: C20_19  and  C23_20 
REMARK    9  A    between atoms: O30_25  and  C31_26 
REMARK       I    between atoms: C31_26  and  N33_28 
ROOT
ATOM      1  C4  CFX d   1     -12.966   3.663  -9.718  0.00  0.00     0.285 C 
ATOM      2  O5  CFX d   1     -11.843   4.120  -9.544  0.00  0.00    -0.267 OA
ATOM      3  N1  CFX d   1     -14.184   4.125  -9.426  0.00  0.00    -0.288 N 
ATOM      4  C2  CFX d   1     -14.890   3.011 -10.096  0.00  0.00     0.122 C 
ATOM      5  S8  CFX d   1     -16.159   2.390  -8.988  0.00  0.00    -0.133 SA
ATOM      6  C9  CFX d   1     -16.964   4.005  -8.887  0.00  0.00     0.004 C 
ATOM      7  C10 CFX d   1     -16.052   5.190  -8.512  0.00  0.00    -0.013 C 
ATOM      8  C11 CFX d   1     -14.762   5.215  -8.723  0.00  0.00     0.121 C 
ATOM      9  C3  CFX d   1     -13.529   2.323 -10.201  0.00  0.00     0.250 C 
ATOM     10  H1  CFX d   1     -15.339   3.237 -11.074  0.00  0.00     0.099 H 
ATOM     11  H2  CFX d   1     -17.759   3.939  -8.129  0.00  0.00     0.056 H 
ATOM     12  H3  CFX d   1     -17.410   4.221  -9.869  0.00  0.00     0.056 H 
ENDROOT
BRANCH   9  13
ATOM     13  O16 CFX d   1     -13.273   1.992 -11.561  0.00  0.00    -0.355 OA
BRANCH  13  14
ATOM     14  C17 CFX d   1     -11.922   1.732 -11.864  0.00  0.00     0.008 C 
ATOM     15  H6  CFX d   1     -11.826   1.487 -12.932  0.00  0.00     0.066 H 
ATOM     16  H7  CFX d   1     -11.568   0.884 -11.260  0.00  0.00     0.066 H 
ATOM     17  H8  CFX d   1     -11.317   2.622 -11.636  0.00  0.00     0.066 H 
ENDBRANCH  13  14
ENDBRANCH   9  13
BRANCH   9  18
ATOM     18  N18 CFX d   1     -13.135   1.270  -9.321  0.00  0.00    -0.319 N 
ATOM     19  C19 CFX d   1     -13.611   0.037  -9.360  0.00  0.00     0.225 C 
ATOM     20  O21 CFX d   1     -14.570  -0.243 -10.046  0.00  0.00    -0.273 OA
ATOM     21  H9  CFX d   1     -12.449   1.480  -8.624  0.00  0.00     0.166 HD
BRANCH  19  22
ATOM     22  C20 CFX d   1     -12.930  -0.988  -8.516  0.00  0.00     0.039 C 
ATOM     23  H10 CFX d   1     -11.945  -0.597  -8.223  0.00  0.00     0.055 H 
ATOM     24  H11 CFX d   1     -12.798  -1.900  -9.117  0.00  0.00     0.055 H 
BRANCH  22  25
ATOM     25  C23 CFX d   1     -13.674  -1.343  -7.288  0.00  0.00    -0.009 A 
ATOM     26  S24 CFX d   1     -13.069  -2.490  -6.161  0.00  0.00    -0.106 SA
ATOM     27  C25 CFX d   1     -14.402  -2.375  -5.150  0.00  0.00    -0.045 A 
ATOM     28  C26 CFX d   1     -15.270  -1.544  -5.620  0.00  0.00    -0.076 A 
ATOM     29  H12 CFX d   1     -14.520  -2.929  -4.220  0.00  0.00     0.095 H 
ATOM     30  C27 CFX d   1     -14.876  -0.933  -6.837  0.00  0.00    -0.069 A 
ATOM     31  H13 CFX d   1     -16.218  -1.332  -5.127  0.00  0.00     0.084 H 
ATOM     32  H14 CFX d   1     -15.488  -0.200  -7.359  0.00  0.00     0.085 H 
ENDBRANCH  22  25
ENDBRANCH  19  22
ENDBRANCH   9  18
BRANCH   8  33
ATOM     33  C12 CFX d   1     -13.800   6.188  -8.164  0.00  0.00     0.227 C 
ATOM     34  O13 CFX d   1     -13.917   7.367  -8.511  0.00  0.00    -0.643 OA
ATOM     35  O14 CFX d   1     -12.918   5.794  -7.363  0.00  0.00    -0.643 OA
ENDBRANCH   8  33
BRANCH   7  36
ATOM     36  C15 CFX d   1     -16.728   6.332  -7.788  0.00  0.00     0.054 C 
ATOM     37  H4  CFX d   1     -15.985   7.105  -7.543  0.00  0.00     0.082 H 
ATOM     38  H5  CFX d   1     -17.189   5.960  -6.861  0.00  0.00     0.082 H 
BRANCH  36  39
ATOM     39  O30 CFX d   1     -17.787   6.915  -8.679  0.00  0.00    -0.300 OA
BRANCH  39  40
ATOM     40  C31 CFX d   1     -18.329   8.144  -8.401  0.00  0.00     0.358 C 
ATOM     41  O32 CFX d   1     -17.910   9.073  -7.667  0.00  0.00    -0.239 OA
ATOM     42  N33 CFX d   1     -19.450   8.209  -9.125  0.00  0.00    -0.346 N 
ATOM     43  H15 CFX d   1     -20.024   9.027  -9.085  0.00  0.00     0.161 HD
ATOM     44  H16 CFX d   1     -19.715   7.440  -9.707  0.00  0.00     0.161 HD
ENDBRANCH  39  40
ENDBRANCH  36  39
ENDBRANCH   7  36
TORSDOF 9
