REMARK  6 active torsions:
REMARK  status: ('A' for Active; 'I' for Inactive)
REMARK    1  A    between atoms: C6_13  and  C1_3 
REMARK    2  A    between atoms: C3_9  and  S16_10 
REMARK    3  A    between atoms: S16_10  and  N19_11 
REMARK    4  A    between atoms: C7_15  and  C6_13 
REMARK    5  A    between atoms: S8_16  and  C7_15 
REMARK    6  A    between atoms: C9_17  and  S8_16 
ROOT
ATOM      1  C1  E1F d   1      26.654   5.856  10.547  0.00  0.00     0.012 C 
ATOM      2  C2  E1F d   1      25.820   4.104   9.043  0.00  0.00     0.058 C 
ATOM      3 CL1  E1F d   1      25.986   3.277   7.625  0.00  0.00    -0.083 Cl
ATOM      4  C21 E1F d   1      26.717   5.192   9.344  0.00  0.00    -0.047 C 
ATOM      5  C5  E1F d   1      25.623   5.582  11.446  0.00  0.00    -0.068 C 
ATOM      6  C4  E1F d   1      24.721   4.469  11.230  0.00  0.00    -0.058 C 
ATOM      7  C3  E1F d   1      24.817   3.830   9.986  0.00  0.00     0.101 C 
ATOM      8  H2  E1F d   1      27.455   5.492   8.609  0.00  0.00     0.087 H 
ATOM      9  H3  E1F d   1      25.495   6.211  12.319  0.00  0.00     0.085 H 
ATOM     10  H4  E1F d   1      24.013   4.149  11.986  0.00  0.00     0.086 H 
ENDROOT
BRANCH   1  11
ATOM     11  C6  E1F d   1      27.666   6.946  10.713  0.00  0.00     0.169 C 
ATOM     12  O12 E1F d   1      27.550   7.551  11.780  0.00  0.00    -0.291 OA
BRANCH  11  13
ATOM     13  C7  E1F d   1      28.665   7.200   9.585  0.00  0.00     0.043 C 
ATOM     14  H7  E1F d   1      28.119   7.481   8.672  0.00  0.00     0.061 H 
ATOM     15  H8  E1F d   1      29.243   6.283   9.399  0.00  0.00     0.061 H 
BRANCH  13  16
ATOM     16  S8  E1F d   1      29.837   8.585  10.055  0.00  0.00    -0.082 SA
BRANCH  16  17
ATOM     17  C9  E1F d   1      28.727   9.932   9.770  0.00  0.00     0.188 A 
ATOM     18  N11 E1F d   1      27.471   9.750   9.245  0.00  0.00    -0.235 NA
ATOM     19  C14 E1F d   1      26.676  10.809   8.958  0.00  0.00     0.006 A 
ATOM     20  C15 E1F d   1      27.097  12.092   9.218  0.00  0.00    -0.049 A 
ATOM     21  H9  E1F d   1      25.699  10.643   8.519  0.00  0.00     0.114 H 
ATOM     22  C13 E1F d   1      28.370  12.256   9.769  0.00  0.00     0.006 A 
ATOM     23  H10 E1F d   1      26.464  12.945   9.003  0.00  0.00     0.087 H 
ATOM     24  N10 E1F d   1      29.172  11.195  10.063  0.00  0.00    -0.235 NA
ATOM     25  H1  E1F d   1      28.731  13.258   9.969  0.00  0.00     0.114 H 
ENDBRANCH  16  17
ENDBRANCH  13  16
ENDBRANCH  11  13
ENDBRANCH   1  11
BRANCH   7  26
ATOM     26  S16 E1F d   1      23.737   2.376   9.833  0.00  0.00     0.258 S 
ATOM     27  O18 E1F d   1      22.971   2.569   8.532  0.00  0.00    -0.201 OA
ATOM     28  O17 E1F d   1      24.695   1.176   9.860  0.00  0.00    -0.201 OA
BRANCH  26  29
ATOM     29  N19 E1F d   1      22.770   2.335  11.067  0.00  0.00    -0.324 N 
ATOM     30  H5  E1F d   1      23.140   2.213  11.988  0.00  0.00     0.169 HD
ATOM     31  H6  E1F d   1      21.784   2.431  10.933  0.00  0.00     0.169 HD
ENDBRANCH  26  29
ENDBRANCH   7  26
TORSDOF 6
