REMARK  6 active torsions:
REMARK  status: ('A' for Active; 'I' for Inactive)
REMARK    1  A    between atoms: S17_2  and  N20_4 
REMARK    2  A    between atoms: S17_2  and  C4_5 
REMARK    3  A    between atoms: C2_10  and  C7_11 
REMARK    4  A    between atoms: C7_11  and  C8_13 
REMARK    5  A    between atoms: C8_13  and  S9_14 
REMARK    6  A    between atoms: S9_14  and  C10_15 
ROOT
ATOM      1  C4  E1G d   1      -4.622  17.194  -5.282  0.00  0.00     0.080 A 
ATOM      2  C5  E1G d   1      -3.858  17.344  -4.138  0.00  0.00    -0.060 A 
ATOM      3  C6  E1G d   1      -3.845  18.550  -3.429  0.00  0.00    -0.081 A 
ATOM      4  C1  E1G d   1      -4.572  19.635  -3.902  0.00  0.00    -0.069 A 
ATOM      5  C3  E1G d   1      -5.373  18.293  -5.784  0.00  0.00    -0.047 A 
ATOM      6  C2  E1G d   1      -5.327  19.534  -5.073  0.00  0.00     0.012 A 
ATOM      7  H3  E1G d   1      -3.259  16.512  -3.785  0.00  0.00     0.085 H 
ATOM      8  H4  E1G d   1      -3.270  18.637  -2.514  0.00  0.00     0.083 H 
ATOM      9  H5  E1G d   1      -4.553  20.571  -3.356  0.00  0.00     0.085 H 
ATOM     10  H6  E1G d   1      -5.967  18.193  -6.685  0.00  0.00     0.087 H 
ENDROOT
BRANCH   6  11
ATOM     11  C7  E1G d   1      -6.087  20.756  -5.423  0.00  0.00     0.169 C 
ATOM     12  O13 E1G d   1      -5.545  21.785  -5.830  0.00  0.00    -0.291 OA
BRANCH  11  13
ATOM     13  C8  E1G d   1      -7.577  20.739  -5.210  0.00  0.00     0.043 C 
ATOM     14  H7  E1G d   1      -7.830  20.012  -4.424  0.00  0.00     0.061 H 
ATOM     15  H8  E1G d   1      -8.081  20.457  -6.146  0.00  0.00     0.061 H 
BRANCH  13  16
ATOM     16  S9  E1G d   1      -8.115  22.396  -4.704  0.00  0.00    -0.082 SA
BRANCH  16  17
ATOM     17  C10 E1G d   1      -7.468  22.224  -3.019  0.00  0.00     0.188 A 
ATOM     18  N12 E1G d   1      -8.315  22.032  -1.948  0.00  0.00    -0.235 NA
ATOM     19  C15 E1G d   1      -7.840  21.901  -0.675  0.00  0.00     0.006 A 
ATOM     20  C16 E1G d   1      -6.466  21.972  -0.435  0.00  0.00    -0.049 A 
ATOM     21  H9  E1G d   1      -8.528  21.742   0.148  0.00  0.00     0.114 H 
ATOM     22  C14 E1G d   1      -5.603  22.158  -1.514  0.00  0.00     0.006 A 
ATOM     23  H10 E1G d   1      -6.077  21.884   0.573  0.00  0.00     0.087 H 
ATOM     24  N11 E1G d   1      -6.118  22.284  -2.778  0.00  0.00    -0.235 NA
ATOM     25  H11 E1G d   1      -4.532  22.203  -1.354  0.00  0.00     0.114 H 
ENDBRANCH  16  17
ENDBRANCH  13  16
ENDBRANCH  11  13
ENDBRANCH   6  11
BRANCH   1  26
ATOM     26  S17 E1G d   1      -4.492  15.550  -5.994  0.00  0.00     0.256 S 
ATOM     27  O19 E1G d   1      -5.596  14.592  -5.496  0.00  0.00    -0.201 OA
ATOM     28  O18 E1G d   1      -4.739  15.597  -7.524  0.00  0.00    -0.201 OA
BRANCH  26  29
ATOM     29  N20 E1G d   1      -2.904  14.860  -5.734  0.00  0.00    -0.324 N 
ATOM     30  H1  E1G d   1      -2.555  14.744  -4.804  0.00  0.00     0.169 HD
ATOM     31  H2  E1G d   1      -2.346  14.582  -6.516  0.00  0.00     0.169 HD
ENDBRANCH  26  29
ENDBRANCH   1  26
TORSDOF 6
