REMARK  5 active torsions:
REMARK  status: ('A' for Active; 'I' for Inactive)
REMARK    1  A    between atoms: N_1  and  CA_2 
REMARK    2  A    between atoms: CA_2  and  C_3 
REMARK    3  A    between atoms: CA_2  and  CB_5 
REMARK    4  A    between atoms: CB_5  and  CG_6 
REMARK    5  A    between atoms: CG_6  and  CD_7 
REMARK       I    between atoms: CD_7  and  NE2_9 
ROOT
ATOM      1  CB  GLN d   1      25.163   6.329  33.685  0.00  0.00    -0.021 C 
ATOM      2  H5  GLN d   1      24.223   6.006  33.214  0.00  0.00     0.037 H 
ATOM      3  H6  GLN d   1      25.138   6.087  34.758  0.00  0.00     0.037 H 
ENDROOT
BRANCH   1   4
ATOM      4  CA  GLN d   1      25.270   7.852  33.541  0.00  0.00     0.183 C 
ATOM      5  H4  GLN d   1      24.457   8.306  34.127  0.00  0.00     0.101 H 
BRANCH   4   6
ATOM      6  N   GLN d   1      25.102   8.269  32.123  0.00  0.00    -0.065 N 
ATOM      7  H1  GLN d   1      24.222   7.924  31.773  0.00  0.00     0.275 HD
ATOM      8  H2  GLN d   1      25.855   7.890  31.570  0.00  0.00     0.275 HD
ATOM      9  H3  GLN d   1      25.116   9.275  32.065  0.00  0.00     0.275 HD
ENDBRANCH   4   6
BRANCH   4  10
ATOM     10  C   GLN d   1      26.591   8.358  34.097  0.00  0.00     0.204 C 
ATOM     11  O   GLN d   1      27.450   8.813  33.310  0.00  0.00    -0.646 OA
ATOM     12  OXT GLN d   1      26.750   8.297  35.334  0.00  0.00    -0.646 OA
ENDBRANCH   4  10
ENDBRANCH   1   4
BRANCH   1  13
ATOM     13  CG  GLN d   1      26.305   5.547  33.049  0.00  0.00     0.011 C 
ATOM     14  H7  GLN d   1      27.253   5.888  33.490  0.00  0.00     0.047 H 
ATOM     15  H8  GLN d   1      26.310   5.748  31.968  0.00  0.00     0.047 H 
BRANCH  13  16
ATOM     16  CD  GLN d   1      26.182   4.052  33.263  0.00  0.00     0.215 C 
ATOM     17  OE1 GLN d   1      25.490   3.586  34.177  0.00  0.00    -0.274 OA
ATOM     18  NE2 GLN d   1      26.891   3.291  32.442  0.00  0.00    -0.370 N 
ATOM     19  H9  GLN d   1      26.856   2.295  32.528  0.00  0.00     0.159 HD
ATOM     20  H10 GLN d   1      27.461   3.712  31.737  0.00  0.00     0.159 HD
ENDBRANCH  13  16
ENDBRANCH   1  13
TORSDOF 5
