REMARK  14 active torsions:
REMARK  status: ('A' for Active; 'I' for Inactive)
REMARK    1  A    between atoms: CAB_1  and  CAL_2 
REMARK    2  A    between atoms: CAL_2  and  CAX_3 
REMARK    3  A    between atoms: CAX_3  and  CAM_4 
REMARK    4  A    between atoms: CAX_3  and  OAR_6 
REMARK    5  A    between atoms: CAM_4  and  CAC_5 
REMARK    6  A    between atoms: OAR_6  and  CAZ_7 
REMARK    7  A    between atoms: CBA_8  and  NAQ_9 
REMARK       I    between atoms: NAQ_9  and  CAS_10 
REMARK    8  A    between atoms: CAS_10  and  CAD_11 
REMARK    9  A    between atoms: CAU_14  and  CAT_15 
REMARK   10  A    between atoms: CAY_19  and  NBB_20 
REMARK   11  A    between atoms: CAV_24  and  CAW_25 
REMARK   12  A    between atoms: CAW_25  and  CAK_26 
REMARK   13  A    between atoms: CAW_25  and  OAH_28 
REMARK   14  A    between atoms: CAK_26  and  CAA_27 
ROOT
ATOM      1  CAZ 1SN d   1     206.610  70.631-124.673  0.00  0.00     0.064 C 
ATOM      2  CBA 1SN d   1     206.160  72.070-124.923  0.00  0.00     0.062 C 
ATOM      3  CAN 1SN d   1     206.207  69.762-125.853  0.00  0.00    -0.009 C 
ATOM      4  CAU 1SN d   1     204.710  69.902-126.120  0.00  0.00     0.019 C 
ATOM      5  CAI 1SN d   1     204.064  71.110-125.907  0.00  0.00    -0.065 C 
ATOM      6  CAY 1SN d   1     204.643  72.187-124.990  0.00  0.00     0.074 C 
ATOM      7  H12 1SN d   1     206.182  70.239-123.739  0.00  0.00     0.087 H 
ATOM      8  H13 1SN d   1     206.586  72.422-125.874  0.00  0.00     0.080 H 
ATOM      9  H18 1SN d   1     206.440  68.711-125.627  0.00  0.00     0.044 H 
ATOM     10  H19 1SN d   1     206.767  70.078-126.746  0.00  0.00     0.044 H 
ATOM     11  H20 1SN d   1     203.115  71.297-126.408  0.00  0.00     0.081 H 
ATOM     12  H21 1SN d   1     204.220  72.088-123.979  0.00  0.00     0.085 H 
ENDROOT
BRANCH   1  13
ATOM     13  OAR 1SN d   1     208.027  70.670-124.615  0.00  0.00    -0.378 OA
BRANCH  13  14
ATOM     14  CAX 1SN d   1     208.616  69.658-123.785  0.00  0.00     0.038 C 
ATOM     15  H6  1SN d   1     208.892  68.813-124.433  0.00  0.00     0.083 H 
BRANCH  14  16
ATOM     16  CAL 1SN d   1     209.889  70.233-123.168  0.00  0.00    -0.044 C 
ATOM     17  H4  1SN d   1     209.757  70.336-122.081  0.00  0.00     0.036 H 
ATOM     18  H5  1SN d   1     210.734  69.559-123.372  0.00  0.00     0.036 H 
BRANCH  16  19
ATOM     19  CAB 1SN d   1     210.170  71.605-123.781  0.00  0.00    -0.074 C 
ATOM     20  H1  1SN d   1     211.087  72.023-123.339  0.00  0.00     0.027 H 
ATOM     21  H2  1SN d   1     209.324  72.278-123.577  0.00  0.00     0.027 H 
ATOM     22  H3  1SN d   1     210.301  71.501-124.868  0.00  0.00     0.027 H 
ENDBRANCH  16  19
ENDBRANCH  14  16
BRANCH  14  23
ATOM     23  CAM 1SN d   1     207.695  69.110-122.693  0.00  0.00    -0.044 C 
ATOM     24  H7  1SN d   1     206.669  69.471-122.856  0.00  0.00     0.036 H 
ATOM     25  H8  1SN d   1     208.048  69.444-121.706  0.00  0.00     0.036 H 
BRANCH  23  26
ATOM     26  CAC 1SN d   1     207.723  67.573-122.763  0.00  0.00    -0.074 C 
ATOM     27  H9  1SN d   1     207.066  67.159-121.984  0.00  0.00     0.027 H 
ATOM     28  H10 1SN d   1     208.751  67.217-122.602  0.00  0.00     0.027 H 
ATOM     29  H11 1SN d   1     207.372  67.245-123.752  0.00  0.00     0.027 H 
ENDBRANCH  23  26
ENDBRANCH  14  23
ENDBRANCH  13  14
ENDBRANCH   1  13
BRANCH   2  30
ATOM     30  NAQ 1SN d   1     206.665  72.893-123.820  0.00  0.00    -0.352 N 
ATOM     31  CAS 1SN d   1     207.253  74.076-124.019  0.00  0.00     0.214 C 
ATOM     32  OAE 1SN d   1     207.419  74.593-125.124  0.00  0.00    -0.274 OA
ATOM     33  H14 1SN d   1     206.566  72.556-122.884  0.00  0.00     0.163 HD
BRANCH  31  34
ATOM     34  CAD 1SN d   1     207.724  74.780-122.746  0.00  0.00    -0.003 C 
ATOM     35  H15 1SN d   1     208.192  75.740-123.010  0.00  0.00     0.040 H 
ATOM     36  H16 1SN d   1     208.457  74.145-122.226  0.00  0.00     0.040 H 
ATOM     37  H17 1SN d   1     206.862  74.961-122.087  0.00  0.00     0.040 H 
ENDBRANCH  31  34
ENDBRANCH   2  30
BRANCH   6  38
ATOM     38  NBB 1SN d   1     204.284  73.485-125.564  0.00  0.00    -0.250 N 
ATOM     39  CAJ 1SN d   1     204.238  74.605-124.871  0.00  0.00     0.029 A 
ATOM     40  CAV 1SN d   1     203.876  75.481-125.790  0.00  0.00     0.104 A 
ATOM     41  H22 1SN d   1     204.445  74.766-123.814  0.00  0.00     0.117 H 
ATOM     42  NAO 1SN d   1     203.734  74.847-126.952  0.00  0.00    -0.133 NA
ATOM     43  NAP 1SN d   1     203.992  73.658-126.751  0.00  0.00    -0.065 NA
BRANCH  40  44
ATOM     44  CAW 1SN d   1     203.663  76.978-125.534  0.00  0.00     0.080 C 
ATOM     45  H23 1SN d   1     203.975  77.549-126.421  0.00  0.00     0.093 H 
BRANCH  44  46
ATOM     46  CAK 1SN d   1     202.184  77.246-125.251  0.00  0.00    -0.039 C 
ATOM     47  H24 1SN d   1     202.037  78.322-125.076  0.00  0.00     0.036 H 
ATOM     48  H25 1SN d   1     201.877  76.684-124.357  0.00  0.00     0.036 H 
BRANCH  46  49
ATOM     49  CAA 1SN d   1     201.333  76.808-126.437  0.00  0.00    -0.074 C 
ATOM     50  H26 1SN d   1     200.273  77.006-126.221  0.00  0.00     0.027 H 
ATOM     51  H27 1SN d   1     201.476  75.732-126.614  0.00  0.00     0.027 H 
ATOM     52  H28 1SN d   1     201.636  77.370-127.333  0.00  0.00     0.027 H 
ENDBRANCH  46  49
ENDBRANCH  44  46
BRANCH  44  53
ATOM     53  OAH 1SN d   1     204.447  77.388-124.401  0.00  0.00    -0.389 OA
ATOM     54  H29 1SN d   1     204.176  76.896-123.635  0.00  0.00     0.210 HD
ENDBRANCH  44  53
ENDBRANCH  40  44
ENDBRANCH   6  38
BRANCH   4  55
ATOM     55  CAT 1SN d   1     203.881  68.703-126.559  0.00  0.00     0.205 C 
ATOM     56  OAG 1SN d   1     202.995  68.894-127.426  0.00  0.00    -0.644 OA
ATOM     57  OAF 1SN d   1     204.130  67.612-126.006  0.00  0.00    -0.644 OA
ENDBRANCH   4  55
TORSDOF 14
