REMARK  6 active torsions:
REMARK  status: ('A' for Active; 'I' for Inactive)
REMARK    1  A    between atoms: C6_3  and  N01_2 
REMARK    2  A    between atoms: N9_10  and  C1'_11 
REMARK    3  A    between atoms: C2'_12  and  O2'_13 
REMARK    4  A    between atoms: C22_22  and  O23_23 
REMARK    5  A    between atoms: C32_32  and  N33_33 
REMARK    6  A    between atoms: C40_40  and  N41_41 
ROOT
ATOM      1  C1' 1SY d   1      50.682   5.019 -18.928  0.00  0.00     0.140 C 
ATOM      2  C2' 1SY d   1      50.380   4.522 -17.603  0.00  0.00     0.106 C 
ATOM      3  C3' 1SY d   1      49.138   3.764 -17.764  0.00  0.00     0.106 C 
ATOM      4  C4' 1SY d   1      49.370   3.094 -19.052  0.00  0.00     0.090 C 
ATOM      5  C16 1SY d   1      48.077   2.813 -19.760  0.00  0.00     0.058 C 
ATOM      6  O17 1SY d   1      47.351   4.005 -19.842  0.00  0.00    -0.287 OA
ATOM      7  P18 1SY d   1      45.831   3.976 -20.336  0.00  0.00     0.408 P 
ATOM      8  O19 1SY d   1      45.210   5.359 -20.429  0.00  0.00    -0.624 OA
ATOM      9  O20 1SY d   1      44.941   3.030 -19.356  0.00  0.00    -0.277 OA
ATOM     10  C21 1SY d   1      45.238   3.102 -17.973  0.00  0.00     0.120 C 
ATOM     11  C22 1SY d   1      45.225   1.757 -17.318  0.00  0.00     0.092 C 
ATOM     12  C24 1SY d   1      44.873   2.031 -15.933  0.00  0.00     0.089 C 
ATOM     13  C25 1SY d   1      46.069   2.169 -15.026  0.00  0.00     0.058 C 
ATOM     14  O26 1SY d   1      46.821   3.329 -15.275  0.00  0.00    -0.287 OA
ATOM     15  P27 1SY d   1      48.421   3.298 -15.237  0.00  0.00     0.408 P 
ATOM     16  O28 1SY d   1      49.055   2.793 -16.676  0.00  0.00    -0.279 OA
ATOM     17  O29 1SY d   1      48.935   4.647 -14.857  0.00  0.00    -0.624 OA
ATOM     18  O30 1SY d   1      48.867   2.315 -14.223  0.00  0.00    -0.624 OA
ATOM     19  O31 1SY d   1      44.051   3.225 -15.940  0.00  0.00    -0.353 OA
ATOM     20  C32 1SY d   1      44.157   3.838 -17.254  0.00  0.00     0.140 C 
ATOM     21  O44 1SY d   1      45.826   3.332 -21.655  0.00  0.00    -0.624 OA
ATOM     22  O4' 1SY d   1      50.154   4.044 -19.820  0.00  0.00    -0.353 OA
ATOM     23  H5  1SY d   1      51.767   5.134 -19.067  0.00  0.00     0.122 H 
ATOM     24  H6  1SY d   1      50.268   5.335 -16.871  0.00  0.00     0.093 H 
ATOM     25  H8  1SY d   1      48.246   4.407 -17.785  0.00  0.00     0.092 H 
ATOM     26  H9  1SY d   1      49.923   2.154 -18.906  0.00  0.00     0.090 H 
ATOM     27  H10 1SY d   1      47.500   2.065 -19.197  0.00  0.00     0.079 H 
ATOM     28  H11 1SY d   1      48.282   2.433 -20.771  0.00  0.00     0.079 H 
ATOM     29  H12 1SY d   1      46.213   3.593 -17.835  0.00  0.00     0.095 H 
ATOM     30  H13 1SY d   1      46.204   1.263 -17.403  0.00  0.00     0.091 H 
ATOM     31  H15 1SY d   1      44.271   1.192 -15.556  0.00  0.00     0.090 H 
ATOM     32  H16 1SY d   1      46.719   1.293 -15.169  0.00  0.00     0.079 H 
ATOM     33  H17 1SY d   1      45.717   2.198 -13.984  0.00  0.00     0.079 H 
ATOM     34  H18 1SY d   1      43.211   3.734 -17.806  0.00  0.00     0.123 H 
ENDROOT
BRANCH  20  35
ATOM     35  N33 1SY d   1      44.435   5.171 -17.082  0.00  0.00    -0.295 N 
ATOM     36  C34 1SY d   1      45.479   5.722 -16.498  0.00  0.00     0.071 A 
ATOM     37  N35 1SY d   1      45.348   7.054 -16.528  0.00  0.00    -0.234 NA
ATOM     38  H19 1SY d   1      46.316   5.180 -16.060  0.00  0.00     0.144 H 
ATOM     39  C37 1SY d   1      44.175   7.370 -17.126  0.00  0.00     0.171 A 
ATOM     40  C36 1SY d   1      43.590   6.164 -17.482  0.00  0.00     0.161 A 
ATOM     41  C38 1SY d   1      43.486   8.666 -17.444  0.00  0.00     0.292 A 
ATOM     42  N42 1SY d   1      42.319   6.133 -18.156  0.00  0.00    -0.174 N 
ATOM     43  C40 1SY d   1      41.638   7.385 -18.456  0.00  0.00     0.680 A 
ATOM     44  H23 1SY d   1      41.895   5.234 -18.424  0.00  0.00     0.186 HD
ATOM     45  N39 1SY d   1      42.231   8.640 -18.103  0.00  0.00    -0.154 N 
ATOM     46  H20 1SY d   1      41.761   9.495 -18.321  0.00  0.00     0.187 HD
ATOM     47  O43 1SY d   1      44.002   9.763 -17.139  0.00  0.00    -0.265 OA
BRANCH  43  48
ATOM     48  N41 1SY d   1      40.375   7.354 -19.117  0.00  0.00    -0.234 N 
ATOM     49  H21 1SY d   1      39.949   6.451 -19.371  0.00  0.00     0.174 HD
ATOM     50  H22 1SY d   1      39.889   8.234 -19.341  0.00  0.00     0.174 HD
ENDBRANCH  43  48
ENDBRANCH  20  35
BRANCH  11  51
ATOM     51  O23 1SY d   1      44.203   0.940 -17.865  0.00  0.00    -0.390 OA
ATOM     52  H14 1SY d   1      44.354   0.826 -18.796  0.00  0.00     0.210 HD
ENDBRANCH  11  51
BRANCH   2  53
ATOM     53  O2' 1SY d   1      51.440   3.630 -17.229  0.00  0.00    -0.388 OA
ATOM     54  H7  1SY d   1      51.270   3.285 -16.360  0.00  0.00     0.210 HD
ENDBRANCH   2  53
BRANCH   1  55
ATOM     55  N9  1SY d   1      50.021   6.278 -19.141  0.00  0.00    -0.294 N 
ATOM     56  C4  1SY d   1      50.707   7.322 -18.571  0.00  0.00     0.167 A 
ATOM     57  N3  1SY d   1      51.861   7.466 -17.865  0.00  0.00    -0.222 NA
ATOM     58  C5  1SY d   1      49.932   8.463 -18.884  0.00  0.00     0.149 A 
ATOM     59  C2  1SY d   1      52.285   8.645 -17.445  0.00  0.00     0.091 A 
ATOM     60  N1  1SY d   1      51.572   9.746 -17.722  0.00  0.00    -0.222 NA
ATOM     61  H1  1SY d   1      53.206   8.722 -16.878  0.00  0.00     0.146 H 
ATOM     62  C6  1SY d   1      50.424   9.721 -18.417  0.00  0.00     0.155 A 
ATOM     63  N7  1SY d   1      48.846   8.028 -19.599  0.00  0.00    -0.236 NA
ATOM     64  C8  1SY d   1      48.904   6.680 -19.752  0.00  0.00     0.071 A 
ATOM     65  H4  1SY d   1      48.182   6.051 -20.271  0.00  0.00     0.144 H 
BRANCH  62  66
ATOM     66  N01 1SY d   1      49.671  10.964 -18.686  0.00  0.00    -0.382 N 
ATOM     67  H2  1SY d   1      48.792  10.928 -19.221  0.00  0.00     0.157 HD
ATOM     68  H3  1SY d   1      50.026  11.866 -18.338  0.00  0.00     0.157 HD
ENDBRANCH  62  66
ENDBRANCH   1  55
TORSDOF 6
