REMARK  2 active torsions:
REMARK  status: ('A' for Active; 'I' for Inactive)
REMARK    1  A    between atoms: N7_6  and  C12_12 
REMARK    2  A    between atoms: C12_12  and  C13_13 
ROOT
ATOM      1  O11 3AK d   1      -1.003 -27.794  50.703  0.00  0.00    -0.263 OA
ATOM      2  C8  3AK d   1       0.172 -27.826  50.198  0.00  0.00     0.299 A 
ATOM      3  C9  3AK d   1       0.496 -28.642  49.047  0.00  0.00     0.252 A 
ATOM      4  O10 3AK d   1      -0.352 -29.377  48.432  0.00  0.00    -0.281 OA
ATOM      5  C1  3AK d   1       1.924 -28.402  48.790  0.00  0.00     0.047 A 
ATOM      6  N7  3AK d   1       1.222 -27.133  50.640  0.00  0.00    -0.306 N 
ATOM      7  C6  3AK d   1       2.304 -27.425  49.862  0.00  0.00     0.052 A 
ATOM      8  C5  3AK d   1       3.620 -26.990  49.882  0.00  0.00    -0.056 A 
ATOM      9  C4  3AK d   1       4.529 -27.474  48.940  0.00  0.00    -0.081 A 
ATOM     10  C3  3AK d   1       4.147 -28.395  47.941  0.00  0.00    -0.082 A 
ATOM     11  C2  3AK d   1       2.838 -28.865  47.856  0.00  0.00    -0.067 A 
ATOM     12  H   3AK d   1       3.943 -26.274  50.629  0.00  0.00     0.087 H 
ATOM     13  H   3AK d   1       5.557 -27.133  48.977  0.00  0.00     0.083 H 
ATOM     14  H   3AK d   1       4.885 -28.743  47.227  0.00  0.00     0.083 H 
ATOM     15  H   3AK d   1       2.544 -29.569  47.086  0.00  0.00     0.085 H 
ENDROOT
BRANCH   6  16
ATOM     16  C12 3AK d   1       1.203 -26.236  51.776  0.00  0.00     0.027 C 
ATOM     17  H   3AK d   1       1.941 -25.436  51.616  0.00  0.00     0.072 H 
ATOM     18  H   3AK d   1       1.463 -26.799  52.685  0.00  0.00     0.072 H 
BRANCH  16  19
ATOM     19  C13 3AK d   1      -0.170 -25.619  51.950  0.00  0.00    -0.040 A 
ATOM     20  C18 3AK d   1      -0.815 -25.743  53.178  0.00  0.00    -0.075 A 
ATOM     21  C17 3AK d   1      -2.077 -25.196  53.359  0.00  0.00    -0.082 A 
ATOM     22  H   3AK d   1      -0.330 -26.268  53.993  0.00  0.00     0.084 H 
ATOM     23  C16 3AK d   1      -2.708 -24.526  52.316  0.00  0.00    -0.083 A 
ATOM     24  H   3AK d   1      -2.574 -25.291  54.318  0.00  0.00     0.083 H 
ATOM     25  C15 3AK d   1      -2.077 -24.403  51.084  0.00  0.00    -0.082 A 
ATOM     26  H   3AK d   1      -3.693 -24.099  52.464  0.00  0.00     0.083 H 
ATOM     27  C14 3AK d   1      -0.805 -24.944  50.895  0.00  0.00    -0.075 A 
ATOM     28  H   3AK d   1      -2.573 -23.887  50.270  0.00  0.00     0.083 H 
ATOM     29  H   3AK d   1      -0.308 -24.844  49.937  0.00  0.00     0.084 H 
ENDBRANCH  16  19
ENDBRANCH   6  16
TORSDOF 2
