REMARK  1 active torsions:
REMARK  status: ('A' for Active; 'I' for Inactive)
REMARK    1  A    between atoms: C3_4  and  C12_5 
ROOT
ATOM      1 BR1  2AK d   1       3.947 -26.929  49.157  0.00  0.00    -0.049 Br
ATOM      2  C5  2AK d   1       2.093 -27.215  49.332  0.00  0.00     0.039 A 
ATOM      3  C4  2AK d   1       1.331 -26.596  50.325  0.00  0.00    -0.058 A 
ATOM      4  C3  2AK d   1      -0.049 -26.816  50.443  0.00  0.00    -0.060 A 
ATOM      5  C2  2AK d   1      -0.733 -27.668  49.571  0.00  0.00    -0.061 A 
ATOM      6  C6  2AK d   1       1.440 -28.127  48.374  0.00  0.00     0.067 A 
ATOM      7  N7  2AK d   1       1.907 -28.858  47.323  0.00  0.00    -0.318 N 
ATOM      8  C8  2AK d   1       0.870 -29.517  46.782  0.00  0.00     0.297 A 
ATOM      9  O11 2AK d   1       0.952 -30.311  45.779  0.00  0.00    -0.264 OA
ATOM     10  C9  2AK d   1      -0.375 -29.244  47.502  0.00  0.00     0.252 A 
ATOM     11  C1  2AK d   1      -0.024 -28.307  48.567  0.00  0.00     0.048 A 
ATOM     12  O10 2AK d   1      -1.538 -29.706  47.238  0.00  0.00    -0.281 OA
ATOM     13  H   2AK d   1       1.820 -25.927  51.024  0.00  0.00     0.086 H 
ATOM     14  H   2AK d   1      -1.800 -27.826  49.679  0.00  0.00     0.085 H 
ATOM     15  H   2AK d   1       2.856 -28.897  47.010  0.00  0.00     0.169 HD
ENDROOT
BRANCH   4  16
ATOM     16  C12 2AK d   1      -0.815 -26.118  51.536  0.00  0.00    -0.051 C 
ATOM     17  H   2AK d   1      -1.876 -26.404  51.480  0.00  0.00     0.033 H 
ATOM     18  H   2AK d   1      -0.722 -25.029  51.411  0.00  0.00     0.033 H 
ATOM     19  H   2AK d   1      -0.407 -26.411  52.514  0.00  0.00     0.033 H 
ENDBRANCH   4  16
TORSDOF 1
