REMARK  11 active torsions:
REMARK  status: ('A' for Active; 'I' for Inactive)
REMARK    1  A    between atoms: C6_6  and  C5_5 
REMARK    2  A    between atoms: C7_7  and  C6_6 
REMARK    3  A    between atoms: C24_24  and  C7_7 
REMARK    4  A    between atoms: C10_10  and  N11_11 
REMARK    5  A    between atoms: C17_17  and  N18_18 
REMARK    6  A    between atoms: N18_18  and  C19_19 
REMARK    7  A    between atoms: C20_20  and  O21_21 
REMARK    8  A    between atoms: O21_21  and  C22_22 
REMARK    9  A    between atoms: C25_25  and  O26_26 
REMARK   10  A    between atoms: O26_26  and  C26_27 
REMARK   11  A    between atoms: C27_28  and  O28_29 
ROOT
ATOM      1  C1  1UD d   1     102.106  16.450  22.166  0.00  0.00     0.063 A 
ATOM      2  C2  1UD d   1     103.094  16.839  21.257  0.00  0.00    -0.035 A 
ATOM      3  C3  1UD d   1     102.706  16.871  19.922  0.00  0.00     0.104 A 
ATOM      4  C4  1UD d   1     101.435  16.541  19.481  0.00  0.00     0.087 A 
ATOM      5  C5  1UD d   1     100.442  16.128  20.398  0.00  0.00    -0.000 A 
ATOM      6  C8  1UD d   1     100.803  16.096  21.769  0.00  0.00     0.073 A 
ATOM      7  N9  1UD d   1      99.846  15.699  22.724  0.00  0.00    -0.190 N 
ATOM      8  C10 1UD d   1     100.166  15.706  23.984  0.00  0.00     0.679 A 
ATOM      9  N12 1UD d   1     101.408  16.064  24.426  0.00  0.00    -0.156 N 
ATOM     10  C13 1UD d   1     102.434  16.437  23.602  0.00  0.00     0.272 A 
ATOM     11  O14 1UD d   1     103.546  16.751  24.034  0.00  0.00    -0.267 OA
ATOM     12  N15 1UD d   1     103.389  17.203  18.782  0.00  0.00    -0.063 NA
ATOM     13  N16 1UD d   1     101.348  16.686  18.117  0.00  0.00    -0.187 N 
ATOM     14  C17 1UD d   1     102.535  17.078  17.717  0.00  0.00     0.701 A 
ATOM     15  H   1UD d   1     104.098  17.099  21.572  0.00  0.00     0.088 H 
ATOM     16  H   1UD d   1      98.904  15.407  22.427  0.00  0.00     0.184 HD
ATOM     17  H   1UD d   1     101.577  16.053  25.412  0.00  0.00     0.187 HD
ATOM     18  H   1UD d   1     100.519  16.521  17.528  0.00  0.00     0.184 HD
ENDROOT
BRANCH   5  19
ATOM     19  C6  1UD d   1      99.046  15.810  19.919  0.00  0.00    -0.034 C 
ATOM     20  H   1UD d   1      98.818  16.483  19.080  0.00  0.00     0.040 H 
ATOM     21  H   1UD d   1      98.353  16.011  20.749  0.00  0.00     0.040 H 
BRANCH  19  22
ATOM     22  C7  1UD d   1      98.805  14.384  19.448  0.00  0.00    -0.035 C 
ATOM     23  H   1UD d   1      99.017  13.682  20.267  0.00  0.00     0.037 H 
ATOM     24  H   1UD d   1      99.461  14.160  18.594  0.00  0.00     0.037 H 
BRANCH  22  25
ATOM     25  C24 1UD d   1      97.344  14.254  19.024  0.00  0.00     0.069 C 
ATOM     26  O23 1UD d   1      97.136  15.100  17.892  0.00  0.00    -0.351 OA
ATOM     27  C20 1UD d   1      95.896  14.679  17.321  0.00  0.00     0.158 C 
ATOM     28  C27 1UD d   1      95.823  13.171  17.541  0.00  0.00     0.110 C 
ATOM     29  H   1UD d   1      95.044  15.183  17.801  0.00  0.00     0.133 H 
ATOM     30  C25 1UD d   1      96.891  12.867  18.594  0.00  0.00     0.092 C 
ATOM     31  H   1UD d   1      96.016  12.620  16.609  0.00  0.00     0.094 H 
ATOM     32  H   1UD d   1      97.710  12.265  18.174  0.00  0.00     0.091 H 
ATOM     33  H   1UD d   1      96.714  14.582  19.864  0.00  0.00     0.087 H 
BRANCH  27  34
ATOM     34  O21 1UD d   1      95.931  14.985  15.931  0.00  0.00    -0.363 OA
BRANCH  34  35
ATOM     35  C22 1UD d   1      95.489  16.311  15.665  0.00  0.00     0.007 C 
ATOM     36  H   1UD d   1      95.533  16.502  14.583  0.00  0.00     0.066 H 
ATOM     37  H   1UD d   1      96.139  17.026  16.190  0.00  0.00     0.066 H 
ATOM     38  H   1UD d   1      94.453  16.430  16.016  0.00  0.00     0.066 H 
ENDBRANCH  34  35
ENDBRANCH  27  34
BRANCH  28  39
ATOM     39  O28 1UD d   1      94.532  12.845  18.055  0.00  0.00    -0.388 OA
ATOM     40  H   1UD d   1      93.873  13.036  17.398  0.00  0.00     0.210 HD
ENDBRANCH  28  39
BRANCH  30  41
ATOM     41  O26 1UD d   1      96.345  12.237  19.751  0.00  0.00    -0.385 OA
BRANCH  41  42
ATOM     42  C26 1UD d   1      96.416  10.815  19.757  0.00  0.00     0.005 C 
ATOM     43  H   1UD d   1      95.971  10.430  20.686  0.00  0.00     0.066 H 
ATOM     44  H   1UD d   1      97.468  10.500  19.696  0.00  0.00     0.066 H 
ATOM     45  H   1UD d   1      95.863  10.417  18.893  0.00  0.00     0.066 H 
ENDBRANCH  41  42
ENDBRANCH  30  41
ENDBRANCH  22  25
ENDBRANCH  19  22
ENDBRANCH   5  19
BRANCH  14  46
ATOM     46  N18 1UD d   1     102.939  17.349  16.463  0.00  0.00    -0.229 N 
ATOM     47  H   1UD d   1     103.940  17.464  16.251  0.00  0.00     0.177 HD
BRANCH  46  48
ATOM     48  C19 1UD d   1     101.948  17.477  15.414  0.00  0.00    -0.005 C 
ATOM     49  H   1UD d   1     102.450  17.698  14.460  0.00  0.00     0.057 H 
ATOM     50  H   1UD d   1     101.255  18.295  15.662  0.00  0.00     0.057 H 
ATOM     51  H   1UD d   1     101.386  16.536  15.323  0.00  0.00     0.057 H 
ENDBRANCH  46  48
ENDBRANCH  14  46
BRANCH   8  52
ATOM     52  N11 1UD d   1      99.280  15.343  24.935  0.00  0.00    -0.234 N 
ATOM     53  H   1UD d   1      99.555  15.356  25.927  0.00  0.00     0.174 HD
ATOM     54  H   1UD d   1      98.328  15.053  24.668  0.00  0.00     0.174 HD
ENDBRANCH   8  52
TORSDOF 11
