REMARK  22 active torsions:
REMARK  status: ('A' for Active; 'I' for Inactive)
REMARK    1  A    between atoms: N_1  and  C1_2 
REMARK    2  A    between atoms: C1_2  and  C2_3 
REMARK    3  A    between atoms: C1_2  and  C6_7 
REMARK    4  A    between atoms: C2_3  and  C3_4 
REMARK    5  A    between atoms: C3_4  and  C4_5 
REMARK    6  A    between atoms: C3_4  and  C5_6 
REMARK    7  A    between atoms: C6_7  and  O1_8 
REMARK    8  A    between atoms: C6_7  and  C_9 
REMARK       I    between atoms: C_9  and  N_11 
REMARK    9  A    between atoms: N_11  and  CA_12 
REMARK   10  A    between atoms: CA_12  and  C_13 
REMARK   11  A    between atoms: CA_12  and  CB_15 
REMARK       I    between atoms: C_13  and  N_18 
REMARK   12  A    between atoms: CB_15  and  CG1_16 
REMARK   13  A    between atoms: CB_15  and  CG2_17 
REMARK   14  A    between atoms: N_18  and  CA_19 
REMARK   15  A    between atoms: CA_19  and  C_20 
REMARK   16  A    between atoms: CA_19  and  CB_22 
REMARK       I    between atoms: C_20  and  N_25 
REMARK   17  A    between atoms: CB_22  and  CG1_23 
REMARK   18  A    between atoms: CB_22  and  CG2_24 
REMARK   19  A    between atoms: N_25  and  CA_26 
REMARK   20  A    between atoms: CA_26  and  C_27 
REMARK   21  A    between atoms: CA_26  and  CB_29 
REMARK   22  A    between atoms: CB_29  and  CG_30 
ROOT
ATOM      1  CA  VAL d   1     -13.262  38.281  39.677  0.00  0.00     0.092 C 
ATOM      2  H17 VAL d   1     -12.519  38.971  39.250  0.00  0.00     0.088 H 
ENDROOT
BRANCH   1   3
ATOM      3  N   VAL d   1     -12.753  37.679  40.867  0.00  0.00    -0.345 N 
ATOM      4  C   L2O d   1     -11.776  38.540  41.496  0.00  0.00     0.249 C 
ATOM      5  O   L2O d   1     -10.948  39.260  40.902  0.00  0.00    -0.271 OA
ATOM      6  H16 VAL d   1     -13.033  36.785  41.217  0.00  0.00     0.163 HD
BRANCH   4   7
ATOM      7  C6  L2O d   1     -11.359  37.989  42.820  0.00  0.00     0.139 C 
ATOM      8  H14 L2O d   1     -12.033  37.197  43.178  0.00  0.00     0.101 H 
BRANCH   7   9
ATOM      9  C1  L2O d   1     -11.361  39.171  43.797  0.00  0.00     0.133 C 
ATOM     10  H4  L2O d   1     -11.158  40.087  43.222  0.00  0.00     0.088 H 
BRANCH   9  11
ATOM     11  N   L2O d   1     -10.276  39.061  44.809  0.00  0.00    -0.072 N 
ATOM     12  H1  L2O d   1     -10.313  39.855  45.429  0.00  0.00     0.274 HD
ATOM     13  H2  L2O d   1      -9.383  39.040  44.343  0.00  0.00     0.274 HD
ATOM     14  H3  L2O d   1     -10.397  38.213  45.341  0.00  0.00     0.274 HD
ENDBRANCH   9  11
BRANCH   9  15
ATOM     15  C2  L2O d   1     -12.804  39.298  44.378  0.00  0.00    -0.033 C 
ATOM     16  H5  L2O d   1     -12.934  38.557  45.181  0.00  0.00     0.036 H 
ATOM     17  H6  L2O d   1     -13.532  39.102  43.577  0.00  0.00     0.036 H 
BRANCH  15  18
ATOM     18  C3  L2O d   1     -13.054  40.703  44.948  0.00  0.00    -0.059 C 
ATOM     19  H7  L2O d   1     -12.100  41.136  45.282  0.00  0.00     0.038 H 
BRANCH  18  20
ATOM     20  C4  L2O d   1     -13.672  41.606  43.881  0.00  0.00    -0.073 C 
ATOM     21  H8  L2O d   1     -13.845  42.607  44.303  0.00  0.00     0.028 H 
ATOM     22  H9  L2O d   1     -14.629  41.178  43.548  0.00  0.00     0.028 H 
ATOM     23  H10 L2O d   1     -12.987  41.683  43.024  0.00  0.00     0.028 H 
ENDBRANCH  18  20
BRANCH  18  24
ATOM     24  C5  L2O d   1     -14.021  40.596  46.147  0.00  0.00    -0.073 C 
ATOM     25  H11 L2O d   1     -13.579  39.947  46.917  0.00  0.00     0.028 H 
ATOM     26  H12 L2O d   1     -14.977  40.168  45.810  0.00  0.00     0.028 H 
ATOM     27  H13 L2O d   1     -14.196  41.597  46.568  0.00  0.00     0.028 H 
ENDBRANCH  18  24
ENDBRANCH  15  18
ENDBRANCH   9  15
ENDBRANCH   7   9
BRANCH   7  28
ATOM     28  O1  L2O d   1     -10.052  37.467  42.549  0.00  0.00    -0.384 OA
ATOM     29  H15 L2O d   1      -9.512  38.150  42.169  0.00  0.00     0.210 HD
ENDBRANCH   7  28
ENDBRANCH   4   7
ENDBRANCH   1   3
BRANCH   1  30
ATOM     30  C   VAL d   1     -14.474  39.057  40.127  0.00  0.00     0.241 C 
ATOM     31  O   VAL d   1     -15.186  38.639  41.020  0.00  0.00    -0.271 OA
ATOM     32  N   VAL d   1     -14.657  40.227  39.554  0.00  0.00    -0.346 N 
ATOM     33  H25 VAL d   1     -14.068  40.488  38.789  0.00  0.00     0.163 HD
BRANCH  32  34
ATOM     34  CA  VAL d   1     -15.673  41.141  39.989  0.00  0.00     0.092 C 
ATOM     35  H26 VAL d   1     -15.683  41.150  41.089  0.00  0.00     0.088 H 
BRANCH  34  36
ATOM     36  C   VAL d   1     -17.055  40.746  39.507  0.00  0.00     0.241 C 
ATOM     37  O   VAL d   1     -18.014  41.280  39.935  0.00  0.00    -0.271 OA
ATOM     38  N   ASP d   1     -17.110  39.772  38.643  0.00  0.00    -0.344 N 
ATOM     39  H34 ASP d   1     -16.370  39.100  38.672  0.00  0.00     0.163 HD
BRANCH  38  40
ATOM     40  CA  ASP d   1     -18.130  39.572  37.655  0.00  0.00     0.105 C 
ATOM     41  H35 ASP d   1     -17.538  39.207  36.803  0.00  0.00     0.090 H 
BRANCH  40  42
ATOM     42  C   ASP d   1     -18.879  40.706  37.056  0.00  0.00     0.197 C 
ATOM     43  O   ASP d   1     -18.717  40.739  35.798  0.00  0.00    -0.646 OA
ATOM     44  OXT ASP d   1     -19.574  41.473  37.772  0.00  0.00    -0.646 OA
ENDBRANCH  40  42
BRANCH  40  45
ATOM     45  CB  ASP d   1     -19.056  38.456  37.943  0.00  0.00     0.044 C 
ATOM     46  H36 ASP d   1     -20.091  38.797  37.797  0.00  0.00     0.053 H 
ATOM     47  H37 ASP d   1     -18.921  38.132  38.986  0.00  0.00     0.053 H 
BRANCH  45  48
ATOM     48  CG  ASP d   1     -18.793  37.347  37.064  0.00  0.00     0.175 C 
ATOM     49  OD1 ASP d   1     -17.630  36.935  37.080  0.00  0.00    -0.648 OA
ATOM     50  OD2 ASP d   1     -19.682  36.896  36.330  0.00  0.00    -0.648 OA
ENDBRANCH  45  48
ENDBRANCH  40  45
ENDBRANCH  38  40
ENDBRANCH  34  36
BRANCH  34  51
ATOM     51  CB  VAL d   1     -15.324  42.548  39.483  0.00  0.00    -0.033 C 
ATOM     52  H27 VAL d   1     -15.144  42.478  38.400  0.00  0.00     0.042 H 
BRANCH  51  53
ATOM     53  CG1 VAL d   1     -16.455  43.527  39.698  0.00  0.00    -0.071 C 
ATOM     54  H28 VAL d   1     -16.159  44.517  39.321  0.00  0.00     0.028 H 
ATOM     55  H29 VAL d   1     -16.681  43.596  40.772  0.00  0.00     0.028 H 
ATOM     56  H30 VAL d   1     -17.348  43.180  39.157  0.00  0.00     0.028 H 
ENDBRANCH  51  53
BRANCH  51  57
ATOM     57  CG2 VAL d   1     -14.057  43.046  40.134  0.00  0.00    -0.071 C 
ATOM     58  H31 VAL d   1     -13.248  42.320  39.965  0.00  0.00     0.028 H 
ATOM     59  H32 VAL d   1     -14.223  43.166  41.215  0.00  0.00     0.028 H 
ATOM     60  H33 VAL d   1     -13.776  44.015  39.696  0.00  0.00     0.028 H 
ENDBRANCH  51  57
ENDBRANCH  34  51
ENDBRANCH  32  34
ENDBRANCH   1  30
BRANCH   1  61
ATOM     61  CB  VAL d   1     -13.579  37.210  38.646  0.00  0.00    -0.033 C 
ATOM     62  H18 VAL d   1     -14.258  36.466  39.088  0.00  0.00     0.042 H 
BRANCH  61  63
ATOM     63  CG1 VAL d   1     -14.215  37.817  37.441  0.00  0.00    -0.071 C 
ATOM     64  H19 VAL d   1     -14.437  37.028  36.707  0.00  0.00     0.028 H 
ATOM     65  H20 VAL d   1     -13.528  38.551  36.994  0.00  0.00     0.028 H 
ATOM     66  H21 VAL d   1     -15.149  38.319  37.733  0.00  0.00     0.028 H 
ENDBRANCH  61  63
BRANCH  61  67
ATOM     67  CG2 VAL d   1     -12.298  36.542  38.213  0.00  0.00    -0.071 C 
ATOM     68  H22 VAL d   1     -11.809  36.086  39.086  0.00  0.00     0.028 H 
ATOM     69  H23 VAL d   1     -11.627  37.291  37.767  0.00  0.00     0.028 H 
ATOM     70  H24 VAL d   1     -12.524  35.763  37.470  0.00  0.00     0.028 H 
ENDBRANCH  61  67
ENDBRANCH   1  61
TORSDOF 22
