REMARK  12 active torsions:
REMARK  status: ('A' for Active; 'I' for Inactive)
REMARK    1  A    between atoms: N2_1  and  C1_2 
REMARK    2  A    between atoms: C1_2  and  C6_3 
REMARK    3  A    between atoms: C1_2  and  C2_10 
REMARK    4  A    between atoms: C6_3  and  C7_4 
REMARK    5  A    between atoms: C2_10  and  O2_11 
REMARK    6  A    between atoms: C2_10  and  C3_12 
REMARK       I    between atoms: C3_12  and  N1_14 
REMARK    7  A    between atoms: N1_14  and  C4_15 
REMARK    8  A    between atoms: C4_15  and  C13_16 
REMARK    9  A    between atoms: C4_15  and  C5_20 
REMARK   10  A    between atoms: C13_16  and  C14_17 
REMARK   11  A    between atoms: C14_17  and  C15_18 
REMARK   12  A    between atoms: C14_17  and  C16_19 
ROOT
ATOM      1  C2  BES d   1     -10.852  37.707  42.711  0.00  0.00     0.139 C 
ATOM      2  H12 BES d   1     -11.534  36.904  43.026  0.00  0.00     0.101 H 
ENDROOT
BRANCH   1   3
ATOM      3  C1  BES d   1     -10.939  38.869  43.685  0.00  0.00     0.136 C 
ATOM      4  H4  BES d   1     -10.733  39.807  43.148  0.00  0.00     0.089 H 
BRANCH   3   5
ATOM      5  N2  BES d   1      -9.930  38.677  44.708  0.00  0.00    -0.072 N 
ATOM      6  H1  BES d   1      -9.970  39.439  45.367  0.00  0.00     0.274 HD
ATOM      7  H2  BES d   1      -9.018  38.651  44.280  0.00  0.00     0.274 HD
ATOM      8  H3  BES d   1     -10.100  37.808  45.189  0.00  0.00     0.274 HD
ENDBRANCH   3   5
BRANCH   3   9
ATOM      9  C6  BES d   1     -12.335  38.954  44.295  0.00  0.00    -0.012 C 
ATOM     10  H5  BES d   1     -12.324  38.478  45.287  0.00  0.00     0.043 H 
ATOM     11  H6  BES d   1     -13.046  38.426  43.643  0.00  0.00     0.043 H 
BRANCH   9  12
ATOM     12  C7  BES d   1     -12.773  40.392  44.441  0.00  0.00    -0.056 A 
ATOM     13  C8  BES d   1     -13.299  41.077  43.353  0.00  0.00    -0.077 A 
ATOM     14  C9  BES d   1     -13.701  42.404  43.497  0.00  0.00    -0.082 A 
ATOM     15  H7  BES d   1     -13.397  40.581  42.394  0.00  0.00     0.084 H 
ATOM     16  C10 BES d   1     -13.582  43.054  44.723  0.00  0.00    -0.083 A 
ATOM     17  H9  BES d   1     -14.111  42.936  42.646  0.00  0.00     0.083 H 
ATOM     18  C11 BES d   1     -13.054  42.365  45.812  0.00  0.00    -0.082 A 
ATOM     19  H11 BES d   1     -13.897  44.086  44.828  0.00  0.00     0.083 H 
ATOM     20  C12 BES d   1     -12.655  41.036  45.670  0.00  0.00    -0.077 A 
ATOM     21  H10 BES d   1     -12.953  42.862  46.770  0.00  0.00     0.083 H 
ATOM     22  H8  BES d   1     -12.251  40.501  46.522  0.00  0.00     0.084 H 
ENDBRANCH   9  12
ENDBRANCH   3   9
ENDBRANCH   1   3
BRANCH   1  23
ATOM     23  O2  BES d   1      -9.503  37.215  42.719  0.00  0.00    -0.384 OA
ATOM     24  H13 BES d   1      -9.278  36.925  43.595  0.00  0.00     0.210 HD
ENDBRANCH   1  23
BRANCH   1  25
ATOM     25  C3  BES d   1     -11.253  38.188  41.346  0.00  0.00     0.249 C 
ATOM     26  O3  BES d   1     -10.606  39.044  40.793  0.00  0.00    -0.271 OA
ATOM     27  N1  BES d   1     -12.332  37.656  40.786  0.00  0.00    -0.344 N 
ATOM     28  H14 BES d   1     -12.768  36.872  41.228  0.00  0.00     0.163 HD
BRANCH  27  29
ATOM     29  C4  BES d   1     -12.901  38.171  39.557  0.00  0.00     0.096 C 
ATOM     30  H15 BES d   1     -12.329  39.065  39.267  0.00  0.00     0.089 H 
BRANCH  29  31
ATOM     31  C13 BES d   1     -12.763  37.141  38.439  0.00  0.00    -0.034 C 
ATOM     32  H16 BES d   1     -13.556  37.317  37.698  0.00  0.00     0.037 H 
ATOM     33  H17 BES d   1     -12.880  36.136  38.870  0.00  0.00     0.037 H 
BRANCH  31  34
ATOM     34  C14 BES d   1     -11.409  37.218  37.735  0.00  0.00    -0.059 C 
ATOM     35  H18 BES d   1     -10.627  37.093  38.499  0.00  0.00     0.038 H 
BRANCH  34  36
ATOM     36  C15 BES d   1     -11.270  36.093  36.720  0.00  0.00    -0.073 C 
ATOM     37  H19 BES d   1     -10.291  36.165  36.224  0.00  0.00     0.028 H 
ATOM     38  H20 BES d   1     -12.068  36.177  35.968  0.00  0.00     0.028 H 
ATOM     39  H21 BES d   1     -11.350  35.124  37.234  0.00  0.00     0.028 H 
ENDBRANCH  34  36
BRANCH  34  40
ATOM     40  C16 BES d   1     -11.181  38.558  37.045  0.00  0.00    -0.073 C 
ATOM     41  H22 BES d   1     -11.282  39.370  37.780  0.00  0.00     0.028 H 
ATOM     42  H23 BES d   1     -11.926  38.691  36.247  0.00  0.00     0.028 H 
ATOM     43  H24 BES d   1     -10.171  38.580  36.611  0.00  0.00     0.028 H 
ENDBRANCH  34  40
ENDBRANCH  31  34
ENDBRANCH  29  31
BRANCH  29  44
ATOM     44  C5  BES d   1     -14.330  38.584  39.746  0.00  0.00     0.196 C 
ATOM     45  O1  BES d   1     -14.839  38.416  40.873  0.00  0.00    -0.646 OA
ATOM     46  O4  BES d   1     -14.957  39.087  38.785  0.00  0.00    -0.646 OA
ENDBRANCH  29  44
ENDBRANCH  27  29
ENDBRANCH   1  25
TORSDOF 12
