REMARK  9 active torsions:
REMARK  status: ('A' for Active; 'I' for Inactive)
REMARK    1  A    between atoms: C62_5  and  C61_6 
REMARK    2  A    between atoms: C61_6  and  N6_7 
REMARK    3  A    between atoms: N6_7  and  C6_8 
REMARK    4  A    between atoms: N9_16  and  C1'_17 
REMARK    5  A    between atoms: C2'_19  and  O2'_20 
REMARK    6  A    between atoms: C3'_21  and  O3'_22 
REMARK    7  A    between atoms: C4'_23  and  C5'_24 
REMARK    8  A    between atoms: C5'_24  and  O5'_25 
REMARK    9  A    between atoms: O5'_25  and  PA_26 
ROOT
ATOM      1  C6  6K6 d   1       4.789  -5.434  41.101  0.00  0.00     0.158 A 
ATOM      2  N1  6K6 d   1       5.845  -6.117  40.601  0.00  0.00    -0.222 NA
ATOM      3  C2  6K6 d   1       6.694  -5.567  39.747  0.00  0.00     0.091 A 
ATOM      4  N3  6K6 d   1       6.545  -4.317  39.351  0.00  0.00    -0.222 NA
ATOM      5  C4  6K6 d   1       5.519  -3.573  39.811  0.00  0.00     0.167 A 
ATOM      6  C5  6K6 d   1       4.603  -4.121  40.701  0.00  0.00     0.149 A 
ATOM      7  N7  6K6 d   1       3.707  -3.184  40.989  0.00  0.00    -0.236 NA
ATOM      8  C8  6K6 d   1       4.035  -2.085  40.304  0.00  0.00     0.071 A 
ATOM      9  N9  6K6 d   1       5.141  -2.316  39.575  0.00  0.00    -0.294 N 
ATOM     10  H   6K6 d   1       7.524  -6.152  39.367  0.00  0.00     0.146 H 
ATOM     11  H   6K6 d   1       3.489  -1.143  40.332  0.00  0.00     0.144 H 
ENDROOT
BRANCH   9  12
ATOM     12  C1' 6K6 d   1       5.843  -1.361  38.664  0.00  0.00     0.139 C 
ATOM     13  O4' 6K6 d   1       5.048  -0.144  38.588  0.00  0.00    -0.353 OA
ATOM     14  C4' 6K6 d   1       5.141   0.358  37.269  0.00  0.00     0.089 C 
ATOM     15  C3' 6K6 d   1       5.257  -0.855  36.357  0.00  0.00     0.091 C 
ATOM     16  H   6K6 d   1       5.962   1.081  37.159  0.00  0.00     0.090 H 
ATOM     17  C2' 6K6 d   1       6.025  -1.854  37.207  0.00  0.00     0.105 C 
ATOM     18  H   6K6 d   1       4.273  -1.247  36.059  0.00  0.00     0.091 H 
ATOM     19  H   6K6 d   1       5.635  -2.875  37.079  0.00  0.00     0.093 H 
ATOM     20  H   6K6 d   1       6.834  -1.141  39.089  0.00  0.00     0.122 H 
BRANCH  14  21
ATOM     21  C5' 6K6 d   1       3.808   0.902  36.830  0.00  0.00     0.059 C 
ATOM     22  H   6K6 d   1       3.110   0.057  36.742  0.00  0.00     0.079 H 
ATOM     23  H   6K6 d   1       3.942   1.371  35.844  0.00  0.00     0.079 H 
BRANCH  21  24
ATOM     24  O5' 6K6 d   1       3.216   1.874  37.705  0.00  0.00    -0.280 OA
BRANCH  24  25
ATOM     25  PA  6K6 d   1       1.579   1.709  37.627  0.00  0.00     0.422 P 
ATOM     26  O2  6K6 d   1       0.857   1.348  38.980  0.00  0.00    -0.617 OA
ATOM     27  O3  6K6 d   1       0.805   2.534  36.441  0.00  0.00    -0.617 OA
ATOM     28  O1  6K6 d   1       1.546   3.065  38.223  0.00  0.00    -0.617 OA
ENDBRANCH  24  25
ENDBRANCH  21  24
ENDBRANCH  14  21
BRANCH  15  29
ATOM     29  O3' 6K6 d   1       6.020  -0.477  35.205  0.00  0.00    -0.390 OA
ATOM     30  H   6K6 d   1       6.837  -0.080  35.484  0.00  0.00     0.210 HD
ENDBRANCH  15  29
BRANCH  17  31
ATOM     31  O2' 6K6 d   1       7.411  -1.797  36.847  0.00  0.00    -0.388 OA
ATOM     32  H   6K6 d   1       7.518  -2.100  35.953  0.00  0.00     0.210 HD
ENDBRANCH  17  31
ENDBRANCH   9  12
BRANCH   1  33
ATOM     33  N6  6K6 d   1       3.939  -5.998  41.948  0.00  0.00    -0.367 N 
ATOM     34  H   6K6 d   1       3.212  -5.416  42.387  0.00  0.00     0.161 HD
BRANCH  33  35
ATOM     35  C61 6K6 d   1       4.003  -7.431  42.280  0.00  0.00     0.038 C 
ATOM     36  H   6K6 d   1       2.989  -7.839  42.400  0.00  0.00     0.074 H 
ATOM     37  H   6K6 d   1       4.529  -7.982  41.487  0.00  0.00     0.074 H 
BRANCH  35  38
ATOM     38  C62 6K6 d   1       4.772  -7.535  43.594  0.00  0.00     0.070 A 
ATOM     39  C66 6K6 d   1       4.301  -7.615  44.833  0.00  0.00    -0.051 A 
ATOM     40  C65 6K6 d   1       5.340  -7.677  45.668  0.00  0.00    -0.059 A 
ATOM     41  H   6K6 d   1       3.250  -7.628  45.118  0.00  0.00     0.087 H 
ATOM     42  C64 6K6 d   1       6.470  -7.628  44.965  0.00  0.00     0.019 A 
ATOM     43  H   6K6 d   1       5.274  -7.755  46.752  0.00  0.00     0.086 H 
ATOM     44  O63 6K6 d   1       6.134  -7.540  43.640  0.00  0.00    -0.325 OA
ATOM     45  H   6K6 d   1       7.480  -7.653  45.371  0.00  0.00     0.123 H 
ENDBRANCH  35  38
ENDBRANCH  33  35
ENDBRANCH   1  33
TORSDOF 9
