REMARK  5 active torsions:
REMARK  status: ('A' for Active; 'I' for Inactive)
REMARK    1  A    between atoms: C4_5  and  C17_22 
REMARK    2  A    between atoms: C9_12  and  N1_10 
REMARK    3  A    between atoms: C10_13  and  C9_12 
REMARK    4  A    between atoms: C15_18  and  C19_26 
REMARK    5  A    between atoms: C17_22  and  C18_23 
ROOT
ATOM      1  C1  ZST d   1      -5.053  14.064  -0.717  0.00  0.00     0.275 A 
ATOM      2  O1  ZST d   1      -6.138  14.598  -0.728  0.00  0.00    -0.266 OA
ATOM      3  C2  ZST d   1      -4.773  12.893   0.117  0.00  0.00     0.046 A 
ATOM      4  C3  ZST d   1      -3.529  12.225   0.030  0.00  0.00     0.006 A 
ATOM      5  C4  ZST d   1      -2.526  12.810  -0.909  0.00  0.00     0.076 A 
ATOM      6  C5  ZST d   1      -5.774  12.397   0.960  0.00  0.00    -0.067 A 
ATOM      7  C6  ZST d   1      -5.556  11.238   1.686  0.00  0.00    -0.082 A 
ATOM      8  C7  ZST d   1      -4.349  10.566   1.582  0.00  0.00    -0.082 A 
ATOM      9  C8  ZST d   1      -3.335  11.055   0.764  0.00  0.00    -0.070 A 
ATOM     10  N1  ZST d   1      -3.971  14.502  -1.586  0.00  0.00    -0.228 N 
ATOM     11  N2  ZST d   1      -2.735  13.855  -1.645  0.00  0.00    -0.172 NA
ATOM     12  H1  ZST d   1      -6.720  12.920   1.045  0.00  0.00     0.085 H 
ATOM     13  H2  ZST d   1      -6.333  10.855   2.338  0.00  0.00     0.083 H 
ATOM     14  H3  ZST d   1      -4.193   9.651   2.143  0.00  0.00     0.083 H 
ATOM     15  H4  ZST d   1      -2.392  10.525   0.697  0.00  0.00     0.084 H 
ENDROOT
BRANCH  10  16
ATOM     16  C9  ZST d   1      -4.175  15.657  -2.445  0.00  0.00     0.066 C 
ATOM     17  H5  ZST d   1      -5.167  15.587  -2.916  0.00  0.00     0.078 H 
ATOM     18  H6  ZST d   1      -3.399  15.669  -3.225  0.00  0.00     0.078 H 
BRANCH  16  19
ATOM     19  C10 ZST d   1      -4.095  16.925  -1.650  0.00  0.00     0.096 A 
ATOM     20  N3  ZST d   1      -5.001  17.844  -1.569  0.00  0.00    -0.243 NA
ATOM     21  C12 ZST d   1      -4.590  18.856  -0.697  0.00  0.00     0.075 A 
ATOM     22  C11 ZST d   1      -3.338  18.648  -0.106  0.00  0.00     0.035 A 
ATOM     23  C16 ZST d   1      -5.298  20.016  -0.410  0.00  0.00    -0.039 A 
ATOM     24  C13 ZST d   1      -2.802  19.564   0.794  0.00  0.00    -0.063 A 
ATOM     25  S1  ZST d   1      -2.654  17.173  -0.691  0.00  0.00    -0.071 SA
ATOM     26  C14 ZST d   1      -3.523  20.711   1.072  0.00  0.00    -0.067 A 
ATOM     27  H7  ZST d   1      -1.843  19.383   1.266  0.00  0.00     0.085 H 
ATOM     28  C15 ZST d   1      -4.754  20.946   0.474  0.00  0.00     0.050 A 
ATOM     29  H8  ZST d   1      -3.121  21.438   1.768  0.00  0.00     0.084 H 
ATOM     30  H9  ZST d   1      -6.263  20.196  -0.869  0.00  0.00     0.088 H 
BRANCH  28  31
ATOM     31  C19 ZST d   1      -5.490  22.196   0.779  0.00  0.00     0.417 C 
ATOM     32  F1  ZST d   1      -6.558  21.962   1.540  0.00  0.00    -0.166 F 
ATOM     33  F2  ZST d   1      -4.706  22.982   1.437  0.00  0.00    -0.166 F 
ATOM     34  F3  ZST d   1      -5.890  22.908  -0.321  0.00  0.00    -0.166 F 
ENDBRANCH  28  31
ENDBRANCH  16  19
ENDBRANCH  10  16
BRANCH   5  35
ATOM     35  C17 ZST d   1      -1.139  12.214  -1.016  0.00  0.00     0.058 C 
ATOM     36  H10 ZST d   1      -0.598  12.737  -1.818  0.00  0.00     0.058 H 
ATOM     37  H11 ZST d   1      -1.238  11.149  -1.274  0.00  0.00     0.058 H 
BRANCH  35  38
ATOM     38  C18 ZST d   1      -0.328  12.322   0.253  0.00  0.00     0.178 C 
ATOM     39  O2  ZST d   1      -0.825  13.135   1.152  0.00  0.00    -0.648 OA
ATOM     40  O3  ZST d   1       0.694  11.685   0.436  0.00  0.00    -0.648 OA
ENDBRANCH  35  38
ENDBRANCH   5  35
TORSDOF 5
