REMARK  6 active torsions:
REMARK  status: ('A' for Active; 'I' for Inactive)
REMARK    1  A    between atoms: C3_4  and  O_21 
REMARK    2  A    between atoms: O_21  and  C6_7 
REMARK    3  A    between atoms: C7_8  and  C17_18 
REMARK    4  A    between atoms: C8_9  and  C16_17 
REMARK    5  A    between atoms: C9_10  and  C10_11 
REMARK       I    between atoms: C9_10  and  N_20 
REMARK    6  A    between atoms: C17_18  and  C18_19 
ROOT
ATOM      1  C   IMN d   1      20.601  13.964  61.047  0.00  0.00     0.053 A 
ATOM      2  C1  IMN d   1      20.586  15.139  60.282  0.00  0.00     0.003 A 
ATOM      3  C2  IMN d   1      20.487  15.043  58.897  0.00  0.00    -0.038 A 
ATOM      4  C3  IMN d   1      20.409  13.789  58.305  0.00  0.00     0.069 A 
ATOM      5  C4  IMN d   1      20.435  12.631  59.070  0.00  0.00    -0.049 A 
ATOM      6  C5  IMN d   1      20.532  12.713  60.447  0.00  0.00    -0.053 A 
ATOM      7  C7  IMN d   1      20.668  16.244  61.197  0.00  0.00    -0.013 A 
ATOM      8  C8  IMN d   1      20.710  15.753  62.457  0.00  0.00     0.024 A 
ATOM      9  C9  IMN d   1      20.779  13.460  63.528  0.00  0.00     0.263 C 
ATOM     10  N   IMN d   1      20.682  14.351  62.410  0.00  0.00    -0.281 N 
ATOM     11  O1  IMN d   1      21.592  13.668  64.408  0.00  0.00    -0.267 OA
ATOM     12  H1  IMN d   1      20.471  15.938  58.286  0.00  0.00     0.089 H 
ATOM     13  H2  IMN d   1      20.379  11.662  58.588  0.00  0.00     0.087 H 
ATOM     14  H3  IMN d   1      20.554  11.813  61.050  0.00  0.00     0.087 H 
ENDROOT
BRANCH   8  15
ATOM     15  C16 IMN d   1      20.754  16.511  63.739  0.00  0.00    -0.036 C 
ATOM     16  H11 IMN d   1      20.770  17.590  63.526  0.00  0.00     0.035 H 
ATOM     17  H12 IMN d   1      21.660  16.234  64.298  0.00  0.00     0.035 H 
ATOM     18  H13 IMN d   1      19.865  16.268  64.339  0.00  0.00     0.035 H 
ENDBRANCH   8  15
BRANCH   9  19
ATOM     19  C10 IMN d   1      19.885  12.261  63.598  0.00  0.00     0.033 A 
ATOM     20  C11 IMN d   1      20.325  11.146  64.300  0.00  0.00    -0.066 A 
ATOM     21  C12 IMN d   1      19.544  10.011  64.389  0.00  0.00    -0.061 A 
ATOM     22  H7  IMN d   1      21.294  11.167  64.784  0.00  0.00     0.085 H 
ATOM     23  C13 IMN d   1      18.319   9.984  63.759  0.00  0.00     0.034 A 
ATOM     24  H8  IMN d   1      19.891   9.150  64.949  0.00  0.00     0.086 H 
ATOM     25  C14 IMN d   1      17.848  11.083  63.072  0.00  0.00    -0.061 A 
ATOM     26 CL   IMN d   1      17.384   8.514  63.774  0.00  0.00    -0.084 Cl
ATOM     27  C15 IMN d   1      18.631  12.219  62.995  0.00  0.00    -0.066 A 
ATOM     28  H9  IMN d   1      16.874  11.056  62.597  0.00  0.00     0.086 H 
ATOM     29  H10 IMN d   1      18.265  13.087  62.459  0.00  0.00     0.085 H 
ENDBRANCH   9  19
BRANCH   7  30
ATOM     30  C17 IMN d   1      20.738  17.694  60.797  0.00  0.00     0.042 C 
ATOM     31  H14 IMN d   1      21.592  17.840  60.119  0.00  0.00     0.056 H 
ATOM     32  H15 IMN d   1      20.876  18.310  61.698  0.00  0.00     0.056 H 
BRANCH  30  33
ATOM     33  C18 IMN d   1      19.475  18.120  60.098  0.00  0.00     0.177 C 
ATOM     34  O2  IMN d   1      19.455  18.750  59.070  0.00  0.00    -0.648 OA
ATOM     35  O3  IMN d   1      18.406  17.731  60.702  0.00  0.00    -0.648 OA
ENDBRANCH  30  33
ENDBRANCH   7  30
BRANCH   4  36
ATOM     36  O   IMN d   1      20.300  13.719  56.941  0.00  0.00    -0.356 OA
BRANCH  36  37
ATOM     37  C6  IMN d   1      20.214  12.424  56.357  0.00  0.00     0.010 C 
ATOM     38  H4  IMN d   1      20.131  12.519  55.264  0.00  0.00     0.066 H 
ATOM     39  H5  IMN d   1      19.327  11.904  56.748  0.00  0.00     0.066 H 
ATOM     40  H6  IMN d   1      21.117  11.848  56.608  0.00  0.00     0.066 H 
ENDBRANCH  36  37
ENDBRANCH   4  36
TORSDOF 6
