REMARK  6 active torsions:
REMARK  status: ('A' for Active; 'I' for Inactive)
REMARK    1  A    between atoms: C01_1  and  C02_2 
REMARK    2  A    between atoms: C8_16  and  C01_1 
REMARK    3  A    between atoms: C1_3  and  C7_15 
REMARK    4  A    between atoms: S1_6  and  N1_4 
REMARK    5  A    between atoms: N1_4  and  C2_7 
REMARK    6  A    between atoms: S1_6  and  C8_16 
ROOT
ATOM      1  N1  4A1 d   1      79.073   4.818  30.147  0.00  0.00    -0.284 N 
ATOM      2  H   4A1 d   1      79.520   4.042  29.703  0.00  0.00     0.178 HD
ENDROOT
BRANCH   1   3
ATOM      3  S1  4A1 d   1      78.506   4.528  31.645  0.00  0.00     0.231 S 
ATOM      4  O3  4A1 d   1      77.216   5.094  31.619  0.00  0.00    -0.206 OA
ATOM      5  O4  4A1 d   1      78.719   3.147  31.862  0.00  0.00    -0.206 OA
BRANCH   3   6
ATOM      6  C8  4A1 d   1      79.567   5.424  32.698  0.00  0.00     0.046 C 
ATOM      7  H   4A1 d   1      80.177   6.112  32.094  0.00  0.00     0.058 H 
ATOM      8  H   4A1 d   1      78.962   6.001  33.413  0.00  0.00     0.058 H 
BRANCH   6   9
ATOM      9  C01 4A1 d   1      80.497   4.473  33.475  0.00  0.00    -0.055 C 
ATOM     10  H   4A1 d   1      79.903   3.677  33.949  0.00  0.00     0.033 H 
ATOM     11  H   4A1 d   1      81.228   4.024  32.787  0.00  0.00     0.033 H 
BRANCH   9  12
ATOM     12  C02 4A1 d   1      81.230   5.286  34.554  0.00  0.00    -0.076 C 
ATOM     13  H   4A1 d   1      81.900   4.623  35.121  0.00  0.00     0.027 H 
ATOM     14  H   4A1 d   1      80.495   5.735  35.238  0.00  0.00     0.027 H 
ATOM     15  H   4A1 d   1      81.820   6.082  34.076  0.00  0.00     0.027 H 
ENDBRANCH   9  12
ENDBRANCH   6   9
ENDBRANCH   3   6
ENDBRANCH   1   3
BRANCH   1  16
ATOM     16  C2  4A1 d   1      79.027   5.994  29.389  0.00  0.00     0.059 A 
ATOM     17  C1  4A1 d   1      78.976   5.833  28.007  0.00  0.00     0.068 A 
ATOM     18  C6  4A1 d   1      78.946   6.956  27.197  0.00  0.00    -0.064 A 
ATOM     19  C5  4A1 d   1      78.968   8.209  27.720  0.00  0.00    -0.082 A 
ATOM     20  H   4A1 d   1      78.904   6.832  26.121  0.00  0.00     0.085 H 
ATOM     21  C4  4A1 d   1      79.027   8.356  29.089  0.00  0.00    -0.081 A 
ATOM     22  H   4A1 d   1      78.940   9.078  27.072  0.00  0.00     0.083 H 
ATOM     23  C3  4A1 d   1      79.054   7.269  29.911  0.00  0.00    -0.056 A 
ATOM     24  H   4A1 d   1      79.052   9.351  29.518  0.00  0.00     0.083 H 
ATOM     25  H   4A1 d   1      79.097   7.409  30.985  0.00  0.00     0.087 H 
BRANCH  17  26
ATOM     26  C7  4A1 d   1      78.934   4.474  27.437  0.00  0.00     0.211 C 
ATOM     27  O1  4A1 d   1      78.544   3.498  28.071  0.00  0.00    -0.644 OA
ATOM     28  O2  4A1 d   1      79.326   4.424  26.191  0.00  0.00    -0.644 OA
ENDBRANCH  17  26
ENDBRANCH   1  16
TORSDOF 6
