REMARK  5 active torsions:
REMARK  status: ('A' for Active; 'I' for Inactive)
REMARK    1  A    between atoms: C01_1  and  C02_2 
REMARK    2  A    between atoms: C06_6  and  C13_13 
REMARK       I    between atoms: N07_7  and  C08_8 
REMARK    3  A    between atoms: C08_8  and  C10_10 
REMARK    4  A    between atoms: C10_10  and  C11_11 
REMARK    5  A    between atoms: C11_11  and  S12_12 
ROOT
ATOM      1  C02 ZB6 d   1      78.689   8.018  28.617  0.00  0.00     0.012 C 
ATOM      2  C03 ZB6 d   1      79.705   8.771  27.832  0.00  0.00    -0.046 C 
ATOM      3  C04 ZB6 d   1      80.491   7.863  26.915  0.00  0.00    -0.061 C 
ATOM      4  C05 ZB6 d   1      81.033   6.659  27.658  0.00  0.00    -0.036 C 
ATOM      5  C06 ZB6 d   1      79.997   5.944  28.467  0.00  0.00     0.099 C 
ATOM      6  N07 ZB6 d   1      79.219   6.856  29.234  0.00  0.00    -0.333 N 
ATOM      7  C08 ZB6 d   1      78.924   6.715  30.649  0.00  0.00     0.221 C 
ATOM      8  O09 ZB6 d   1      78.249   7.591  31.160  0.00  0.00    -0.273 OA
ATOM      9  H   ZB6 d   1      78.339   8.678  29.425  0.00  0.00     0.072 H 
ATOM     10  H   ZB6 d   1      80.400   9.262  28.528  0.00  0.00     0.035 H 
ATOM     11  H   ZB6 d   1      79.194   9.533  27.226  0.00  0.00     0.035 H 
ATOM     12  H   ZB6 d   1      81.332   8.428  26.488  0.00  0.00     0.033 H 
ATOM     13  H   ZB6 d   1      79.833   7.516  26.105  0.00  0.00     0.033 H 
ATOM     14  H   ZB6 d   1      81.832   6.997  28.335  0.00  0.00     0.036 H 
ATOM     15  H   ZB6 d   1      81.449   5.954  26.923  0.00  0.00     0.036 H 
ATOM     16  H   ZB6 d   1      80.537   5.324  29.198  0.00  0.00     0.089 H 
ENDROOT
BRANCH   1  17
ATOM     17  C01 ZB6 d   1      77.519   7.714  27.745  0.00  0.00    -0.057 C 
ATOM     18  H   ZB6 d   1      77.147   8.645  27.292  0.00  0.00     0.030 H 
ATOM     19  H   ZB6 d   1      76.721   7.256  28.348  0.00  0.00     0.030 H 
ATOM     20  H   ZB6 d   1      77.825   7.017  26.951  0.00  0.00     0.030 H 
ENDBRANCH   1  17
BRANCH   5  21
ATOM     21  C13 ZB6 d   1      79.224   4.987  27.606  0.00  0.00     0.197 C 
ATOM     22  O14 ZB6 d   1      79.564   4.849  26.396  0.00  0.00    -0.646 OA
ATOM     23  O15 ZB6 d   1      78.232   4.334  28.080  0.00  0.00    -0.646 OA
ENDBRANCH   5  21
BRANCH   7  24
ATOM     24  C10 ZB6 d   1      79.374   5.600  31.539  0.00  0.00     0.017 C 
ATOM     25  H   ZB6 d   1      80.278   5.162  31.092  0.00  0.00     0.048 H 
ATOM     26  H   ZB6 d   1      78.573   4.846  31.559  0.00  0.00     0.048 H 
BRANCH  24  27
ATOM     27  C11 ZB6 d   1      79.696   5.955  32.953  0.00  0.00    -0.018 C 
ATOM     28  H   ZB6 d   1      78.748   6.020  33.507  0.00  0.00     0.049 H 
ATOM     29  H   ZB6 d   1      80.187   6.939  32.949  0.00  0.00     0.049 H 
BRANCH  27  30
ATOM     30  S12 ZB6 d   1      80.750   4.830  33.817  0.00  0.00    -0.182 SA
ATOM     31  H   ZB6 d   1      80.900   5.165  34.756  0.00  0.00     0.101 HD
ENDBRANCH  27  30
ENDBRANCH  24  27
ENDBRANCH   7  24
TORSDOF 5
