REMARK  4 active torsions:
REMARK  status: ('A' for Active; 'I' for Inactive)
REMARK    1  A    between atoms: C01_1  and  C02_2 
REMARK    2  A    between atoms: C02_2  and  C03_3 
REMARK    3  A    between atoms: C04_4  and  C05_5 
REMARK    4  A    between atoms: C08_8  and  C09_9 
ROOT
ATOM      1  C02 1U5 d   1      24.680   7.496  15.971  0.00  0.00     0.011 C 
ATOM      2  C04 1U5 d   1      24.277   7.594  14.413  0.00  0.00     0.055 C 
ATOM      3  C06 1U5 d   1      22.774   7.296  14.452  0.00  0.00    -0.045 C 
ATOM      4  C07 1U5 d   1      22.647   6.213  15.597  0.00  0.00    -0.024 C 
ATOM      5  C08 1U5 d   1      24.100   6.040  16.070  0.00  0.00     0.166 C 
ATOM      6  O12 1U5 d   1      24.776   5.378  14.982  0.00  0.00    -0.297 OA
ATOM      7  C13 1U5 d   1      24.914   6.290  13.969  0.00  0.00     0.269 C 
ATOM      8  O14 1U5 d   1      25.417   5.964  12.925  0.00  0.00    -0.264 OA
ATOM      9  H   1U5 d   1      22.427   6.894  13.489  0.00  0.00     0.035 H 
ATOM     10  H   1U5 d   1      22.199   8.201  14.700  0.00  0.00     0.035 H 
ATOM     11  H   1U5 d   1      22.244   5.268  15.205  0.00  0.00     0.038 H 
ATOM     12  H   1U5 d   1      22.005   6.574  16.414  0.00  0.00     0.038 H 
ENDROOT
BRANCH   1  13
ATOM     13  C01 1U5 d   1      26.198   7.491  16.179  0.00  0.00    -0.065 C 
ATOM     14  H   1U5 d   1      26.581   8.519  16.105  0.00  0.00     0.028 H 
ATOM     15  H   1U5 d   1      26.672   6.867  15.407  0.00  0.00     0.028 H 
ATOM     16  H   1U5 d   1      26.430   7.083  17.174  0.00  0.00     0.028 H 
ENDBRANCH   1  13
BRANCH   1  17
ATOM     17  C03 1U5 d   1      23.981   8.543  16.847  0.00  0.00    -0.065 C 
ATOM     18  H   1U5 d   1      24.462   9.522  16.703  0.00  0.00     0.028 H 
ATOM     19  H   1U5 d   1      24.059   8.248  17.904  0.00  0.00     0.028 H 
ATOM     20  H   1U5 d   1      22.921   8.610  16.562  0.00  0.00     0.028 H 
ENDBRANCH   1  17
BRANCH   2  21
ATOM     21  C05 1U5 d   1      24.755   8.804  13.677  0.00  0.00    -0.059 C 
ATOM     22  H   1U5 d   1      24.418   8.754  12.631  0.00  0.00     0.029 H 
ATOM     23  H   1U5 d   1      25.854   8.841  13.707  0.00  0.00     0.029 H 
ATOM     24  H   1U5 d   1      24.345   9.708  14.152  0.00  0.00     0.029 H 
ENDBRANCH   2  21
BRANCH   5  25
ATOM     25  C09 1U5 d   1      24.363   5.309  17.404  0.00  0.00     0.210 C 
ATOM     26  O10 1U5 d   1      23.660   5.638  18.376  0.00  0.00    -0.646 OA
ATOM     27  O11 1U5 d   1      25.249   4.430  17.400  0.00  0.00    -0.646 OA
ENDBRANCH   5  25
TORSDOF 4
