REMARK  2 active torsions:
REMARK  status: ('A' for Active; 'I' for Inactive)
REMARK    1  A    between atoms: C9_9  and  C10_11 
REMARK    2  A    between atoms: C13_14  and  O4_18 
ROOT
ATOM      1  C1  DFL d   1      -4.704  34.816 -15.472  0.00  0.00    -0.080 A 
ATOM      2  C2  DFL d   1      -5.430  35.534 -16.432  0.00  0.00    -0.082 A 
ATOM      3  C3  DFL d   1      -6.317  36.530 -16.018  0.00  0.00    -0.066 A 
ATOM      4  C4  DFL d   1      -6.508  36.796 -14.660  0.00  0.00     0.048 A 
ATOM      5  C5  DFL d   1      -5.745  36.099 -13.717  0.00  0.00     0.090 A 
ATOM      6  C6  DFL d   1      -4.866  35.091 -14.100  0.00  0.00    -0.049 A 
ATOM      7  C7  DFL d   1      -7.394  37.807 -14.221  0.00  0.00     0.187 A 
ATOM      8  C8  DFL d   1      -7.404  38.162 -12.875  0.00  0.00    -0.000 A 
ATOM      9  C9  DFL d   1      -6.621  37.490 -11.948  0.00  0.00     0.090 A 
ATOM     10  O1  DFL d   1      -5.874  36.419 -12.378  0.00  0.00    -0.309 OA
ATOM     11  O2  DFL d   1      -8.194  38.375 -14.990  0.00  0.00    -0.287 OA
ATOM     12  H1  DFL d   1      -4.013  34.043 -15.788  0.00  0.00     0.083 H 
ATOM     13  H2  DFL d   1      -5.304  35.318 -17.487  0.00  0.00     0.083 H 
ATOM     14  H3  DFL d   1      -6.863  37.103 -16.759  0.00  0.00     0.085 H 
ATOM     15  H4  DFL d   1      -4.315  34.527 -13.356  0.00  0.00     0.087 H 
ATOM     16  H5  DFL d   1      -8.039  38.983 -12.544  0.00  0.00     0.094 H 
ENDROOT
BRANCH   9  17
ATOM     17  C10 DFL d   1      -6.589  37.758 -10.524  0.00  0.00    -0.002 A 
ATOM     18  C11 DFL d   1      -7.392  38.729  -9.906  0.00  0.00    -0.068 A 
ATOM     19  C12 DFL d   1      -7.355  38.994  -8.540  0.00  0.00    -0.050 A 
ATOM     20  H6  DFL d   1      -8.075  39.301 -10.523  0.00  0.00     0.085 H 
ATOM     21  C13 DFL d   1      -6.491  38.229  -7.753  0.00  0.00     0.065 A 
ATOM     22  H7  DFL d   1      -7.975  39.767  -8.102  0.00  0.00     0.087 H 
ATOM     23  C14 DFL d   1      -5.695  37.235  -8.319  0.00  0.00    -0.050 A 
ATOM     24  C15 DFL d   1      -5.736  37.006  -9.693  0.00  0.00    -0.068 A 
ATOM     25  H8  DFL d   1      -5.043  36.639  -7.690  0.00  0.00     0.087 H 
ATOM     26  H9  DFL d   1      -5.104  36.240 -10.127  0.00  0.00     0.085 H 
BRANCH  21  27
ATOM     27  O4  DFL d   1      -6.425  38.428  -6.429  0.00  0.00    -0.361 OA
ATOM     28  H10 DFL d   1      -7.017  39.130  -6.186  0.00  0.00     0.217 HD
ENDBRANCH  21  27
ENDBRANCH   9  17
TORSDOF 2
