REMARK  4 active torsions:
REMARK  status: ('A' for Active; 'I' for Inactive)
REMARK    1  A    between atoms: C7_9  and  S16_11 
REMARK    2  A    between atoms: S16_11  and  C8_12 
REMARK    3  A    between atoms: C8_12  and  C9_13 
REMARK    4  A    between atoms: C14_16  and  C15_17 
ROOT
ATOM      1  S16 1UA d   1     -21.090 -13.165  11.765  0.00  0.00    -0.087 SA
ENDROOT
BRANCH   1   2
ATOM      2  C7  1UA d   1     -22.677 -13.491  12.401  0.00  0.00     0.169 A 
ATOM      3  N19 1UA d   1     -23.565 -14.200  11.613  0.00  0.00    -0.302 N 
ATOM      4  C6  1UA d   1     -24.832 -14.466  12.103  0.00  0.00     0.255 A 
ATOM      5  H   1UA d   1     -23.296 -14.516  10.703  0.00  0.00     0.171 HD
ATOM      6  O17 1UA d   1     -25.623 -15.088  11.403  0.00  0.00    -0.268 OA
ATOM      7  C5  1UA d   1     -25.172 -14.045  13.318  0.00  0.00     0.035 A 
ATOM      8  C4  1UA d   1     -24.295 -13.363  14.071  0.00  0.00     0.049 A 
ATOM      9  C3  1UA d   1     -26.374 -14.203  13.997  0.00  0.00    -0.034 C 
ATOM     10  C2  1UA d   1     -24.870 -13.031  15.293  0.00  0.00    -0.024 C 
ATOM     11  N18 1UA d   1     -23.062 -13.092  13.613  0.00  0.00    -0.228 NA
ATOM     12  C1  1UA d   1     -26.341 -13.149  15.055  0.00  0.00    -0.056 C 
ATOM     13  H   1UA d   1     -24.604 -12.004  15.582  0.00  0.00     0.042 H 
ATOM     14  H   1UA d   1     -24.546 -13.729  16.079  0.00  0.00     0.042 H 
ATOM     15  H   1UA d   1     -26.769 -12.202  14.695  0.00  0.00     0.034 H 
ATOM     16  H   1UA d   1     -26.873 -13.471  15.963  0.00  0.00     0.034 H 
ATOM     17  H   1UA d   1     -26.439 -15.205  14.447  0.00  0.00     0.040 H 
ATOM     18  H   1UA d   1     -27.227 -14.049  13.320  0.00  0.00     0.040 H 
ENDBRANCH   1   2
BRANCH   1  19
ATOM     19  C8  1UA d   1     -20.586 -11.577  12.518  0.00  0.00     0.008 C 
ATOM     20  H   1UA d   1     -20.420 -11.732  13.594  0.00  0.00     0.056 H 
ATOM     21  H   1UA d   1     -21.394 -10.844  12.373  0.00  0.00     0.056 H 
BRANCH  19  22
ATOM     22  C9  1UA d   1     -19.411 -11.071  11.949  0.00  0.00    -0.049 A 
ATOM     23  C11 1UA d   1     -19.469 -10.276  10.814  0.00  0.00    -0.076 A 
ATOM     24  C13 1UA d   1     -18.307  -9.772  10.246  0.00  0.00    -0.077 A 
ATOM     25  H   1UA d   1     -20.429 -10.046  10.367  0.00  0.00     0.084 H 
ATOM     26  C14 1UA d   1     -17.076 -10.066  10.813  0.00  0.00    -0.062 A 
ATOM     27  H   1UA d   1     -18.362  -9.149   9.360  0.00  0.00     0.084 H 
ATOM     28  C12 1UA d   1     -17.014 -10.864  11.948  0.00  0.00    -0.077 A 
ATOM     29  C10 1UA d   1     -18.178 -11.364  12.514  0.00  0.00    -0.076 A 
ATOM     30  H   1UA d   1     -16.053 -11.097  12.393  0.00  0.00     0.084 H 
ATOM     31  H   1UA d   1     -18.124 -11.986  13.400  0.00  0.00     0.084 H 
BRANCH  26  32
ATOM     32  C15 1UA d   1     -15.910  -9.565  10.250  0.00  0.00    -0.051 C 
ATOM     33  H   1UA d   1     -15.044  -9.905  10.837  0.00  0.00     0.033 H 
ATOM     34  H   1UA d   1     -15.945  -8.466  10.252  0.00  0.00     0.033 H 
ATOM     35  H   1UA d   1     -15.817  -9.928   9.216  0.00  0.00     0.033 H 
ENDBRANCH  26  32
ENDBRANCH  19  22
ENDBRANCH   1  19
TORSDOF 4
