REMARK  4 active torsions:
REMARK  status: ('A' for Active; 'I' for Inactive)
REMARK    1  A    between atoms: CAO_6  and  CAL_7 
REMARK    2  A    between atoms: CAL_7  and  CAP_8 
REMARK    3  A    between atoms: CAQ_13  and  CAS_14 
REMARK    4  A    between atoms: CAR_16  and  NAA_17 
ROOT
ATOM      1  CAP 1V6 d   1      13.775 -14.029  16.879  0.00  0.00    -0.054 A 
ATOM      2  CAH 1V6 d   1      13.298 -14.522  18.086  0.00  0.00    -0.076 A 
ATOM      3  CAJ 1V6 d   1      12.108 -15.229  18.238  0.00  0.00    -0.070 A 
ATOM      4  CAG 1V6 d   1      12.930 -14.214  15.804  0.00  0.00    -0.076 A 
ATOM      5  CAI 1V6 d   1      11.716 -14.908  15.967  0.00  0.00    -0.070 A 
ATOM      6  CAQ 1V6 d   1      11.284 -15.492  17.162  0.00  0.00    -0.007 A 
ATOM      7  H   1V6 d   1      13.895 -14.344  18.973  0.00  0.00     0.084 H 
ATOM      8  H   1V6 d   1      11.822 -15.581  19.223  0.00  0.00     0.084 H 
ATOM      9  H   1V6 d   1      13.202 -13.823  14.830  0.00  0.00     0.084 H 
ATOM     10  H   1V6 d   1      11.068 -14.996  15.102  0.00  0.00     0.084 H 
ENDROOT
BRANCH   1  11
ATOM     11  CAL 1V6 d   1      15.022 -13.277  16.804  0.00  0.00    -0.017 C 
ATOM     12  H   1V6 d   1      15.281 -12.986  17.833  0.00  0.00     0.047 H 
ATOM     13  H   1V6 d   1      15.786 -13.965  16.414  0.00  0.00     0.047 H 
BRANCH  11  14
ATOM     14  CAO 1V6 d   1      15.089 -12.078  16.001  0.00  0.00    -0.054 C 
ATOM     15  CAE 1V6 d   1      15.901 -11.976  14.868  0.00  0.00    -0.077 C 
ATOM     16  CAC 1V6 d   1      15.991 -10.776  14.197  0.00  0.00    -0.082 C 
ATOM     17  H   1V6 d   1      16.458 -12.838  14.518  0.00  0.00     0.084 H 
ATOM     18  CAB 1V6 d   1      15.298  -9.660  14.589  0.00  0.00    -0.083 C 
ATOM     19  H   1V6 d   1      16.634 -10.712  13.326  0.00  0.00     0.083 H 
ATOM     20  CAD 1V6 d   1      14.548  -9.747  15.774  0.00  0.00    -0.082 C 
ATOM     21  H   1V6 d   1      15.328  -8.746  14.007  0.00  0.00     0.083 H 
ATOM     22  CAF 1V6 d   1      14.530 -10.917  16.501  0.00  0.00    -0.077 C 
ATOM     23  H   1V6 d   1      13.981  -8.889  16.118  0.00  0.00     0.083 H 
ATOM     24  H   1V6 d   1      14.069 -10.927  17.482  0.00  0.00     0.084 H 
ENDBRANCH  11  14
ENDBRANCH   1  11
BRANCH   6  25
ATOM     25  CAS 1V6 d   1      10.058 -16.131  17.348  0.00  0.00     0.076 A 
ATOM     26  NAM 1V6 d   1       9.392 -16.822  16.427  0.00  0.00    -0.224 NA
ATOM     27  CAR 1V6 d   1       8.208 -17.400  16.819  0.00  0.00     0.164 A 
ATOM     28  SAN 1V6 d   1       7.784 -17.011  18.390  0.00  0.00    -0.062 SA
ATOM     29  CAK 1V6 d   1       9.382 -16.081  18.494  0.00  0.00    -0.013 A 
ATOM     30  H   1V6 d   1       9.727 -15.557  19.384  0.00  0.00     0.098 H 
BRANCH  27  31
ATOM     31  NAA 1V6 d   1       7.322 -18.092  16.107  0.00  0.00    -0.378 N 
ATOM     32  H   1V6 d   1       7.536 -18.356  15.135  0.00  0.00     0.158 HD
ATOM     33  H   1V6 d   1       6.422 -18.364  16.528  0.00  0.00     0.158 HD
ENDBRANCH  27  31
ENDBRANCH   6  25
TORSDOF 4
