REMARK  11 active torsions:
REMARK  status: ('A' for Active; 'I' for Inactive)
REMARK    1  A    between atoms: O7_1  and  C7_2 
REMARK    2  A    between atoms: C6_3  and  C9_4 
REMARK    3  A    between atoms: N8_14  and  C1'_15 
REMARK    4  A    between atoms: C1'_15  and  C2'_16 
REMARK    5  A    between atoms: C2'_16  and  O2'_17 
REMARK    6  A    between atoms: C2'_16  and  C3'_18 
REMARK    7  A    between atoms: C3'_18  and  O3'_19 
REMARK    8  A    between atoms: C3'_18  and  C4'_20 
REMARK    9  A    between atoms: C4'_20  and  O4'_21 
REMARK   10  A    between atoms: C4'_20  and  C5'_22 
REMARK   11  A    between atoms: C5'_22  and  O5'_23 
ROOT
ATOM      1  C1' 1VY d   1     -89.691  65.784  96.296  0.00  0.00     0.030 C 
ATOM      2  H6  1VY d   1     -90.392  65.056  96.731  0.00  0.00     0.069 H 
ATOM      3  H7  1VY d   1     -89.362  66.488  97.075  0.00  0.00     0.069 H 
ENDROOT
BRANCH   1   4
ATOM      4  N8  1VY d   1     -90.450  66.571  95.294  0.00  0.00    -0.306 N 
ATOM      5  C7  1VY d   1     -90.085  67.855  95.085  0.00  0.00     0.169 A 
ATOM      6  C6  1VY d   1     -90.835  68.703  94.274  0.00  0.00     0.082 A 
ATOM      7  N5  1VY d   1     -91.966  68.234  93.706  0.00  0.00    -0.240 NA
ATOM      8  C4A 1VY d   1     -92.365  66.953  93.909  0.00  0.00     0.171 A 
ATOM      9  C4  1VY d   1     -93.591  66.490  93.403  0.00  0.00     0.282 A 
ATOM     10  C8A 1VY d   1     -91.601  66.106  94.722  0.00  0.00     0.172 A 
ATOM     11  O4  1VY d   1     -94.358  67.258  92.812  0.00  0.00    -0.265 OA
ATOM     12  N3  1VY d   1     -94.022  65.243  93.717  0.00  0.00    -0.272 N 
ATOM     13  C2  1VY d   1     -93.235  64.414  94.458  0.00  0.00     0.350 A 
ATOM     14  H5  1VY d   1     -94.919  64.931  93.404  0.00  0.00     0.174 HD
ATOM     15  O2  1VY d   1     -93.552  63.241  94.673  0.00  0.00    -0.244 OA
ATOM     16  N1  1VY d   1     -92.059  64.858  94.959  0.00  0.00    -0.173 NA
BRANCH   5  17
ATOM     17  O7  1VY d   1     -88.924  68.368  95.592  0.00  0.00    -0.344 OA
ATOM     18  H1  1VY d   1     -88.186  67.878  95.249  0.00  0.00     0.219 HD
ENDBRANCH   5  17
BRANCH   6  19
ATOM     19  C9  1VY d   1     -90.403  70.033  94.051  0.00  0.00    -0.031 C 
ATOM     20  H2  1VY d   1     -91.118  70.545  93.390  0.00  0.00     0.035 H 
ATOM     21  H3  1VY d   1     -89.410  70.022  93.578  0.00  0.00     0.035 H 
ATOM     22  H4  1VY d   1     -90.345  70.566  95.012  0.00  0.00     0.035 H 
ENDBRANCH   6  19
ENDBRANCH   1   4
BRANCH   1  23
ATOM     23  C2' 1VY d   1     -88.465  65.008  95.855  0.00  0.00     0.078 C 
ATOM     24  H8  1VY d   1     -87.872  64.776  96.752  0.00  0.00     0.089 H 
BRANCH  23  25
ATOM     25  O2' 1VY d   1     -87.633  65.809  94.980  0.00  0.00    -0.391 OA
ATOM     26  H9  1VY d   1     -86.873  65.303  94.717  0.00  0.00     0.210 HD
ENDBRANCH  23  25
BRANCH  23  27
ATOM     27  C3' 1VY d   1     -88.879  63.678  95.219  0.00  0.00     0.088 C 
ATOM     28  H10 1VY d   1     -89.107  63.882  94.162  0.00  0.00     0.091 H 
BRANCH  27  29
ATOM     29  O3' 1VY d   1     -90.106  63.152  95.823  0.00  0.00    -0.390 OA
ATOM     30  H11 1VY d   1     -90.811  63.777  95.700  0.00  0.00     0.210 HD
ENDBRANCH  27  29
BRANCH  27  31
ATOM     31  C4' 1VY d   1     -87.715  62.657  95.237  0.00  0.00     0.083 C 
ATOM     32  H12 1VY d   1     -86.794  63.110  94.841  0.00  0.00     0.090 H 
BRANCH  31  33
ATOM     33  O4' 1VY d   1     -88.151  61.580  94.456  0.00  0.00    -0.391 OA
ATOM     34  H13 1VY d   1     -87.473  60.915  94.429  0.00  0.00     0.210 HD
ENDBRANCH  31  33
BRANCH  31  35
ATOM     35  C5' 1VY d   1     -87.476  62.078  96.622  0.00  0.00     0.043 C 
ATOM     36  H14 1VY d   1     -87.910  61.068  96.647  0.00  0.00     0.078 H 
ATOM     37  H15 1VY d   1     -87.994  62.718  97.352  0.00  0.00     0.078 H 
BRANCH  35  38
ATOM     38  O5' 1VY d   1     -86.091  61.978  97.021  0.00  0.00    -0.398 OA
ATOM     39  H16 1VY d   1     -86.040  61.608  97.894  0.00  0.00     0.209 HD
ENDBRANCH  35  38
ENDBRANCH  31  35
ENDBRANCH  27  31
ENDBRANCH  23  27
ENDBRANCH   1  23
TORSDOF 11
