REMARK  9 active torsions:
REMARK  status: ('A' for Active; 'I' for Inactive)
REMARK    1  A    between atoms: P_2  and  O5_5 
REMARK    2  A    between atoms: O5_5  and  C5_6 
REMARK    3  A    between atoms: C5_6  and  C4_7 
REMARK    4  A    between atoms: C4_7  and  O4_8 
REMARK    5  A    between atoms: C4_7  and  C3_9 
REMARK    6  A    between atoms: C3_9  and  O3_10 
REMARK    7  A    between atoms: C3_9  and  O3'_11 
REMARK    8  A    between atoms: C3_9  and  C2_12 
REMARK    9  A    between atoms: C2_12  and  C1_14 
ROOT
ATOM      1  C4  D5X d   1     -35.533  20.570  -4.973  0.00  0.00     0.117 C 
ATOM      2  H3  D5X d   1     -35.983  19.636  -5.341  0.00  0.00     0.095 H 
ENDROOT
BRANCH   1   3
ATOM      3  C5  D5X d   1     -36.231  21.795  -5.521  0.00  0.00     0.061 C 
ATOM      4  H1  D5X d   1     -35.909  22.686  -4.961  0.00  0.00     0.079 H 
ATOM      5  H2  D5X d   1     -35.979  21.920  -6.585  0.00  0.00     0.079 H 
BRANCH   3   6
ATOM      6  O5  D5X d   1     -37.632  21.622  -5.379  0.00  0.00    -0.280 OA
BRANCH   6   7
ATOM      7  P   D5X d   1     -38.406  22.544  -4.480  0.00  0.00     0.422 P 
ATOM      8  O3P D5X d   1     -38.016  24.118  -4.532  0.00  0.00    -0.617 OA
ATOM      9  O2P D5X d   1     -39.873  22.405  -4.913  0.00  0.00    -0.617 OA
ATOM     10  O1P D5X d   1     -38.177  21.948  -3.090  0.00  0.00    -0.617 OA
ENDBRANCH   6   7
ENDBRANCH   3   6
ENDBRANCH   1   3
BRANCH   1  11
ATOM     11  O4  D5X d   1     -35.745  20.705  -3.576  0.00  0.00    -0.387 OA
ATOM     12  H4  D5X d   1     -36.678  20.712  -3.398  0.00  0.00     0.210 HD
ENDBRANCH   1  11
BRANCH   1  13
ATOM     13  C3  D5X d   1     -34.066  20.645  -5.424  0.00  0.00     0.251 C 
BRANCH  13  14
ATOM     14  O3  D5X d   1     -33.730  20.208  -6.723  0.00  0.00    -0.357 OA
ATOM     15  H5  D5X d   1     -32.959  19.654  -6.680  0.00  0.00     0.213 HD
ENDBRANCH  13  14
BRANCH  13  16
ATOM     16  O3' D5X d   1     -33.124  21.379  -4.742  0.00  0.00    -0.357 OA
ATOM     17  H6  D5X d   1     -32.924  22.169  -5.231  0.00  0.00     0.213 HD
ENDBRANCH  13  16
BRANCH  13  18
ATOM     18  C2  D5X d   1     -33.547  19.319  -4.730  0.00  0.00     0.187 C 
ATOM     19  O2  D5X d   1     -33.616  18.183  -5.240  0.00  0.00    -0.292 OA
BRANCH  18  20
ATOM     20  C1  D5X d   1     -32.817  19.458  -3.360  0.00  0.00    -0.015 C 
ATOM     21  H7  D5X d   1     -32.516  18.462  -3.002  0.00  0.00     0.037 H 
ATOM     22  H8  D5X d   1     -33.495  19.921  -2.628  0.00  0.00     0.037 H 
ATOM     23  H9  D5X d   1     -31.924  20.089  -3.482  0.00  0.00     0.037 H 
ENDBRANCH  18  20
ENDBRANCH  13  18
ENDBRANCH   1  13
TORSDOF 9
