REMARK  12 active torsions:
REMARK  status: ('A' for Active; 'I' for Inactive)
REMARK    1  A    between atoms: P_2  and  O5_5 
REMARK    2  A    between atoms: O5_5  and  C5_6 
REMARK    3  A    between atoms: C5_6  and  C4_7 
REMARK    4  A    between atoms: C4_7  and  O4_8 
REMARK    5  A    between atoms: C4_7  and  C3_9 
REMARK    6  A    between atoms: C3_9  and  O3_10 
REMARK    7  A    between atoms: C3_9  and  O3'_11 
REMARK    8  A    between atoms: C3_9  and  C2_12 
REMARK    9  A    between atoms: C2_12  and  C1_14 
REMARK   10  A    between atoms: C1_14  and  C1'_15 
REMARK   11  A    between atoms: C1'_15  and  C2'_16 
REMARK   12  A    between atoms: C1'_15  and  C22_17 
ROOT
ATOM      1  C3  D8X d   1     -38.140 -10.858  14.148  0.00  0.00     0.251 C 
ENDROOT
BRANCH   1   2
ATOM      2  C4  D8X d   1     -39.642 -10.684  13.859  0.00  0.00     0.117 C 
ATOM      3  H3  D8X d   1     -39.946  -9.675  14.173  0.00  0.00     0.095 H 
BRANCH   2   4
ATOM      4  C5  D8X d   1     -40.512 -11.696  14.551  0.00  0.00     0.061 C 
ATOM      5  H1  D8X d   1     -40.465 -12.657  14.018  0.00  0.00     0.079 H 
ATOM      6  H2  D8X d   1     -40.172 -11.835  15.588  0.00  0.00     0.079 H 
BRANCH   4   7
ATOM      7  O5  D8X d   1     -41.828 -11.207  14.541  0.00  0.00    -0.280 OA
BRANCH   7   8
ATOM      8  P   D8X d   1     -42.949 -11.831  13.523  0.00  0.00     0.422 P 
ATOM      9  O3P D8X d   1     -42.590 -11.429  12.143  0.00  0.00    -0.617 OA
ATOM     10  O1P D8X d   1     -44.280 -11.274  13.892  0.00  0.00    -0.617 OA
ATOM     11  O2P D8X d   1     -42.952 -13.406  13.612  0.00  0.00    -0.617 OA
ENDBRANCH   7   8
ENDBRANCH   4   7
ENDBRANCH   2   4
BRANCH   2  12
ATOM     12  O4  D8X d   1     -39.858 -10.845  12.479  0.00  0.00    -0.387 OA
ATOM     13  H4  D8X d   1     -40.775 -10.694  12.283  0.00  0.00     0.210 HD
ENDBRANCH   2  12
ENDBRANCH   1   2
BRANCH   1  14
ATOM     14  O3  D8X d   1     -37.649 -12.099  13.777  0.00  0.00    -0.357 OA
ATOM     15  H5  D8X d   1     -36.728 -12.154  14.003  0.00  0.00     0.213 HD
ENDBRANCH   1  14
BRANCH   1  16
ATOM     16  O3' D8X d   1     -37.965 -10.729  15.549  0.00  0.00    -0.357 OA
ATOM     17  H6  D8X d   1     -38.294  -9.884  15.832  0.00  0.00     0.213 HD
ENDBRANCH   1  16
BRANCH   1  18
ATOM     18  C2  D8X d   1     -37.299  -9.725  13.520  0.00  0.00     0.191 C 
ATOM     19  O2  D8X d   1     -37.342  -8.584  13.995  0.00  0.00    -0.292 OA
BRANCH  18  20
ATOM     20  C1  D8X d   1     -36.306 -10.075  12.464  0.00  0.00    -0.002 C 
ATOM     21  H7  D8X d   1     -36.720 -10.842  11.793  0.00  0.00     0.045 H 
ATOM     22  H8  D8X d   1     -35.380 -10.451  12.924  0.00  0.00     0.045 H 
BRANCH  20  23
ATOM     23  C1' D8X d   1     -36.022  -8.783  11.681  0.00  0.00    -0.055 C 
ATOM     24  H9  D8X d   1     -36.974  -8.389  11.296  0.00  0.00     0.039 H 
BRANCH  23  25
ATOM     25  C2' D8X d   1     -35.101  -9.115  10.513  0.00  0.00    -0.073 C 
ATOM     26  H10 D8X d   1     -34.888  -8.199   9.942  0.00  0.00     0.028 H 
ATOM     27  H11 D8X d   1     -35.591  -9.850   9.857  0.00  0.00     0.028 H 
ATOM     28  H12 D8X d   1     -34.160  -9.535  10.896  0.00  0.00     0.028 H 
ENDBRANCH  23  25
BRANCH  23  29
ATOM     29  C22 D8X d   1     -35.348  -7.688  12.554  0.00  0.00    -0.073 C 
ATOM     30  H13 D8X d   1     -36.004  -7.439  13.401  0.00  0.00     0.028 H 
ATOM     31  H14 D8X d   1     -35.178  -6.787  11.946  0.00  0.00     0.028 H 
ATOM     32  H15 D8X d   1     -34.385  -8.062  12.933  0.00  0.00     0.028 H 
ENDBRANCH  23  29
ENDBRANCH  20  23
ENDBRANCH  18  20
ENDBRANCH   1  18
TORSDOF 12
