REMARK  6 active torsions:
REMARK  status: ('A' for Active; 'I' for Inactive)
REMARK    1  A    between atoms: C1'_1  and  O1_14 
REMARK    2  A    between atoms: C2'_3  and  O2'_4 
REMARK    3  A    between atoms: C3'_5  and  O3'_6 
REMARK    4  A    between atoms: C4'_7  and  C5'_8 
REMARK    5  A    between atoms: C5'_8  and  O5'_9 
REMARK    6  A    between atoms: O5'_9  and  P'_10 
ROOT
ATOM      1  C1' HSX d   1     -34.604 -20.288  -5.880  0.00  0.00     0.156 C 
ATOM      2  O1' HSX d   1     -35.066 -21.057  -4.703  0.00  0.00    -0.349 OA
ATOM      3  C2' HSX d   1     -34.293 -18.963  -5.337  0.00  0.00     0.110 C 
ATOM      4  C3' HSX d   1     -35.466 -18.725  -4.577  0.00  0.00     0.092 C 
ATOM      5  C4' HSX d   1     -35.810 -20.154  -3.984  0.00  0.00     0.090 C 
ATOM      6  H1  HSX d   1     -35.422 -20.235  -6.613  0.00  0.00     0.133 H 
ATOM      7  H2  HSX d   1     -34.152 -18.249  -6.162  0.00  0.00     0.094 H 
ATOM      8  H4  HSX d   1     -36.314 -18.359  -5.174  0.00  0.00     0.091 H 
ATOM      9  H6  HSX d   1     -35.680 -20.204  -2.893  0.00  0.00     0.090 H 
ENDROOT
BRANCH   5  10
ATOM     10  C5' HSX d   1     -37.210 -20.600  -4.486  0.00  0.00     0.059 C 
ATOM     11  H7  HSX d   1     -37.144 -20.923  -5.535  0.00  0.00     0.079 H 
ATOM     12  H8  HSX d   1     -37.919 -19.763  -4.404  0.00  0.00     0.079 H 
BRANCH  10  13
ATOM     13  O5' HSX d   1     -37.641 -21.664  -3.690  0.00  0.00    -0.280 OA
BRANCH  13  14
ATOM     14  P'  HSX d   1     -39.141 -21.972  -3.394  0.00  0.00     0.422 P 
ATOM     15  O1X HSX d   1     -40.042 -20.694  -3.596  0.00  0.00    -0.617 OA
ATOM     16  O2X HSX d   1     -39.224 -22.381  -1.871  0.00  0.00    -0.617 OA
ATOM     17  O3X HSX d   1     -39.551 -23.133  -4.225  0.00  0.00    -0.617 OA
ENDBRANCH  13  14
ENDBRANCH  10  13
ENDBRANCH   5  10
BRANCH   4  18
ATOM     18  O3' HSX d   1     -35.011 -17.732  -3.738  0.00  0.00    -0.390 OA
ATOM     19  H5  HSX d   1     -34.728 -16.987  -4.255  0.00  0.00     0.210 HD
ENDBRANCH   4  18
BRANCH   1  20
ATOM     20  O1  HSX d   1     -33.366 -20.765  -6.586  0.00  0.00    -0.369 OA
ATOM     21  H9  HSX d   1     -33.505 -21.649  -6.905  0.00  0.00     0.212 HD
ENDBRANCH   1  20
BRANCH   3  22
ATOM     22  O2' HSX d   1     -33.230 -18.784  -4.367  0.00  0.00    -0.388 OA
ATOM     23  H3  HSX d   1     -33.172 -17.866  -4.129  0.00  0.00     0.210 HD
ENDBRANCH   3  22
TORSDOF 6
