REMARK WARNING: 32 MAX_TORS EXCEEDED!!!
REMARK  36 active torsions:
REMARK  status: ('A' for Active; 'I' for Inactive)
REMARK    1  A    between atoms: O3_21  and  C1_1 
REMARK    2  A    between atoms: C2_2  and  O2_7 
REMARK    3  A    between atoms: C3_3  and  O3_8 
REMARK    4  A    between atoms: C4_4  and  O4_9 
REMARK    5  A    between atoms: C5_5  and  C6_6 
REMARK    6  A    between atoms: C6_6  and  O6_11 
REMARK    7  A    between atoms: O4_34  and  C1_12 
REMARK    8  A    between atoms: C2_13  and  N2_20 
REMARK    9  A    between atoms: C3_14  and  O3_21 
REMARK   10  A    between atoms: C4_15  and  O4_22 
REMARK   11  A    between atoms: C5_16  and  C6_17 
REMARK   12  A    between atoms: C6_17  and  O6_24 
REMARK   13  A    between atoms: C7_18  and  C8_19 
REMARK       I    between atoms: N2_20  and  C7_18 
REMARK   14  A    between atoms: O4_66  and  C1_26 
REMARK   15  A    between atoms: C2_27  and  O2_32 
REMARK   16  A    between atoms: C3_28  and  O3_33 
REMARK   17  A    between atoms: C4_29  and  O4_34 
REMARK   18  A    between atoms: C5_30  and  C6_31 
REMARK   19  A    between atoms: C6_31  and  O6_36 
REMARK   20  A    between atoms: O3_33  and  C2_38 
REMARK   21  A    between atoms: C2_38  and  C1_37 
REMARK   22  A    between atoms: C4_40  and  O4_51 
REMARK   23  A    between atoms: C5_41  and  N5_48 
REMARK   24  A    between atoms: C6_42  and  C7_43 
REMARK   25  A    between atoms: C7_43  and  C8_44 
REMARK   26  A    between atoms: C7_43  and  O7_53 
REMARK   27  A    between atoms: C8_44  and  C9_45 
REMARK   28  A    between atoms: C8_44  and  O8_54 
REMARK   29  A    between atoms: C9_45  and  O9_55 
REMARK   30  A    between atoms: C10_46  and  C11_47 
REMARK       I    between atoms: N5_48  and  C10_46 
REMARK   31  A    between atoms: C2_57  and  O2_64 
REMARK   32  A    between atoms: C3_58  and  O3_65 
REMARK   33  A    between atoms: C4_59  and  O4_66 
REMARK   34  A    between atoms: C5_60  and  C6_61 
REMARK   35  A    between atoms: C6_61  and  O6_68 
REMARK   36  A    between atoms: C1_62  and  O1_63 
ROOT
ATOM      1  C1  GAL d   1     -13.965  58.875 -28.690  0.00  0.00     0.159 C 
ATOM      2  C2  GAL d   1     -13.743  57.541 -27.991  0.00  0.00     0.110 C 
ATOM      3  C3  GAL d   1     -13.075  57.684 -26.629  0.00  0.00     0.099 C 
ATOM      4  C4  GAL d   1     -11.822  58.535 -26.782  0.00  0.00     0.096 C 
ATOM      5  C5  GAL d   1     -12.185  59.863 -27.419  0.00  0.00     0.089 C 
ATOM      6  O5  GAL d   1     -12.737  59.621 -28.724  0.00  0.00    -0.348 OA
ATOM      7  H25 GAL d   1     -14.757  59.455 -28.195  0.00  0.00     0.133 H 
ATOM      8  H26 GAL d   1     -13.091  56.928 -28.631  0.00  0.00     0.094 H 
ATOM      9  H27 GAL d   1     -13.754  58.138 -25.892  0.00  0.00     0.091 H 
ATOM     10  H28 GAL d   1     -11.362  58.696 -25.796  0.00  0.00     0.091 H 
ATOM     11  H29 GAL d   1     -12.940  60.367 -26.798  0.00  0.00     0.090 H 
ENDROOT
BRANCH   4  12
ATOM     12  O4  GAL d   1     -10.898  57.902 -27.658  0.00  0.00    -0.348 OA
BRANCH  12  13
ATOM     13  C1  NGA d   1      -9.714  57.475 -26.979  0.00  0.00     0.154 C 
ATOM     14  C2  NGA d   1      -9.090  56.316 -27.740  0.00  0.00     0.087 C 
ATOM     15  C3  NGA d   1      -7.743  55.945 -27.122  0.00  0.00     0.093 C 
ATOM     16  H13 GAL d   1      -8.948  56.601 -28.793  0.00  0.00     0.084 H 
ATOM     17  C4  NGA d   1      -6.853  57.181 -27.029  0.00  0.00     0.089 C 
ATOM     18  H14 GAL d   1      -7.909  55.542 -26.112  0.00  0.00     0.091 H 
ATOM     19  C5  NGA d   1      -7.583  58.266 -26.254  0.00  0.00     0.089 C 
ATOM     20  H15 GAL d   1      -5.923  56.926 -26.500  0.00  0.00     0.091 H 
ATOM     21  O5  NGA d   1      -8.805  58.584 -26.934  0.00  0.00    -0.349 OA
ATOM     22  H16 GAL d   1      -7.817  57.875 -25.253  0.00  0.00     0.090 H 
ATOM     23  H12 GAL d   1      -9.962  57.154 -25.956  0.00  0.00     0.132 H 
BRANCH  14  24
ATOM     24  N2  NGA d   1      -9.970  55.162 -27.655  0.00  0.00    -0.349 N 
ATOM     25  C7  NGA d   1     -10.794  54.816 -28.650  0.00  0.00     0.214 C 
ATOM     26  O7  NGA d   1     -10.644  55.229 -29.791  0.00  0.00    -0.274 OA
ATOM     27  H22 GAL d   1      -9.959  54.607 -26.823  0.00  0.00     0.163 HD
BRANCH  25  28
ATOM     28  C8  NGA d   1     -11.910  53.880 -28.274  0.00  0.00    -0.003 C 
ATOM     29  H19 GAL d   1     -12.522  53.663 -29.162  0.00  0.00     0.040 H 
ATOM     30  H20 GAL d   1     -12.537  54.349 -27.502  0.00  0.00     0.040 H 
ATOM     31  H21 GAL d   1     -11.487  52.943 -27.883  0.00  0.00     0.040 H 
ENDBRANCH  25  28
ENDBRANCH  14  24
BRANCH  15  32
ATOM     32  O3  NGA d   1      -7.101  54.961 -27.917  0.00  0.00    -0.348 OA
BRANCH  32  33
ATOM     33  C1  GAL d   1      -6.708  53.830 -27.148  0.00  0.00     0.159 C 
ATOM     34  C2  GAL d   1      -6.255  52.746 -28.103  0.00  0.00     0.110 C 
ATOM     35  C3  GAL d   1      -5.731  51.539 -27.326  0.00  0.00     0.092 C 
ATOM     36  H2  GAL d   1      -5.438  53.141 -28.725  0.00  0.00     0.094 H 
ATOM     37  C4  GAL d   1      -4.699  51.970 -26.273  0.00  0.00     0.090 C 
ATOM     38  H3  GAL d   1      -6.578  51.052 -26.820  0.00  0.00     0.091 H 
ATOM     39  C5  GAL d   1      -5.187  53.144 -25.444  0.00  0.00     0.089 C 
ATOM     40  H4  GAL d   1      -4.517  51.121 -25.598  0.00  0.00     0.091 H 
ATOM     41  O5  GAL d   1      -5.623  54.213 -26.281  0.00  0.00    -0.348 OA
ATOM     42  H5  GAL d   1      -6.044  52.799 -24.847  0.00  0.00     0.090 H 
ATOM     43  H1  GAL d   1      -7.555  53.468 -26.546  0.00  0.00     0.133 H 
BRANCH  34  44
ATOM     44  O2  GAL d   1      -7.353  52.371 -28.967  0.00  0.00    -0.388 OA
ATOM     45  H8  GAL d   1      -7.660  53.137 -29.438  0.00  0.00     0.210 HD
ENDBRANCH  34  44
BRANCH  35  46
ATOM     46  O3  GAL d   1      -5.109  50.597 -28.213  0.00  0.00    -0.390 OA
ATOM     47  H9  GAL d   1      -5.737  50.321 -28.871  0.00  0.00     0.210 HD
ENDBRANCH  35  46
BRANCH  37  48
ATOM     48  O4  GAL d   1      -3.468  52.317 -26.923  0.00  0.00    -0.390 OA
ATOM     49  H10 GAL d   1      -3.166  51.580 -27.441  0.00  0.00     0.210 HD
ENDBRANCH  37  48
BRANCH  39  50
ATOM     50  C6  GAL d   1      -4.110  53.667 -24.475  0.00  0.00     0.043 C 
ATOM     51  H6  GAL d   1      -3.255  54.062 -25.044  0.00  0.00     0.078 H 
ATOM     52  H7  GAL d   1      -3.769  52.852 -23.819  0.00  0.00     0.078 H 
BRANCH  50  53
ATOM     53  O6  GAL d   1      -4.695  54.709 -23.691  0.00  0.00    -0.398 OA
ATOM     54  H11 GAL d   1      -4.990  55.407 -24.264  0.00  0.00     0.209 HD
ENDBRANCH  50  53
ENDBRANCH  39  50
ENDBRANCH  32  33
ENDBRANCH  15  32
BRANCH  17  55
ATOM     55  O4  NGA d   1      -6.534  57.619 -28.358  0.00  0.00    -0.390 OA
ATOM     56  H23 GAL d   1      -6.080  56.924 -28.819  0.00  0.00     0.210 HD
ENDBRANCH  17  55
BRANCH  19  57
ATOM     57  C6  NGA d   1      -6.776  59.547 -26.091  0.00  0.00     0.043 C 
ATOM     58  H17 GAL d   1      -6.519  59.961 -27.077  0.00  0.00     0.078 H 
ATOM     59  H18 GAL d   1      -5.854  59.344 -25.527  0.00  0.00     0.078 H 
BRANCH  57  60
ATOM     60  O6  NGA d   1      -7.601  60.468 -25.370  0.00  0.00    -0.398 OA
ATOM     61  H24 GAL d   1      -7.821  60.098 -24.523  0.00  0.00     0.209 HD
ENDBRANCH  57  60
ENDBRANCH  19  57
ENDBRANCH  12  13
ENDBRANCH   4  12
BRANCH   3  62
ATOM     62  O3  GAL d   1     -12.742  56.358 -26.266  0.00  0.00    -0.336 OA
BRANCH  62  63
ATOM     63  C2  SIA d   1     -12.876  56.034 -24.888  0.00  0.00     0.259 C 
ATOM     64  C3  SIA d   1     -14.340  56.012 -24.410  0.00  0.00     0.024 C 
ATOM     65  C4  SIA d   1     -14.418  55.669 -22.913  0.00  0.00     0.063 C 
ATOM     66  H34 GAL d   1     -14.896  55.255 -24.983  0.00  0.00     0.045 H 
ATOM     67  H35 GAL d   1     -14.789  57.002 -24.578  0.00  0.00     0.045 H 
ATOM     68  C5  SIA d   1     -13.459  56.525 -22.070  0.00  0.00     0.064 C 
ATOM     69  H36 GAL d   1     -14.123  54.615 -22.801  0.00  0.00     0.086 H 
ATOM     70  C6  SIA d   1     -12.062  56.516 -22.706  0.00  0.00     0.091 C 
ATOM     71  H37 GAL d   1     -13.823  57.563 -22.049  0.00  0.00     0.080 H 
ATOM     72  O6  SIA d   1     -12.139  56.942 -24.072  0.00  0.00    -0.336 OA
ATOM     73  H38 GAL d   1     -11.671  55.489 -22.659  0.00  0.00     0.090 H 
BRANCH  63  74
ATOM     74  C1  SIA d   1     -12.243  54.667 -24.854  0.00  0.00     0.239 C 
ATOM     75  O1A SIA d   1     -12.996  53.574 -24.894  0.00  0.00    -0.644 OA
ATOM     76  O1B SIA d   1     -11.017  54.538 -24.828  0.00  0.00    -0.644 OA
ENDBRANCH  63  74
BRANCH  65  77
ATOM     77  O4  SIA d   1     -15.754  55.817 -22.393  0.00  0.00    -0.393 OA
ATOM     78  H47 GAL d   1     -15.774  55.527 -21.488  0.00  0.00     0.210 HD
ENDBRANCH  65  77
BRANCH  68  79
ATOM     79  N5  SIA d   1     -13.462  56.000 -20.704  0.00  0.00    -0.352 N 
ATOM     80  C10 SIA d   1     -13.300  56.763 -19.616  0.00  0.00     0.214 C 
ATOM     81  O10 SIA d   1     -13.142  57.974 -19.681  0.00  0.00    -0.274 OA
ATOM     82  H46 GAL d   1     -13.592  55.017 -20.576  0.00  0.00     0.163 HD
BRANCH  80  83
ATOM     83  C11 SIA d   1     -13.317  56.047 -18.286  0.00  0.00    -0.003 C 
ATOM     84  H43 GAL d   1     -13.175  56.776 -17.475  0.00  0.00     0.040 H 
ATOM     85  H44 GAL d   1     -12.505  55.306 -18.258  0.00  0.00     0.040 H 
ATOM     86  H45 GAL d   1     -14.283  55.538 -18.156  0.00  0.00     0.040 H 
ENDBRANCH  80  83
ENDBRANCH  68  79
BRANCH  70  87
ATOM     87  C7  SIA d   1     -11.070  57.455 -22.030  0.00  0.00     0.089 C 
ATOM     88  H39 GAL d   1     -10.798  57.034 -21.051  0.00  0.00     0.091 H 
BRANCH  87  89
ATOM     89  C8  SIA d   1      -9.815  57.620 -22.877  0.00  0.00     0.083 C 
ATOM     90  H40 GAL d   1     -10.058  58.216 -23.769  0.00  0.00     0.090 H 
BRANCH  89  91
ATOM     91  C9  SIA d   1      -8.746  58.351 -22.067  0.00  0.00     0.043 C 
ATOM     92  H41 GAL d   1      -8.207  57.624 -21.442  0.00  0.00     0.078 H 
ATOM     93  H42 GAL d   1      -9.230  59.100 -21.423  0.00  0.00     0.078 H 
BRANCH  91  94
ATOM     94  O9  SIA d   1      -7.811  59.011 -22.936  0.00  0.00    -0.398 OA
ATOM     95  H50 GAL d   1      -8.273  59.642 -23.475  0.00  0.00     0.209 HD
ENDBRANCH  91  94
ENDBRANCH  89  91
BRANCH  89  96
ATOM     96  O8  SIA d   1      -9.338  56.338 -23.293  0.00  0.00    -0.391 OA
ATOM     97  H49 GAL d   1     -10.014  55.897 -23.795  0.00  0.00     0.210 HD
ENDBRANCH  89  96
ENDBRANCH  87  89
BRANCH  87  98
ATOM     98  O7  SIA d   1     -11.633  58.761 -21.846  0.00  0.00    -0.390 OA
ATOM     99  H48 GAL d   1     -12.421  58.694 -21.319  0.00  0.00     0.210 HD
ENDBRANCH  87  98
ENDBRANCH  70  87
ENDBRANCH  62  63
ENDBRANCH   3  62
BRANCH   5 100
ATOM    100  C6  GAL d   1     -10.949  60.758 -27.515  0.00  0.00     0.043 C 
ATOM    101  H30 GAL d   1     -10.233  60.331 -28.233  0.00  0.00     0.078 H 
ATOM    102  H31 GAL d   1     -10.472  60.843 -26.527  0.00  0.00     0.078 H 
BRANCH 100 103
ATOM    103  O6  GAL d   1     -11.371  62.046 -27.961  0.00  0.00    -0.398 OA
ATOM    104  H33 GAL d   1     -11.785  61.965 -28.812  0.00  0.00     0.209 HD
ENDBRANCH 100 103
ENDBRANCH   5 100
BRANCH   2 105
ATOM    105  O2  GAL d   1     -15.001  56.855 -27.818  0.00  0.00    -0.388 OA
ATOM    106  H32 GAL d   1     -15.427  56.760 -28.662  0.00  0.00     0.210 HD
ENDBRANCH   2 105
BRANCH   1 107
ATOM    107  O4  BGC d   1     -14.319  58.546 -30.036  0.00  0.00    -0.348 OA
BRANCH 107 108
ATOM    108  C4  BGC d   1     -14.890  59.656 -30.725  0.00  0.00     0.096 C 
ATOM    109  C3  BGC d   1     -14.049  59.883 -31.973  0.00  0.00     0.092 C 
ATOM    110  C2  BGC d   1     -14.704  60.920 -32.884  0.00  0.00     0.110 C 
ATOM    111  H52 GAL d   1     -13.974  58.932 -32.522  0.00  0.00     0.091 H 
ATOM    112  C1  BGC d   1     -16.130  60.476 -33.196  0.00  0.00     0.156 C 
ATOM    113  H51 GAL d   1     -14.736  61.889 -32.365  0.00  0.00     0.094 H 
ATOM    114  O5  BGC d   1     -16.831  60.402 -31.951  0.00  0.00    -0.349 OA
ATOM    115  H57 GAL d   1     -16.122  59.489 -33.681  0.00  0.00     0.133 H 
ATOM    116  C5  BGC d   1     -16.327  59.335 -31.145  0.00  0.00     0.089 C 
ATOM    117  H54 GAL d   1     -16.305  58.416 -31.749  0.00  0.00     0.090 H 
ATOM    118  H53 GAL d   1     -14.878  60.550 -30.084  0.00  0.00     0.091 H 
BRANCH 109 119
ATOM    119  O3  BGC d   1     -12.728  60.309 -31.611  0.00  0.00    -0.390 OA
ATOM    120  H60 GAL d   1     -12.316  59.641 -31.076  0.00  0.00     0.210 HD
ENDBRANCH 109 119
BRANCH 110 121
ATOM    121  O2  BGC d   1     -13.939  61.065 -34.087  0.00  0.00    -0.388 OA
ATOM    122  H59 GAL d   1     -14.348  61.717 -34.644  0.00  0.00     0.210 HD
ENDBRANCH 110 121
BRANCH 112 123
ATOM    123  O1  BGC d   1     -16.751  61.429 -34.064  0.00  0.00    -0.369 OA
ATOM    124  H58 GAL d   1     -16.274  61.466 -34.885  0.00  0.00     0.212 HD
ENDBRANCH 112 123
BRANCH 116 125
ATOM    125  C6  BGC d   1     -17.267  59.100 -29.971  0.00  0.00     0.043 C 
ATOM    126  H55 GAL d   1     -16.893  58.265 -29.360  0.00  0.00     0.078 H 
ATOM    127  H56 GAL d   1     -18.272  58.858 -30.346  0.00  0.00     0.078 H 
BRANCH 125 128
ATOM    128  O6  BGC d   1     -17.325  60.288 -29.175  0.00  0.00    -0.398 OA
ATOM    129  H61 GAL d   1     -16.455  60.495 -28.853  0.00  0.00     0.209 HD
ENDBRANCH 125 128
ENDBRANCH 116 125
ENDBRANCH 107 108
ENDBRANCH   1 107
TORSDOF 36
