REMARK  4 active torsions:
REMARK  status: ('A' for Active; 'I' for Inactive)
REMARK    1  A    between atoms: CAM_13  and  OAO_15 
REMARK    2  A    between atoms: CAW_23  and  CAM_13 
REMARK    3  A    between atoms: OAO_15  and  CAS_19 
REMARK    4  A    between atoms: CAT_20  and  CAX_24 
ROOT
ATOM      1  CAI 8PR d   1     -21.048 -48.438  24.912  0.00  0.00     0.082 C 
ATOM      2  CAJ 8PR d   1     -19.740 -48.086  24.212  0.00  0.00    -0.035 C 
ATOM      3  CAK 8PR d   1     -22.124 -46.360  23.982  0.00  0.00     0.087 C 
ATOM      4  NAN 8PR d   1     -22.178 -47.773  24.290  0.00  0.00    -0.075 N 
ATOM      5  CAW 8PR d   1     -20.811 -46.017  23.281  0.00  0.00    -0.002 C 
ATOM      6  CAX 8PR d   1     -19.596 -46.578  24.038  0.00  0.00    -0.020 C 
ATOM      7  H   8PR d   1     -20.985 -48.127  25.965  0.00  0.00     0.075 H 
ATOM      8  H   8PR d   1     -21.200 -49.526  24.860  0.00  0.00     0.075 H 
ATOM      9  H   8PR d   1     -19.723 -48.565  23.222  0.00  0.00     0.036 H 
ATOM     10  H   8PR d   1     -18.899 -48.459  24.814  0.00  0.00     0.036 H 
ATOM     11  H   8PR d   1     -22.198 -45.783  24.915  0.00  0.00     0.076 H 
ATOM     12  H   8PR d   1     -22.965 -46.100  23.323  0.00  0.00     0.076 H 
ATOM     13  H   8PR d   1     -22.965 -47.904  24.907  0.00  0.00     0.277 HD
ATOM     14  H   8PR d   1     -22.351 -48.251  23.420  0.00  0.00     0.277 HD
ATOM     15  H   8PR d   1     -20.820 -46.486  22.286  0.00  0.00     0.046 H 
ATOM     16  H   8PR d   1     -19.560 -46.115  25.035  0.00  0.00     0.048 H 
ENDROOT
BRANCH   5  17
ATOM     17  CAM 8PR d   1     -20.750 -44.508  23.088  0.00  0.00     0.032 C 
ATOM     18  H   8PR d   1     -19.931 -44.255  22.399  0.00  0.00     0.075 H 
ATOM     19  H   8PR d   1     -21.703 -44.148  22.673  0.00  0.00     0.075 H 
BRANCH  17  20
ATOM     20  OAO 8PR d   1     -20.517 -43.900  24.359  0.00  0.00    -0.351 OA
BRANCH  20  21
ATOM     21  CAS 8PR d   1     -20.876 -42.609  24.631  0.00  0.00     0.071 A 
ATOM     22  CAD 8PR d   1     -21.216 -42.272  25.954  0.00  0.00    -0.048 A 
ATOM     23  CAG 8PR d   1     -21.596 -40.979  26.284  0.00  0.00    -0.045 A 
ATOM     24  H   8PR d   1     -21.181 -43.032  26.726  0.00  0.00     0.087 H 
ATOM     25  CAU 8PR d   1     -21.610 -40.040  25.260  0.00  0.00     0.105 A 
ATOM     26  H   8PR d   1     -21.870 -40.713  27.298  0.00  0.00     0.088 H 
ATOM     27  OAP 8PR d   1     -21.954 -38.722  25.308  0.00  0.00    -0.323 OA
ATOM     28  CAV 8PR d   1     -21.283 -40.368  23.976  0.00  0.00     0.107 A 
ATOM     29  CAL 8PR d   1     -21.947 -38.218  23.956  0.00  0.00     0.115 A 
ATOM     30  OAQ 8PR d   1     -21.415 -39.275  23.179  0.00  0.00    -0.323 OA
ATOM     31  H   8PR d   1     -21.312 -37.323  23.879  0.00  0.00     0.118 H 
ATOM     32  H   8PR d   1     -22.968 -37.972  23.629  0.00  0.00     0.118 H 
ATOM     33  CAH 8PR d   1     -20.907 -41.651  23.621  0.00  0.00    -0.016 A 
ATOM     34  H   8PR d   1     -20.647 -41.900  22.599  0.00  0.00     0.092 H 
ENDBRANCH  20  21
ENDBRANCH  17  20
ENDBRANCH   5  17
BRANCH   6  35
ATOM     35  CAT 8PR d   1     -18.334 -46.240  23.316  0.00  0.00    -0.053 A 
ATOM     36  CAE 8PR d   1     -18.163 -46.576  21.976  0.00  0.00    -0.074 A 
ATOM     37  CAB 8PR d   1     -16.990 -46.243  21.298  0.00  0.00    -0.045 A 
ATOM     38  H   8PR d   1     -18.952 -47.103  21.452  0.00  0.00     0.084 H 
ATOM     39  CAR 8PR d   1     -15.961 -45.566  21.936  0.00  0.00     0.116 A 
ATOM     40  H   8PR d   1     -16.881 -46.518  20.255  0.00  0.00     0.088 H 
ATOM     41  FAA 8PR d   1     -14.836 -45.258  21.253  0.00  0.00    -0.206 F 
ATOM     42  CAC 8PR d   1     -16.118 -45.220  23.273  0.00  0.00    -0.045 A 
ATOM     43  CAF 8PR d   1     -17.297 -45.552  23.957  0.00  0.00    -0.074 A 
ATOM     44  H   8PR d   1     -15.325 -44.691  23.790  0.00  0.00     0.088 H 
ATOM     45  H   8PR d   1     -17.407 -45.271  24.998  0.00  0.00     0.084 H 
ENDBRANCH   6  35
TORSDOF 4
