REMARK  4 active torsions:
REMARK  status: ('A' for Active; 'I' for Inactive)
REMARK    1  A    between atoms: N_1  and  CA_2 
REMARK    2  A    between atoms: CA_2  and  C_3 
REMARK    3  A    between atoms: CA_2  and  CB_4 
REMARK    4  A    between atoms: CB_4  and  CG_5 
ROOT
ATOM      1  CB  1WE d   1      -3.309  -3.858  17.004  0.00  0.00    -0.015 C 
ATOM      2  H8  1WE d   1      -3.538  -3.125  17.792  0.00  0.00     0.043 H 
ATOM      3  H9  1WE d   1      -2.295  -4.256  17.157  0.00  0.00     0.043 H 
ENDROOT
BRANCH   1   4
ATOM      4  CA  1WE d   1      -3.334  -3.134  15.665  0.00  0.00     0.100 C 
ATOM      5  H4  1WE d   1      -4.237  -3.421  15.107  0.00  0.00     0.083 H 
BRANCH   4   6
ATOM      6  N   1WE d   1      -3.252  -1.706  15.776  0.00  0.00    -0.075 N 
ATOM      7  H1  1WE d   1      -3.274  -1.296  14.856  0.00  0.00     0.274 HD
ATOM      8  H2  1WE d   1      -2.391  -1.454  16.236  0.00  0.00     0.274 HD
ATOM      9  H3  1WE d   1      -4.033  -1.365  16.314  0.00  0.00     0.274 HD
ENDBRANCH   4   6
BRANCH   4  10
ATOM     10  C   1WE d   1      -2.124  -3.506  14.952  0.00  0.00    -0.050 C 
ATOM     11  H5  1WE d   1      -2.098  -4.598  14.818  0.00  0.00     0.030 H 
ATOM     12  H6  1WE d   1      -1.245  -3.187  15.531  0.00  0.00     0.030 H 
ATOM     13  H7  1WE d   1      -2.113  -3.015  13.967  0.00  0.00     0.030 H 
ENDBRANCH   4  10
ENDBRANCH   1   4
BRANCH   1  14
ATOM     14  CG  1WE d   1      -4.188  -4.890  17.120  0.00  0.00    -0.056 A 
ATOM     15  CD1 1WE d   1      -5.461  -4.769  16.634  0.00  0.00    -0.077 A 
ATOM     16  CE1 1WE d   1      -6.359  -5.788  16.795  0.00  0.00    -0.082 A 
ATOM     17  H10 1WE d   1      -5.759  -3.862  16.120  0.00  0.00     0.084 H 
ATOM     18  CZ  1WE d   1      -5.993  -6.923  17.456  0.00  0.00    -0.083 A 
ATOM     19  H12 1WE d   1      -7.363  -5.693  16.397  0.00  0.00     0.083 H 
ATOM     20  CE2 1WE d   1      -4.707  -7.030  17.952  0.00  0.00    -0.082 A 
ATOM     21  H14 1WE d   1      -6.702  -7.732  17.591  0.00  0.00     0.083 H 
ATOM     22  CD2 1WE d   1      -3.821  -6.017  17.788  0.00  0.00    -0.077 A 
ATOM     23  H13 1WE d   1      -4.405  -7.930  18.476  0.00  0.00     0.083 H 
ATOM     24  H11 1WE d   1      -2.818  -6.105  18.190  0.00  0.00     0.084 H 
ENDBRANCH   1  14
TORSDOF 4
