REMARK  11 active torsions:
REMARK  status: ('A' for Active; 'I' for Inactive)
REMARK    1  A    between atoms: C6_6  and  C5_5 
REMARK    2  A    between atoms: C7_7  and  C6_6 
REMARK    3  A    between atoms: C24_24  and  C7_7 
REMARK    4  A    between atoms: C10_11  and  N11_12 
REMARK    5  A    between atoms: C17_17  and  N18_18 
REMARK    6  A    between atoms: N18_18  and  C19_19 
REMARK    7  A    between atoms: C20_20  and  O21_21 
REMARK    8  A    between atoms: O21_21  and  C22_22 
REMARK    9  A    between atoms: C25_25  and  O26_26 
REMARK   10  A    between atoms: C27_27  and  O28_28 
REMARK   11  A    between atoms: O28_28  and  C_29 
ROOT
ATOM      1  C1  1WJ d   1       9.632  17.566  91.671  0.00  0.00     0.063 A 
ATOM      2  C2  1WJ d   1      10.650  17.936  90.811  0.00  0.00    -0.035 A 
ATOM      3  C3  1WJ d   1      10.364  17.829  89.459  0.00  0.00     0.104 A 
ATOM      4  C4  1WJ d   1       9.162  17.322  88.971  0.00  0.00     0.087 A 
ATOM      5  C5  1WJ d   1       8.124  16.859  89.819  0.00  0.00    -0.000 A 
ATOM      6  C8  1WJ d   1       8.406  17.032  91.216  0.00  0.00     0.073 A 
ATOM      7  C13 1WJ d   1       9.889  17.731  93.139  0.00  0.00     0.272 A 
ATOM      8  N9  1WJ d   1       7.441  16.687  92.150  0.00  0.00    -0.190 N 
ATOM      9  C10 1WJ d   1       7.657  16.893  93.447  0.00  0.00     0.679 A 
ATOM     10  N12 1WJ d   1       8.815  17.400  93.920  0.00  0.00    -0.156 N 
ATOM     11  O14 1WJ d   1      10.905  18.137  93.594  0.00  0.00    -0.267 OA
ATOM     12  N15 1WJ d   1      11.069  18.194  88.324  0.00  0.00    -0.063 NA
ATOM     13  N16 1WJ d   1       9.140  17.393  87.594  0.00  0.00    -0.187 N 
ATOM     14  C17 1WJ d   1      10.282  17.908  87.243  0.00  0.00     0.701 A 
ATOM     15  H   1WJ d   1      11.610  18.287  91.171  0.00  0.00     0.088 H 
ATOM     16  H   1WJ d   1       6.553  16.269  91.838  0.00  0.00     0.184 HD
ATOM     17  H   1WJ d   1       8.893  17.543  94.907  0.00  0.00     0.187 HD
ATOM     18  H   1WJ d   1       8.375  17.098  86.970  0.00  0.00     0.184 HD
ENDROOT
BRANCH   5  19
ATOM     19  C6  1WJ d   1       6.834  16.251  89.243  0.00  0.00    -0.034 C 
ATOM     20  H   1WJ d   1       6.369  15.649  90.037  0.00  0.00     0.040 H 
ATOM     21  H   1WJ d   1       7.122  15.596  88.407  0.00  0.00     0.040 H 
BRANCH  19  22
ATOM     22  C7  1WJ d   1       5.817  17.182  88.743  0.00  0.00    -0.035 C 
ATOM     23  H   1WJ d   1       6.200  17.656  87.828  0.00  0.00     0.037 H 
ATOM     24  H   1WJ d   1       5.644  17.951  89.510  0.00  0.00     0.037 H 
BRANCH  22  25
ATOM     25  C24 1WJ d   1       4.495  16.523  88.421  0.00  0.00     0.069 C 
ATOM     26  O23 1WJ d   1       3.587  17.590  88.076  0.00  0.00    -0.351 OA
ATOM     27  C20 1WJ d   1       2.851  17.222  86.898  0.00  0.00     0.158 C 
ATOM     28  C27 1WJ d   1       2.954  15.709  86.829  0.00  0.00     0.112 C 
ATOM     29  H   1WJ d   1       1.800  17.539  86.970  0.00  0.00     0.133 H 
ATOM     30  C25 1WJ d   1       4.421  15.553  87.263  0.00  0.00     0.090 C 
ATOM     31  H   1WJ d   1       2.773  15.306  85.822  0.00  0.00     0.095 H 
ATOM     32  H   1WJ d   1       5.099  15.876  86.459  0.00  0.00     0.091 H 
ATOM     33  H   1WJ d   1       4.152  15.999  89.325  0.00  0.00     0.087 H 
BRANCH  27  34
ATOM     34  O21 1WJ d   1       3.462  17.821  85.770  0.00  0.00    -0.363 OA
BRANCH  34  35
ATOM     35  C22 1WJ d   1       3.437  19.250  85.765  0.00  0.00     0.007 C 
ATOM     36  H   1WJ d   1       3.932  19.622  84.856  0.00  0.00     0.066 H 
ATOM     37  H   1WJ d   1       3.966  19.629  86.652  0.00  0.00     0.066 H 
ATOM     38  H   1WJ d   1       2.394  19.599  85.784  0.00  0.00     0.066 H 
ENDBRANCH  34  35
ENDBRANCH  27  34
BRANCH  28  39
ATOM     39  O28 1WJ d   1       2.025  15.154  87.760  0.00  0.00    -0.383 OA
BRANCH  39  40
ATOM     40  C   1WJ d   1       1.609  13.818  87.493  0.00  0.00     0.005 C 
ATOM     41  H   1WJ d   1       0.899  13.493  88.268  0.00  0.00     0.066 H 
ATOM     42  H   1WJ d   1       2.485  13.153  87.498  0.00  0.00     0.066 H 
ATOM     43  H   1WJ d   1       1.122  13.776  86.508  0.00  0.00     0.066 H 
ENDBRANCH  39  40
ENDBRANCH  28  39
BRANCH  30  44
ATOM     44  O26 1WJ d   1       4.733  14.224  87.582  0.00  0.00    -0.390 OA
ATOM     45  H   1WJ d   1       4.662  13.687  86.802  0.00  0.00     0.210 HD
ENDBRANCH  30  44
ENDBRANCH  22  25
ENDBRANCH  19  22
ENDBRANCH   5  19
BRANCH  14  46
ATOM     46  N18 1WJ d   1      10.708  18.208  85.971  0.00  0.00    -0.229 N 
ATOM     47  H   1WJ d   1      11.708  18.359  85.776  0.00  0.00     0.177 HD
BRANCH  46  48
ATOM     48  C19 1WJ d   1       9.718  18.310  84.897  0.00  0.00    -0.005 C 
ATOM     49  H   1WJ d   1      10.226  18.554  83.952  0.00  0.00     0.057 H 
ATOM     50  H   1WJ d   1       8.994  19.102  85.140  0.00  0.00     0.057 H 
ATOM     51  H   1WJ d   1       9.190  17.351  84.792  0.00  0.00     0.057 H 
ENDBRANCH  46  48
ENDBRANCH  14  46
BRANCH   9  52
ATOM     52  N11 1WJ d   1       6.694  16.582  94.327  0.00  0.00    -0.234 N 
ATOM     53  H   1WJ d   1       6.847  16.736  95.334  0.00  0.00     0.174 HD
ATOM     54  H   1WJ d   1       5.801  16.189  93.996  0.00  0.00     0.174 HD
ENDBRANCH   9  52
TORSDOF 11
