REMARK  10 active torsions:
REMARK  status: ('A' for Active; 'I' for Inactive)
REMARK    1  A    between atoms: C6_6  and  C5_5 
REMARK    2  A    between atoms: C7_7  and  C6_6 
REMARK    3  A    between atoms: C24_24  and  C7_7 
REMARK    4  A    between atoms: C11_11  and  N12_12 
REMARK    5  A    between atoms: C17_17  and  N18_18 
REMARK    6  A    between atoms: N18_18  and  C19_19 
REMARK    7  A    between atoms: C20_20  and  O21_21 
REMARK    8  A    between atoms: C22_22  and  O23_23 
REMARK    9  A    between atoms: C26_26  and  O27_27 
REMARK   10  A    between atoms: O27_27  and  C28_28 
ROOT
ATOM      1  C1  1WK d   1       9.780  17.424  91.336  0.00  0.00     0.062 A 
ATOM      2  C2  1WK d   1      10.774  17.803  90.429  0.00  0.00    -0.037 A 
ATOM      3  C3  1WK d   1      10.487  17.671  89.072  0.00  0.00     0.080 A 
ATOM      4  C4  1WK d   1       9.260  17.174  88.651  0.00  0.00     0.111 A 
ATOM      5  C5  1WK d   1       8.241  16.785  89.519  0.00  0.00     0.002 A 
ATOM      6  C8  1WK d   1       8.539  16.913  90.909  0.00  0.00     0.073 A 
ATOM      7  C9  1WK d   1      10.017  17.547  92.789  0.00  0.00     0.272 A 
ATOM      8  N10 1WK d   1       7.561  16.542  91.849  0.00  0.00    -0.190 N 
ATOM      9  C11 1WK d   1       7.789  16.674  93.115  0.00  0.00     0.679 A 
ATOM     10  N13 1WK d   1       8.974  17.168  93.595  0.00  0.00    -0.156 N 
ATOM     11  O14 1WK d   1      11.075  17.955  93.257  0.00  0.00    -0.267 OA
ATOM     12  N15 1WK d   1      11.264  18.003  88.000  0.00  0.00    -0.188 N 
ATOM     13  N16 1WK d   1       9.323  17.213  87.282  0.00  0.00    -0.062 NA
ATOM     14  C17 1WK d   1      10.555  17.708  86.935  0.00  0.00     0.701 A 
ATOM     15  H   1WK d   1      11.730  18.184  90.768  0.00  0.00     0.088 H 
ATOM     16  H   1WK d   1       6.659  16.163  91.528  0.00  0.00     0.184 HD
ATOM     17  H   1WK d   1       9.084  17.257  94.585  0.00  0.00     0.187 HD
ATOM     18  H   1WK d   1      12.213  18.403  88.022  0.00  0.00     0.184 HD
ENDROOT
BRANCH   5  19
ATOM     19  C6  1WK d   1       6.944  16.207  88.996  0.00  0.00    -0.034 C 
ATOM     20  H   1WK d   1       6.434  15.711  89.835  0.00  0.00     0.040 H 
ATOM     21  H   1WK d   1       7.193  15.462  88.226  0.00  0.00     0.040 H 
BRANCH  19  22
ATOM     22  C7  1WK d   1       5.984  17.191  88.390  0.00  0.00    -0.035 C 
ATOM     23  H   1WK d   1       6.430  17.611  87.476  0.00  0.00     0.037 H 
ATOM     24  H   1WK d   1       5.796  18.000  89.111  0.00  0.00     0.037 H 
BRANCH  22  25
ATOM     25  C24 1WK d   1       4.660  16.524  88.036  0.00  0.00     0.069 C 
ATOM     26  C22 1WK d   1       4.721  15.665  86.768  0.00  0.00     0.090 C 
ATOM     27  C20 1WK d   1       3.348  15.963  86.181  0.00  0.00     0.110 C 
ATOM     28  H   1WK d   1       5.545  15.954  86.099  0.00  0.00     0.091 H 
ATOM     29  C26 1WK d   1       3.260  17.475  86.418  0.00  0.00     0.158 C 
ATOM     30  H   1WK d   1       3.311  15.727  85.107  0.00  0.00     0.094 H 
ATOM     31  O25 1WK d   1       3.775  17.630  87.742  0.00  0.00    -0.351 OA
ATOM     32  H   1WK d   1       2.228  17.843  86.326  0.00  0.00     0.133 H 
ATOM     33  H   1WK d   1       4.296  15.921  88.881  0.00  0.00     0.087 H 
BRANCH  26  34
ATOM     34  O23 1WK d   1       4.803  14.265  87.106  0.00  0.00    -0.390 OA
ATOM     35  H   1WK d   1       4.132  14.055  87.744  0.00  0.00     0.210 HD
ENDBRANCH  26  34
BRANCH  27  36
ATOM     36  O21 1WK d   1       2.329  15.242  86.845  0.00  0.00    -0.388 OA
ATOM     37  H   1WK d   1       2.495  14.310  86.761  0.00  0.00     0.210 HD
ENDBRANCH  27  36
BRANCH  29  38
ATOM     38  O27 1WK d   1       4.134  18.173  85.518  0.00  0.00    -0.363 OA
BRANCH  38  39
ATOM     39  C28 1WK d   1       4.069  19.594  85.689  0.00  0.00     0.007 C 
ATOM     40  H   1WK d   1       4.754  20.080  84.979  0.00  0.00     0.066 H 
ATOM     41  H   1WK d   1       4.362  19.853  86.717  0.00  0.00     0.066 H 
ATOM     42  H   1WK d   1       3.042  19.939  85.502  0.00  0.00     0.066 H 
ENDBRANCH  38  39
ENDBRANCH  29  38
ENDBRANCH  22  25
ENDBRANCH  19  22
ENDBRANCH   5  19
BRANCH  14  43
ATOM     43  N18 1WK d   1      10.920  17.889  85.659  0.00  0.00    -0.229 N 
ATOM     44  H   1WK d   1      11.924  17.915  85.430  0.00  0.00     0.177 HD
BRANCH  43  45
ATOM     45  C19 1WK d   1       9.958  18.049  84.588  0.00  0.00    -0.005 C 
ATOM     46  H   1WK d   1      10.490  18.183  83.634  0.00  0.00     0.057 H 
ATOM     47  H   1WK d   1       9.332  18.932  84.786  0.00  0.00     0.057 H 
ATOM     48  H   1WK d   1       9.321  17.154  84.530  0.00  0.00     0.057 H 
ENDBRANCH  43  45
ENDBRANCH  14  43
BRANCH   9  49
ATOM     49  N12 1WK d   1       6.848  16.347  94.026  0.00  0.00    -0.234 N 
ATOM     50  H   1WK d   1       7.044  16.457  95.031  0.00  0.00     0.174 HD
ATOM     51  H   1WK d   1       5.934  15.987  93.716  0.00  0.00     0.174 HD
ENDBRANCH   9  49
TORSDOF 10
