REMARK  5 active torsions:
REMARK  status: ('A' for Active; 'I' for Inactive)
REMARK    1  A    between atoms: O5'_1  and  C5'_2 
REMARK    2  A    between atoms: C5'_2  and  C4'_3 
REMARK    3  A    between atoms: C3'_5  and  N3'_6 
REMARK    4  A    between atoms: C1'_10  and  N1_11 
REMARK    5  A    between atoms: C5_17  and  C5A_18 
ROOT
ATOM      1  N3' AZZ d   1      30.478  -9.360  -5.125  0.00  0.00    -0.107 NA
ATOM      2  N4' AZZ d   1      30.268  -8.511  -4.231  0.00  0.00    -0.167 NA
ATOM      3  N5' AZZ d   1      30.044  -7.633  -3.309  0.00  0.00     0.068 N 
ENDROOT
BRANCH   1   4
ATOM      4  C3' AZZ d   1      31.660 -10.199  -5.114  0.00  0.00     0.096 C 
ATOM      5  C4' AZZ d   1      31.809 -10.803  -6.510  0.00  0.00     0.085 C 
ATOM      6  O4' AZZ d   1      31.963 -12.202  -6.300  0.00  0.00    -0.356 OA
ATOM      7  H   AZZ d   1      30.883 -10.616  -7.074  0.00  0.00     0.090 H 
ATOM      8  C1' AZZ d   1      31.207 -12.539  -5.141  0.00  0.00     0.116 C 
ATOM      9  C2' AZZ d   1      31.352 -11.359  -4.189  0.00  0.00     0.002 C 
ATOM     10  H   AZZ d   1      30.150 -12.694  -5.404  0.00  0.00     0.118 H 
ATOM     11  H   AZZ d   1      30.418 -11.183  -3.635  0.00  0.00     0.043 H 
ATOM     12  H   AZZ d   1      32.175 -11.525  -3.478  0.00  0.00     0.043 H 
ATOM     13  H   AZZ d   1      32.558  -9.644  -4.805  0.00  0.00     0.084 H 
BRANCH   5  14
ATOM     14  C5' AZZ d   1      32.966 -10.252  -7.331  0.00  0.00     0.043 C 
ATOM     15  H   AZZ d   1      32.846  -9.164  -7.444  0.00  0.00     0.078 H 
ATOM     16  H   AZZ d   1      33.913 -10.464  -6.812  0.00  0.00     0.078 H 
BRANCH  14  17
ATOM     17  O5' AZZ d   1      32.990 -10.864  -8.632  0.00  0.00    -0.398 OA
ATOM     18  H   AZZ d   1      33.096 -11.803  -8.537  0.00  0.00     0.209 HD
ENDBRANCH  14  17
ENDBRANCH   5  14
BRANCH   8  19
ATOM     19  N1  AZZ d   1      31.739 -13.746  -4.521  0.00  0.00    -0.282 N 
ATOM     20  C2  AZZ d   1      30.850 -14.740  -4.050  0.00  0.00     0.331 A 
ATOM     21  O2  AZZ d   1      29.591 -14.629  -4.175  0.00  0.00    -0.246 OA
ATOM     22  N3  AZZ d   1      31.362 -15.832  -3.470  0.00  0.00    -0.275 N 
ATOM     23  C4  AZZ d   1      32.683 -16.023  -3.331  0.00  0.00     0.256 A 
ATOM     24  H   AZZ d   1      30.736 -16.532  -3.127  0.00  0.00     0.173 HD
ATOM     25  O4  AZZ d   1      33.099 -17.059  -2.781  0.00  0.00    -0.267 OA
ATOM     26  C5  AZZ d   1      33.633 -14.992  -3.805  0.00  0.00     0.022 A 
ATOM     27  C6  AZZ d   1      33.083 -13.869  -4.399  0.00  0.00    -0.002 A 
ATOM     28  H   AZZ d   1      33.734 -13.079  -4.771  0.00  0.00     0.113 H 
BRANCH  26  29
ATOM     29  C5A AZZ d   1      35.122 -15.158  -3.667  0.00  0.00    -0.045 C 
ATOM     30  H   AZZ d   1      35.630 -14.276  -4.084  0.00  0.00     0.033 H 
ATOM     31  H   AZZ d   1      35.443 -16.058  -4.213  0.00  0.00     0.033 H 
ATOM     32  H   AZZ d   1      35.382 -15.262  -2.603  0.00  0.00     0.033 H 
ENDBRANCH  26  29
ENDBRANCH   8  19
ENDBRANCH   1   4
TORSDOF 5
