REMARK  8 active torsions:
REMARK  status: ('A' for Active; 'I' for Inactive)
REMARK    1  A    between atoms: O3A_8  and  PB_1 
REMARK    2  A    between atoms: PA_5  and  O3A_8 
REMARK    3  A    between atoms: PA_5  and  O5'_9 
REMARK    4  A    between atoms: O5'_9  and  C5'_10 
REMARK    5  A    between atoms: C5'_10  and  C4'_11 
REMARK    6  A    between atoms: C3'_13  and  O3'_14 
REMARK    7  A    between atoms: C2'_15  and  O2'_16 
REMARK    8  A    between atoms: C1'_17  and  N9_18 
ROOT
ATOM      1  C4' ADP d   1      52.907  24.535  47.962  0.00  0.00     0.089 C 
ATOM      2  O4' ADP d   1      52.391  25.499  47.041  0.00  0.00    -0.353 OA
ATOM      3  C3' ADP d   1      51.771  24.157  48.906  0.00  0.00     0.091 C 
ATOM      4  C2' ADP d   1      50.625  25.083  48.556  0.00  0.00     0.105 C 
ATOM      5  C1' ADP d   1      50.984  25.678  47.205  0.00  0.00     0.139 C 
ATOM      6  H   ADP d   1      53.723  24.980  48.550  0.00  0.00     0.090 H 
ATOM      7  H   ADP d   1      51.475  23.111  48.736  0.00  0.00     0.091 H 
ATOM      8  H   ADP d   1      49.685  24.515  48.488  0.00  0.00     0.093 H 
ATOM      9  H   ADP d   1      50.741  26.751  47.197  0.00  0.00     0.122 H 
ENDROOT
BRANCH   5  10
ATOM     10  N9  ADP d   1      50.243  25.009  46.101  0.00  0.00    -0.294 N 
ATOM     11  C8  ADP d   1      50.781  24.367  45.045  0.00  0.00     0.071 A 
ATOM     12  N7  ADP d   1      49.817  23.881  44.225  0.00  0.00    -0.236 NA
ATOM     13  H   ADP d   1      51.850  24.253  44.873  0.00  0.00     0.144 H 
ATOM     14  C5  ADP d   1      48.632  24.215  44.753  0.00  0.00     0.149 A 
ATOM     15  C6  ADP d   1      47.208  24.021  44.397  0.00  0.00     0.155 A 
ATOM     16  C4  ADP d   1      48.917  24.957  45.987  0.00  0.00     0.167 A 
ATOM     17  N6  ADP d   1      46.859  23.349  43.282  0.00  0.00    -0.382 N 
ATOM     18  N1  ADP d   1      46.271  24.535  45.227  0.00  0.00    -0.222 NA
ATOM     19  H   ADP d   1      45.864  23.222  43.047  0.00  0.00     0.157 HD
ATOM     20  H   ADP d   1      47.587  22.962  42.664  0.00  0.00     0.157 HD
ATOM     21  C2  ADP d   1      46.606  25.207  46.348  0.00  0.00     0.091 A 
ATOM     22  N3  ADP d   1      47.880  25.418  46.725  0.00  0.00    -0.222 NA
ATOM     23  H   ADP d   1      45.811  25.595  46.974  0.00  0.00     0.146 H 
ENDBRANCH   5  10
BRANCH   4  24
ATOM     24  O2' ADP d   1      50.479  26.122  49.529  0.00  0.00    -0.388 OA
ATOM     25  H   ADP d   1      50.307  25.736  50.380  0.00  0.00     0.210 HD
ENDBRANCH   4  24
BRANCH   1  26
ATOM     26  C5' ADP d   1      53.464  23.355  47.176  0.00  0.00     0.058 C 
ATOM     27  H   ADP d   1      52.747  23.068  46.393  0.00  0.00     0.079 H 
ATOM     28  H   ADP d   1      54.418  23.645  46.711  0.00  0.00     0.079 H 
BRANCH  26  29
ATOM     29  O5' ADP d   1      53.680  22.250  48.046  0.00  0.00    -0.287 OA
BRANCH  29  30
ATOM     30  PA  ADP d   1      53.098  20.784  47.726  0.00  0.00     0.418 P 
ATOM     31  O1A ADP d   1      51.728  20.879  47.090  0.00  0.00    -0.624 OA
ATOM     32  O2A ADP d   1      53.291  20.010  49.004  0.00  0.00    -0.624 OA
BRANCH  30  33
ATOM     33  O3A ADP d   1      54.127  20.246  46.613  0.00  0.00    -0.173 OA
BRANCH  33  34
ATOM     34  PB  ADP d   1      54.109  18.721  46.110  0.00  0.00     0.431 P 
ATOM     35  O1B ADP d   1      55.164  18.682  45.034  0.00  0.00    -0.616 OA
ATOM     36  O2B ADP d   1      54.448  17.927  47.347  0.00  0.00    -0.616 OA
ATOM     37  O3B ADP d   1      52.700  18.532  45.614  0.00  0.00    -0.616 OA
ENDBRANCH  33  34
ENDBRANCH  30  33
ENDBRANCH  29  30
ENDBRANCH  26  29
ENDBRANCH   1  26
BRANCH   3  38
ATOM     38  O3' ADP d   1      52.155  24.313  50.275  0.00  0.00    -0.390 OA
ATOM     39  H   ADP d   1      52.392  25.219  50.435  0.00  0.00     0.210 HD
ENDBRANCH   3  38
TORSDOF 8
