REMARK  8 active torsions:
REMARK  status: ('A' for Active; 'I' for Inactive)
REMARK    1  A    between atoms: O3A_8  and  PB_1 
REMARK    2  A    between atoms: PA_5  and  O3A_8 
REMARK    3  A    between atoms: PA_5  and  O5'_9 
REMARK    4  A    between atoms: O5'_9  and  C5'_10 
REMARK    5  A    between atoms: C5'_10  and  C4'_11 
REMARK    6  A    between atoms: C3'_13  and  O3'_14 
REMARK    7  A    between atoms: C2'_15  and  O2'_16 
REMARK    8  A    between atoms: C1'_17  and  N9_18 
ROOT
ATOM      1  C4' ADP d   1      -9.617  31.293  -8.248  0.00  0.00     0.089 C 
ATOM      2  O4' ADP d   1     -10.280  32.320  -7.516  0.00  0.00    -0.353 OA
ATOM      3  C3' ADP d   1      -8.627  31.974  -9.194  0.00  0.00     0.091 C 
ATOM      4  C2' ADP d   1      -8.777  33.462  -8.969  0.00  0.00     0.105 C 
ATOM      5  C1' ADP d   1      -9.522  33.518  -7.660  0.00  0.00     0.139 C 
ATOM      6  H   ADP d   1     -10.332  30.682  -8.819  0.00  0.00     0.090 H 
ATOM      7  H   ADP d   1      -7.603  31.673  -8.928  0.00  0.00     0.091 H 
ATOM      8  H   ADP d   1      -7.792  33.948  -8.915  0.00  0.00     0.093 H 
ATOM      9  H   ADP d   1     -10.211  34.375  -7.694  0.00  0.00     0.122 H 
ENDROOT
BRANCH   5  10
ATOM     10  N9  ADP d   1      -8.639  33.689  -6.489  0.00  0.00    -0.294 N 
ATOM     11  C8  ADP d   1      -8.400  32.826  -5.476  0.00  0.00     0.071 A 
ATOM     12  N7  ADP d   1      -7.572  33.359  -4.560  0.00  0.00    -0.236 NA
ATOM     13  H   ADP d   1      -8.825  31.825  -5.410  0.00  0.00     0.144 H 
ATOM     14  C5  ADP d   1      -7.290  34.594  -4.975  0.00  0.00     0.149 A 
ATOM     15  C6  ADP d   1      -6.481  35.705  -4.455  0.00  0.00     0.155 A 
ATOM     16  C4  ADP d   1      -7.992  34.807  -6.238  0.00  0.00     0.167 A 
ATOM     17  N6  ADP d   1      -5.807  35.564  -3.304  0.00  0.00    -0.382 N 
ATOM     18  N1  ADP d   1      -6.433  36.822  -5.188  0.00  0.00    -0.222 NA
ATOM     19  H   ADP d   1      -5.240  36.343  -2.940  0.00  0.00     0.157 HD
ATOM     20  H   ADP d   1      -5.856  34.676  -2.784  0.00  0.00     0.157 HD
ATOM     21  C2  ADP d   1      -7.114  36.947  -6.347  0.00  0.00     0.091 A 
ATOM     22  N3  ADP d   1      -7.867  35.980  -6.881  0.00  0.00    -0.222 NA
ATOM     23  H   ADP d   1      -7.046  37.890  -6.878  0.00  0.00     0.146 H 
ENDBRANCH   5  10
BRANCH   4  24
ATOM     24  O2' ADP d   1      -9.605  34.137  -9.926  0.00  0.00    -0.388 OA
ATOM     25  H   ADP d   1      -9.237  34.028 -10.795  0.00  0.00     0.210 HD
ENDBRANCH   4  24
BRANCH   1  26
ATOM     26  C5' ADP d   1      -8.900  30.449  -7.221  0.00  0.00     0.058 C 
ATOM     27  H   ADP d   1      -7.943  30.916  -6.943  0.00  0.00     0.079 H 
ATOM     28  H   ADP d   1      -9.524  30.328  -6.323  0.00  0.00     0.079 H 
BRANCH  26  29
ATOM     29  O5' ADP d   1      -8.683  29.238  -7.815  0.00  0.00    -0.287 OA
BRANCH  29  30
ATOM     30  PA  ADP d   1      -7.228  28.731  -8.196  0.00  0.00     0.418 P 
ATOM     31  O1A ADP d   1      -7.660  27.532  -8.997  0.00  0.00    -0.624 OA
ATOM     32  O2A ADP d   1      -6.344  29.776  -8.798  0.00  0.00    -0.624 OA
BRANCH  30  33
ATOM     33  O3A ADP d   1      -6.677  28.325  -6.733  0.00  0.00    -0.173 OA
BRANCH  33  34
ATOM     34  PB  ADP d   1      -5.469  27.318  -6.469  0.00  0.00     0.431 P 
ATOM     35  O1B ADP d   1      -5.288  26.511  -7.748  0.00  0.00    -0.616 OA
ATOM     36  O2B ADP d   1      -4.332  28.234  -6.191  0.00  0.00    -0.616 OA
ATOM     37  O3B ADP d   1      -5.926  26.477  -5.330  0.00  0.00    -0.616 OA
ENDBRANCH  33  34
ENDBRANCH  30  33
ENDBRANCH  29  30
ENDBRANCH  26  29
ENDBRANCH   1  26
BRANCH   3  38
ATOM     38  O3' ADP d   1      -8.862  31.593 -10.542  0.00  0.00    -0.390 OA
ATOM     39  H   ADP d   1      -9.743  31.844 -10.792  0.00  0.00     0.210 HD
ENDBRANCH   3  38
TORSDOF 8
