REMARK  8 active torsions:
REMARK  status: ('A' for Active; 'I' for Inactive)
REMARK    1  A    between atoms: C10_1  and  N3_2 
REMARK    2  A    between atoms: C1_10  and  O1_11 
REMARK    3  A    between atoms: O1_11  and  C1_12 
REMARK    4  A    between atoms: C2_13  and  O2_18 
REMARK    5  A    between atoms: C3_14  and  O3_19 
REMARK    6  A    between atoms: C4_15  and  O4_20 
REMARK    7  A    between atoms: C5_16  and  C6_17 
REMARK    8  A    between atoms: C6_17  and  O6_22 
ROOT
ATOM      1  H9  MHD d   1      17.985  11.757  35.145  0.00  0.00     0.134 H 
ATOM      2  H10 MHD d   1      16.282   9.495  34.047  0.00  0.00     0.094 H 
ATOM      3  H11 MHD d   1      19.220   9.766  34.459  0.00  0.00     0.091 H 
ATOM      4  H12 MHD d   1      19.486   9.789  32.158  0.00  0.00     0.091 H 
ATOM      5  H13 MHD d   1      19.163  11.923  33.086  0.00  0.00     0.090 H 
ATOM      6  C1  GAL d   1      17.119  11.365  34.591  0.00  0.00     0.164 C 
ATOM      7  C2  GAL d   1      17.172   9.886  34.563  0.00  0.00     0.110 C 
ATOM      8  C3  GAL d   1      18.344   9.448  33.874  0.00  0.00     0.092 C 
ATOM      9  C4  GAL d   1      18.478  10.011  32.538  0.00  0.00     0.090 C 
ATOM     10  C5  GAL d   1      18.300  11.490  32.560  0.00  0.00     0.089 C 
ATOM     11  O5  GAL d   1      17.127  11.885  33.232  0.00  0.00    -0.348 OA
ENDROOT
BRANCH   6  12
ATOM     12  O1  MHD d   1      15.972  11.752  35.193  0.00  0.00    -0.315 OA
BRANCH  12  13
ATOM     13  C1  MHD d   1      15.952  13.177  35.424  0.00  0.00     0.100 A 
ATOM     14  C2  MHD d   1      16.901  14.145  35.028  0.00  0.00     0.013 A 
ATOM     15  N3  MHD d   1      16.458  15.342  35.470  0.00  0.00    -0.358 N 
ATOM     16  H4  MHD d   1      17.818  13.961  34.471  0.00  0.00     0.116 H 
ATOM     17  C4  MHD d   1      15.267  15.203  36.129  0.00  0.00     0.047 A 
ATOM     18  C5  MHD d   1      14.378  16.185  36.792  0.00  0.00    -0.056 A 
ATOM     19  C9  MHD d   1      14.915  13.840  36.125  0.00  0.00     0.026 A 
ATOM     20  C6  MHD d   1      13.188  15.744  37.412  0.00  0.00    -0.081 A 
ATOM     21  H5  MHD d   1      14.639  17.237  36.801  0.00  0.00     0.087 H 
ATOM     22  C7  MHD d   1      12.831  14.365  37.400  0.00  0.00    -0.082 A 
ATOM     23  H6  MHD d   1      12.540  16.462  37.902  0.00  0.00     0.083 H 
ATOM     24  C8  MHD d   1      13.713  13.392  36.738  0.00  0.00    -0.068 A 
ATOM     25  H7  MHD d   1      11.915  14.035  37.876  0.00  0.00     0.083 H 
ATOM     26  H8  MHD d   1      13.449  12.341  36.718  0.00  0.00     0.085 H 
BRANCH  15  27
ATOM     27  C10 MHD d   1      17.149  16.618  35.272  0.00  0.00    -0.014 C 
ATOM     28  H1  MHD d   1      18.081  16.447  34.713  0.00  0.00     0.057 H 
ATOM     29  H2  MHD d   1      17.384  17.063  36.250  0.00  0.00     0.057 H 
ATOM     30  H3  MHD d   1      16.501  17.302  34.704  0.00  0.00     0.057 H 
ENDBRANCH  15  27
ENDBRANCH  12  13
ENDBRANCH   6  12
BRANCH   7  31
ATOM     31  O2  GAL d   1      17.189   9.404  35.940  0.00  0.00    -0.388 OA
ATOM     32  H16 MHD d   1      16.406   9.701  36.388  0.00  0.00     0.210 HD
ENDBRANCH   7  31
BRANCH   8  33
ATOM     33  O3  GAL d   1      18.331   7.982  33.809  0.00  0.00    -0.390 OA
ATOM     34  H17 MHD d   1      17.598   7.696  33.276  0.00  0.00     0.210 HD
ENDBRANCH   8  33
BRANCH  10  35
ATOM     35  C6  GAL d   1      18.251  12.062  31.156  0.00  0.00     0.043 C 
ATOM     36  H14 MHD d   1      17.329  11.712  30.669  0.00  0.00     0.078 H 
ATOM     37  H15 MHD d   1      19.124  11.693  30.598  0.00  0.00     0.078 H 
BRANCH  35  38
ATOM     38  O6  GAL d   1      18.265  13.456  31.127  0.00  0.00    -0.398 OA
ATOM     39  H19 MHD d   1      18.233  13.753  30.225  0.00  0.00     0.209 HD
ENDBRANCH  35  38
ENDBRANCH  10  35
BRANCH   9  40
ATOM     40  O4  GAL d   1      17.500   9.378  31.669  0.00  0.00    -0.390 OA
ATOM     41  H18 MHD d   1      17.602   9.710  30.785  0.00  0.00     0.210 HD
ENDBRANCH   9  40
TORSDOF 8
