REMARK  8 active torsions:
REMARK  status: ('A' for Active; 'I' for Inactive)
REMARK    1  A    between atoms: C23_7  and  O4_1 
REMARK    2  A    between atoms: C30_14  and  O6_4 
REMARK    3  A    between atoms: O6_4  and  C1_17 
REMARK    4  A    between atoms: C2_18  and  O2_23 
REMARK    5  A    between atoms: C3_19  and  O3_24 
REMARK    6  A    between atoms: C4_20  and  O4_25 
REMARK    7  A    between atoms: C5_21  and  C6_22 
REMARK    8  A    between atoms: C6_22  and  O6_27 
ROOT
ATOM      1  O5  04G d   1      16.926  17.536  35.184  0.00  0.00    -0.306 OA
ATOM      2  N6  04G d   1      14.943  18.074  37.051  0.00  0.00    -0.352 N 
ATOM      3  C21 04G d   1      15.629  20.447  37.061  0.00  0.00    -0.052 A 
ATOM      4  C22 04G d   1      16.468  21.465  36.592  0.00  0.00    -0.049 A 
ATOM      5  C23 04G d   1      17.462  21.170  35.648  0.00  0.00     0.068 A 
ATOM      6  C24 04G d   1      17.615  19.861  35.177  0.00  0.00    -0.016 A 
ATOM      7  C25 04G d   1      16.758  18.818  35.656  0.00  0.00     0.105 A 
ATOM      8  C26 04G d   1      15.789  19.112  36.581  0.00  0.00     0.067 A 
ATOM      9  C27 04G d   1      15.129  16.754  36.546  0.00  0.00     0.067 A 
ATOM     10  C28 04G d   1      16.116  16.514  35.628  0.00  0.00     0.105 A 
ATOM     11  C29 04G d   1      16.311  15.186  35.114  0.00  0.00    -0.016 A 
ATOM     12  C30 04G d   1      15.482  14.148  35.570  0.00  0.00     0.075 A 
ATOM     13  C31 04G d   1      14.474  14.399  36.512  0.00  0.00    -0.048 A 
ATOM     14  C32 04G d   1      14.289  15.694  37.007  0.00  0.00    -0.052 A 
ATOM     15  H2  04G d   1      14.208  18.271  37.745  0.00  0.00     0.166 HD
ATOM     16  H3  04G d   1      14.858  20.672  37.789  0.00  0.00     0.087 H 
ATOM     17  H4  04G d   1      16.349  22.479  36.958  0.00  0.00     0.087 H 
ATOM     18  H5  04G d   1      18.384  19.636  34.447  0.00  0.00     0.092 H 
ATOM     19  H6  04G d   1      17.088  14.988  34.384  0.00  0.00     0.092 H 
ATOM     20  H7  04G d   1      13.839  13.591  36.856  0.00  0.00     0.087 H 
ATOM     21  H8  04G d   1      13.512  15.893  37.737  0.00  0.00     0.087 H 
ENDROOT
BRANCH  12  22
ATOM     22  O6  04G d   1      15.615  12.850  35.101  0.00  0.00    -0.318 OA
BRANCH  22  23
ATOM     23  C1  GAL d   1      16.822  12.573  34.568  0.00  0.00     0.164 C 
ATOM     24  C2  GAL d   1      16.971  11.089  34.593  0.00  0.00     0.110 C 
ATOM     25  C3  GAL d   1      18.152  10.643  33.920  0.00  0.00     0.092 C 
ATOM     26  H10 04G d   1      16.102  10.643  34.088  0.00  0.00     0.094 H 
ATOM     27  C4  GAL d   1      18.246  11.160  32.549  0.00  0.00     0.090 C 
ATOM     28  H11 04G d   1      19.027  11.004  34.481  0.00  0.00     0.091 H 
ATOM     29  C5  GAL d   1      18.057  12.664  32.523  0.00  0.00     0.089 C 
ATOM     30  H12 04G d   1      19.240  10.919  32.145  0.00  0.00     0.091 H 
ATOM     31  O5  GAL d   1      16.873  13.057  33.171  0.00  0.00    -0.348 OA
ATOM     32  H13 04G d   1      18.911  13.125  33.041  0.00  0.00     0.090 H 
ATOM     33  H9  04G d   1      17.620  13.049  35.157  0.00  0.00     0.134 H 
BRANCH  24  34
ATOM     34  O2  GAL d   1      16.984  10.658  35.975  0.00  0.00    -0.388 OA
ATOM     35  H16 04G d   1      16.195  10.961  36.408  0.00  0.00     0.210 HD
ENDBRANCH  24  34
BRANCH  25  36
ATOM     36  O3  GAL d   1      18.168   9.182  33.912  0.00  0.00    -0.390 OA
ATOM     37  H17 04G d   1      17.430   8.861  33.407  0.00  0.00     0.210 HD
ENDBRANCH  25  36
BRANCH  27  38
ATOM     38  O4  GAL d   1      17.261  10.552  31.748  0.00  0.00    -0.390 OA
ATOM     39  H18 04G d   1      17.341  10.867  30.855  0.00  0.00     0.210 HD
ENDBRANCH  27  38
BRANCH  29  40
ATOM     40  C6  GAL d   1      18.012  13.172  31.116  0.00  0.00     0.043 C 
ATOM     41  H14 04G d   1      17.137  12.727  30.621  0.00  0.00     0.078 H 
ATOM     42  H15 04G d   1      18.929  12.843  30.605  0.00  0.00     0.078 H 
BRANCH  40  43
ATOM     43  O6  GAL d   1      17.922  14.546  30.991  0.00  0.00    -0.398 OA
ATOM     44  H19 04G d   1      17.128  14.850  31.415  0.00  0.00     0.209 HD
ENDBRANCH  40  43
ENDBRANCH  29  40
ENDBRANCH  22  23
ENDBRANCH  12  22
BRANCH   5  45
ATOM     45  O4  04G d   1      18.289  22.174  35.189  0.00  0.00    -0.361 OA
ATOM     46  H1  04G d   1      18.903  21.814  34.560  0.00  0.00     0.217 HD
ENDBRANCH   5  45
TORSDOF 8
