REMARK  8 active torsions:
REMARK  status: ('A' for Active; 'I' for Inactive)
REMARK    1  A    between atoms: C1_4  and  N_3 
REMARK    2  A    between atoms: C3_6  and  C1_4 
REMARK    3  A    between atoms: C2_5  and  C14_17 
REMARK    4  A    between atoms: C5_8  and  C4_7 
REMARK    5  A    between atoms: N2_12  and  C7_13 
REMARK    6  A    between atoms: C7_13  and  C8_14 
REMARK    7  A    between atoms: C8_14  and  O1_15 
REMARK    8  A    between atoms: O1_15  and  C10_16 
ROOT
ATOM      1  C   1WH d   1      49.995  49.681  34.585  0.00  0.00     0.257 C 
ATOM      2  C7A 1WH d   1      48.635  50.244  34.347  0.00  0.00     0.070 A 
ATOM      3  C2  1WH d   1      47.487  50.439  35.182  0.00  0.00     0.004 A 
ATOM      4  C3  1WH d   1      46.417  51.218  34.613  0.00  0.00     0.004 A 
ATOM      5  C5  1WH d   1      46.606  51.808  33.331  0.00  0.00     0.040 A 
ATOM      6  N1  1WH d   1      47.725  51.630  32.568  0.00  0.00    -0.255 NA
ATOM      7  C3A 1WH d   1      48.702  50.847  33.080  0.00  0.00     0.069 A 
ATOM      8  C6  1WH d   1      50.050  50.551  32.426  0.00  0.00     0.039 C 
ATOM      9  N2  1WH d   1      50.705  49.776  33.467  0.00  0.00    -0.340 N 
ATOM     10  O2  1WH d   1      50.516  49.195  35.582  0.00  0.00    -0.267 OA
ATOM     11  H9  1WH d   1      50.602  51.476  32.204  0.00  0.00     0.074 H 
ATOM     12  H10 1WH d   1      49.930  49.965  31.503  0.00  0.00     0.074 H 
ENDROOT
BRANCH   3  13
ATOM     13  C14 1WH d   1      47.463  50.022  36.616  0.00  0.00    -0.002 A 
ATOM     14  C15 1WH d   1      48.012  50.817  37.678  0.00  0.00     0.046 A 
ATOM     15 CL   1WH d   1      48.780  52.241  37.483  0.00  0.00    -0.083 Cl
ATOM     16  C16 1WH d   1      47.973  50.545  39.064  0.00  0.00    -0.040 A 
ATOM     17  C17 1WH d   1      47.318  49.360  39.356  0.00  0.00     0.035 A 
ATOM     18  H18 1WH d   1      48.408  51.193  39.816  0.00  0.00     0.088 H 
ATOM     19 CL1  1WH d   1      47.280  49.133  40.979  0.00  0.00    -0.084 Cl
ATOM     20  C18 1WH d   1      46.761  48.477  38.359  0.00  0.00    -0.061 A 
ATOM     21  C19 1WH d   1      46.830  48.805  36.964  0.00  0.00    -0.069 A 
ATOM     22  H19 1WH d   1      46.284  47.554  38.668  0.00  0.00     0.086 H 
ATOM     23  H20 1WH d   1      46.415  48.148  36.208  0.00  0.00     0.085 H 
ENDBRANCH   3  13
BRANCH   4  24
ATOM     24  C1  1WH d   1      45.076  51.524  35.302  0.00  0.00     0.106 C 
ATOM     25  H4  1WH d   1      44.410  52.057  34.607  0.00  0.00     0.082 H 
ATOM     26  H5  1WH d   1      44.597  50.587  35.624  0.00  0.00     0.082 H 
BRANCH  24  27
ATOM     27  N   1WH d   1      45.360  52.363  36.463  0.00  0.00    -0.075 N 
ATOM     28  H1  1WH d   1      44.498  52.582  36.938  0.00  0.00     0.274 HD
ATOM     29  H2  1WH d   1      45.803  53.216  36.161  0.00  0.00     0.274 HD
ATOM     30  H3  1WH d   1      45.974  51.870  37.092  0.00  0.00     0.274 HD
ENDBRANCH  24  27
ENDBRANCH   4  24
BRANCH   5  31
ATOM     31  C4  1WH d   1      45.557  52.744  32.874  0.00  0.00    -0.035 C 
ATOM     32  H6  1WH d   1      45.818  53.129  31.877  0.00  0.00     0.035 H 
ATOM     33  H7  1WH d   1      45.480  53.582  33.582  0.00  0.00     0.035 H 
ATOM     34  H8  1WH d   1      44.593  52.217  32.823  0.00  0.00     0.035 H 
ENDBRANCH   5  31
BRANCH   9  35
ATOM     35  C7  1WH d   1      51.916  48.982  33.277  0.00  0.00     0.018 C 
ATOM     36  H11 1WH d   1      52.483  48.886  34.215  0.00  0.00     0.067 H 
ATOM     37  H12 1WH d   1      52.562  49.417  32.501  0.00  0.00     0.067 H 
BRANCH  35  38
ATOM     38  C8  1WH d   1      51.347  47.643  32.836  0.00  0.00     0.034 C 
ATOM     39  H13 1WH d   1      50.934  47.739  31.821  0.00  0.00     0.076 H 
ATOM     40  H14 1WH d   1      50.549  47.339  33.529  0.00  0.00     0.076 H 
BRANCH  38  41
ATOM     41  O1  1WH d   1      52.358  46.672  32.837  0.00  0.00    -0.394 OA
BRANCH  41  42
ATOM     42  C10 1WH d   1      52.777  46.065  31.612  0.00  0.00     0.004 C 
ATOM     43  H15 1WH d   1      53.573  45.335  31.818  0.00  0.00     0.066 H 
ATOM     44  H16 1WH d   1      53.158  46.840  30.930  0.00  0.00     0.066 H 
ATOM     45  H17 1WH d   1      51.922  45.554  31.145  0.00  0.00     0.066 H 
ENDBRANCH  41  42
ENDBRANCH  38  41
ENDBRANCH  35  38
ENDBRANCH   9  35
TORSDOF 8
