REMARK  2 active torsions:
REMARK  status: ('A' for Active; 'I' for Inactive)
REMARK    1  A    between atoms: N1_1  and  C2_2 
REMARK    2  A    between atoms: C4_4  and  S5_5 
ROOT
ATOM      1  C2  1XM d   1       3.424  14.061  42.652  0.00  0.00     0.139 A 
ATOM      2  N3  1XM d   1       3.525  14.112  44.012  0.00  0.00    -0.205 NA
ATOM      3  C4  1XM d   1       4.117  13.117  44.742  0.00  0.00     0.189 A 
ATOM      4  N6  1XM d   1       4.656  12.013  44.154  0.00  0.00    -0.203 NA
ATOM      5  C7  1XM d   1       4.575  11.927  42.803  0.00  0.00     0.162 A 
ATOM      6  N8  1XM d   1       4.990  10.981  41.938  0.00  0.00    -0.261 N 
ATOM      7  N9  1XM d   1       4.672  11.350  40.697  0.00  0.00    -0.184 NA
ATOM      8  C10 1XM d   1       4.042  12.548  40.713  0.00  0.00     0.039 A 
ATOM      9  C11 1XM d   1       3.968  12.936  42.043  0.00  0.00     0.076 A 
ATOM     10  H   1XM d   1       5.476  10.110  42.195  0.00  0.00     0.191 HD
ATOM     11  H   1XM d   1       3.667  13.099  39.852  0.00  0.00     0.119 H 
ENDROOT
BRANCH   1  12
ATOM     12  N1  1XM d   1       2.833  15.038  41.940  0.00  0.00    -0.383 N 
ATOM     13  H   1XM d   1       2.775  14.965  40.914  0.00  0.00     0.157 HD
ATOM     14  H   1XM d   1       2.438  15.859  42.421  0.00  0.00     0.157 HD
ENDBRANCH   1  12
BRANCH   3  15
ATOM     15  S5  1XM d   1       4.221  13.216  46.514  0.00  0.00    -0.103 SA
ATOM     16  H   1XM d   1       4.687  12.396  46.868  0.00  0.00     0.110 HD
ENDBRANCH   3  15
TORSDOF 2
