REMARK  16 active torsions:
REMARK  status: ('A' for Active; 'I' for Inactive)
REMARK    1  A    between atoms: C2_2  and  N1_1 
REMARK    2  A    between atoms: S8_8  and  C5_5 
REMARK    3  A    between atoms: N11_11  and  S8_8 
REMARK    4  A    between atoms: N11_11  and  C12_12 
REMARK    5  A    between atoms: C16_16  and  N11_11 
REMARK    6  A    between atoms: C12_12  and  C13_13 
REMARK    7  A    between atoms: C13_13  and  C14_14 
REMARK    8  A    between atoms: C13_13  and  C15_15 
REMARK    9  A    between atoms: C17_17  and  C16_16 
REMARK   10  A    between atoms: C17_17  and  O18_18 
REMARK   11  A    between atoms: C19_19  and  C17_17 
REMARK   12  A    between atoms: C19_19  and  N20_20 
REMARK   13  A    between atoms: C32_32  and  C19_19 
REMARK       I    between atoms: N20_20  and  C21_21 
REMARK   14  A    between atoms: C21_21  and  O23_23 
REMARK   15  A    between atoms: O23_23  and  C24_24 
REMARK   16  A    between atoms: C38_38  and  C32_32 
ROOT
ATOM      1  C19 017 d   1     -10.400  15.731  27.161  0.00  0.00     0.044 C 
ATOM      2  H   017 d   1      -9.648  14.977  26.887  0.00  0.00     0.077 H 
ENDROOT
BRANCH   1   3
ATOM      3  C17 017 d   1     -10.002  17.105  26.646  0.00  0.00     0.067 C 
ATOM      4  H   017 d   1      -9.137  17.442  27.236  0.00  0.00     0.088 H 
BRANCH   3   5
ATOM      5  C16 017 d   1      -9.555  17.085  25.176  0.00  0.00     0.019 C 
ATOM      6  H   017 d   1     -10.338  16.618  24.560  0.00  0.00     0.061 H 
ATOM      7  H   017 d   1      -9.382  18.115  24.830  0.00  0.00     0.061 H 
BRANCH   5   8
ATOM      8  N11 017 d   1      -8.302  16.306  25.058  0.00  0.00    -0.204 NA
BRANCH   8   9
ATOM      9  S8  017 d   1      -8.425  14.971  24.116  0.00  0.00     0.243 S 
ATOM     10  O9  017 d   1      -9.589  14.227  24.495  0.00  0.00    -0.206 OA
ATOM     11  O10 017 d   1      -7.273  14.169  24.374  0.00  0.00    -0.206 OA
BRANCH   9  12
ATOM     12  C5  017 d   1      -8.506  15.309  22.546  0.00  0.00     0.074 A 
ATOM     13  C4  017 d   1      -9.747  15.525  21.941  0.00  0.00    -0.059 A 
ATOM     14  C3  017 d   1      -9.826  15.832  20.583  0.00  0.00    -0.056 A 
ATOM     15  H   017 d   1     -10.654  15.454  22.531  0.00  0.00     0.086 H 
ATOM     16  C2  017 d   1      -8.659  15.912  19.819  0.00  0.00     0.025 A 
ATOM     17  H   017 d   1     -10.791  16.008  20.121  0.00  0.00     0.086 H 
ATOM     18  C7  017 d   1      -7.418  15.673  20.412  0.00  0.00    -0.056 A 
ATOM     19  C6  017 d   1      -7.339  15.371  21.776  0.00  0.00    -0.059 A 
ATOM     20  H   017 d   1      -6.514  15.721  19.815  0.00  0.00     0.086 H 
ATOM     21  H   017 d   1      -6.375  15.185  22.236  0.00  0.00     0.086 H 
BRANCH  16  22
ATOM     22  N1  017 d   1      -8.728  16.190  18.490  0.00  0.00    -0.399 N 
ATOM     23  H   017 d   1      -9.641  16.367  18.048  0.00  0.00     0.156 HD
ATOM     24  H   017 d   1      -7.867  16.224  17.925  0.00  0.00     0.156 HD
ENDBRANCH  16  22
ENDBRANCH   9  12
ENDBRANCH   8   9
BRANCH   8  25
ATOM     25  C12 017 d   1      -7.169  17.194  24.703  0.00  0.00    -0.004 C 
ATOM     26  H   017 d   1      -7.521  17.943  23.979  0.00  0.00     0.058 H 
ATOM     27  H   017 d   1      -6.375  16.586  24.245  0.00  0.00     0.058 H 
BRANCH  25  28
ATOM     28  C13 017 d   1      -6.590  17.922  25.921  0.00  0.00    -0.049 C 
ATOM     29  H   017 d   1      -7.377  18.588  26.305  0.00  0.00     0.040 H 
BRANCH  28  30
ATOM     30  C14 017 d   1      -6.216  16.966  27.053  0.00  0.00    -0.072 C 
ATOM     31  H   017 d   1      -5.808  17.540  27.898  0.00  0.00     0.028 H 
ATOM     32  H   017 d   1      -5.460  16.252  26.695  0.00  0.00     0.028 H 
ATOM     33  H   017 d   1      -7.112  16.418  27.381  0.00  0.00     0.028 H 
ENDBRANCH  28  30
BRANCH  28  34
ATOM     34  C15 017 d   1      -5.396  18.801  25.525  0.00  0.00    -0.072 C 
ATOM     35  H   017 d   1      -5.693  19.478  24.710  0.00  0.00     0.028 H 
ATOM     36  H   017 d   1      -4.567  18.162  25.187  0.00  0.00     0.028 H 
ATOM     37  H   017 d   1      -5.072  19.393  26.394  0.00  0.00     0.028 H 
ENDBRANCH  28  34
ENDBRANCH  25  28
ENDBRANCH   8  25
ENDBRANCH   5   8
ENDBRANCH   3   5
BRANCH   3  38
ATOM     38  O18 017 d   1     -11.083  18.030  26.890  0.00  0.00    -0.392 OA
ATOM     39  H   017 d   1     -11.833  17.785  26.361  0.00  0.00     0.210 HD
ENDBRANCH   3  38
ENDBRANCH   1   3
BRANCH   1  40
ATOM     40  N20 017 d   1     -10.498  15.921  28.604  0.00  0.00    -0.329 N 
ATOM     41  C21 017 d   1      -9.714  15.260  29.447  0.00  0.00     0.361 C 
ATOM     42  O22 017 d   1      -8.844  14.445  29.115  0.00  0.00    -0.238 OA
ATOM     43  H   017 d   1     -11.172  16.565  28.967  0.00  0.00     0.165 HD
BRANCH  41  44
ATOM     44  O23 017 d   1      -9.940  15.581  30.845  0.00  0.00    -0.296 OA
BRANCH  44  45
ATOM     45  C24 017 d   1      -9.345  14.725  31.795  0.00  0.00     0.078 C 
ATOM     46  C25 017 d   1      -9.090  15.630  32.984  0.00  0.00     0.048 C 
ATOM     47  O26 017 d   1     -10.319  15.634  33.711  0.00  0.00    -0.358 OA
ATOM     48  H   017 d   1      -8.835  16.646  32.650  0.00  0.00     0.078 H 
ATOM     49  H   017 d   1      -8.274  15.233  33.605  0.00  0.00     0.078 H 
ATOM     50  C27 017 d   1     -11.107  14.478  33.392  0.00  0.00     0.137 C 
ATOM     51  O28 017 d   1     -12.368  14.856  32.840  0.00  0.00    -0.361 OA
ATOM     52  C31 017 d   1     -10.379  13.739  32.300  0.00  0.00     0.023 C 
ATOM     53  H   017 d   1     -11.246  13.848  34.283  0.00  0.00     0.129 H 
ATOM     54  C29 017 d   1     -12.723  13.990  31.755  0.00  0.00     0.023 C 
ATOM     55  C30 017 d   1     -11.440  13.330  31.291  0.00  0.00    -0.035 C 
ATOM     56  H   017 d   1     -13.169  14.572  30.935  0.00  0.00     0.074 H 
ATOM     57  H   017 d   1     -13.440  13.229  32.096  0.00  0.00     0.074 H 
ATOM     58  H   017 d   1     -11.169  13.683  30.285  0.00  0.00     0.037 H 
ATOM     59  H   017 d   1     -11.555  12.236  31.277  0.00  0.00     0.037 H 
ATOM     60  H   017 d   1      -9.876  12.840  32.685  0.00  0.00     0.051 H 
ATOM     61  H   017 d   1      -8.440  14.230  31.412  0.00  0.00     0.088 H 
ENDBRANCH  44  45
ENDBRANCH  41  44
ENDBRANCH   1  40
BRANCH   1  62
ATOM     62  C32 017 d   1     -11.792  15.287  26.704  0.00  0.00    -0.020 C 
ATOM     63  H   017 d   1     -11.800  15.200  25.608  0.00  0.00     0.043 H 
ATOM     64  H   017 d   1     -12.530  16.040  27.017  0.00  0.00     0.043 H 
BRANCH  62  65
ATOM     65  C38 017 d   1     -12.160  13.957  27.306  0.00  0.00    -0.056 A 
ATOM     66  C33 017 d   1     -13.280  13.875  28.147  0.00  0.00    -0.077 A 
ATOM     67  C34 017 d   1     -13.649  12.653  28.706  0.00  0.00    -0.082 A 
ATOM     68  H   017 d   1     -13.860  14.765  28.363  0.00  0.00     0.084 H 
ATOM     69  C35 017 d   1     -12.891  11.516  28.423  0.00  0.00    -0.083 A 
ATOM     70  H   017 d   1     -14.516  12.586  29.354  0.00  0.00     0.083 H 
ATOM     71  C36 017 d   1     -11.782  11.602  27.581  0.00  0.00    -0.082 A 
ATOM     72  H   017 d   1     -13.165  10.562  28.859  0.00  0.00     0.083 H 
ATOM     73  C37 017 d   1     -11.409  12.819  27.017  0.00  0.00    -0.077 A 
ATOM     74  H   017 d   1     -11.204  10.711  27.363  0.00  0.00     0.083 H 
ATOM     75  H   017 d   1     -10.547  12.881  26.363  0.00  0.00     0.084 H 
ENDBRANCH  62  65
ENDBRANCH   1  62
TORSDOF 16
