REMARK  2 active torsions:
REMARK  status: ('A' for Active; 'I' for Inactive)
REMARK    1  A    between atoms: N1_1  and  C2_2 
REMARK    2  A    between atoms: C4_4  and  N5_5 
ROOT
ATOM      1  C2  1XN d   1       3.680  13.756  42.032  0.00  0.00     0.111 A 
ATOM      2  N3  1XN d   1       3.271  14.608  42.998  0.00  0.00    -0.328 N 
ATOM      3  C4  1XN d   1       3.611  14.142  44.222  0.00  0.00     0.111 A 
ATOM      4  C6  1XN d   1       4.270  12.928  44.038  0.00  0.00     0.021 A 
ATOM      5  C7  1XN d   1       4.824  12.031  44.956  0.00  0.00    -0.069 A 
ATOM      6  C8  1XN d   1       5.425  10.887  44.422  0.00  0.00    -0.082 A 
ATOM      7  C9  1XN d   1       5.462  10.652  43.045  0.00  0.00    -0.082 A 
ATOM      8  C10 1XN d   1       4.911  11.543  42.127  0.00  0.00    -0.069 A 
ATOM      9  C11 1XN d   1       4.313  12.685  42.654  0.00  0.00     0.021 A 
ATOM     10  H   1XN d   1       2.769  15.491  42.826  0.00  0.00     0.169 HD
ATOM     11  H   1XN d   1       4.790  12.213  46.024  0.00  0.00     0.085 H 
ATOM     12  H   1XN d   1       5.874  10.164  45.093  0.00  0.00     0.083 H 
ATOM     13  H   1XN d   1       5.935   9.748  42.680  0.00  0.00     0.083 H 
ATOM     14  H   1XN d   1       4.946  11.357  41.060  0.00  0.00     0.085 H 
ENDROOT
BRANCH   1  15
ATOM     15  N1  1XN d   1       3.493  13.941  40.779  0.00  0.00    -0.385 N 
ATOM     16  H   1XN d   1       3.834  13.246  40.099  0.00  0.00     0.157 HD
ATOM     17  H   1XN d   1       3.002  14.785  40.451  0.00  0.00     0.157 HD
ENDBRANCH   1  15
BRANCH   3  18
ATOM     18  N5  1XN d   1       3.350  14.730  45.339  0.00  0.00    -0.385 N 
ATOM     19  H   1XN d   1       3.647  14.303  46.228  0.00  0.00     0.157 HD
ATOM     20  H   1XN d   1       2.844  15.627  45.343  0.00  0.00     0.157 HD
ENDBRANCH   3  18
TORSDOF 2
