REMARK  1 active torsions:
REMARK  status: ('A' for Active; 'I' for Inactive)
REMARK    1  A    between atoms: CAN_1  and  CAT_2 
ROOT
ATOM      1  CAT MEW d   1       3.913  13.533  42.097  0.00  0.00     0.104 A 
ATOM      2  NAO MEW d   1       3.534  14.293  43.147  0.00  0.00    -0.344 N 
ATOM      3  CAV MEW d   1       3.764  13.849  44.416  0.00  0.00     0.049 A 
ATOM      4  CAK MEW d   1       3.351  14.612  45.502  0.00  0.00    -0.056 A 
ATOM      5  CAG MEW d   1       3.599  14.133  46.798  0.00  0.00    -0.081 A 
ATOM      6  CAH MEW d   1       4.229  12.901  47.020  0.00  0.00    -0.082 A 
ATOM      7  CAL MEW d   1       4.639  12.131  45.932  0.00  0.00    -0.065 A 
ATOM      8  CAW MEW d   1       4.394  12.616  44.636  0.00  0.00     0.060 A 
ATOM      9  CAU MEW d   1       4.779  11.871  43.521  0.00  0.00     0.281 A 
ATOM     10  OAC MEW d   1       5.334  10.794  43.659  0.00  0.00    -0.265 OA
ATOM     11  NAQ MEW d   1       4.524  12.348  42.280  0.00  0.00    -0.196 NA
ATOM     12  H   MEW d   1       3.075  15.201  42.991  0.00  0.00     0.167 HD
ATOM     13  H   MEW d   1       2.847  15.560  45.351  0.00  0.00     0.086 H 
ATOM     14  H   MEW d   1       3.295  14.732  47.649  0.00  0.00     0.083 H 
ATOM     15  H   MEW d   1       4.397  12.549  48.031  0.00  0.00     0.083 H 
ATOM     16  H   MEW d   1       5.136  11.179  46.083  0.00  0.00     0.085 H 
ENDROOT
BRANCH   1  17
ATOM     17  CAN MEW d   1       3.659  14.019  40.691  0.00  0.00    -0.021 C 
ATOM     18  H   MEW d   1       3.155  14.996  40.726  0.00  0.00     0.037 H 
ATOM     19  H   MEW d   1       3.020  13.296  40.163  0.00  0.00     0.037 H 
ATOM     20  H   MEW d   1       4.617  14.119  40.159  0.00  0.00     0.037 H 
ENDBRANCH   1  17
TORSDOF 1
