REMARK  3 active torsions:
REMARK  status: ('A' for Active; 'I' for Inactive)
REMARK    1  A    between atoms: C1_1  and  C2_2 
REMARK    2  A    between atoms: C4_4  and  C5_5 
REMARK    3  A    between atoms: C7_7  and  N8_8 
ROOT
ATOM      1  C2  5ZE d   1       4.891  12.203  44.130  0.00  0.00     0.051 A 
ATOM      2  C3  5ZE d   1       4.785  12.337  42.729  0.00  0.00    -0.035 A 
ATOM      3  C4  5ZE d   1       4.016  13.394  42.212  0.00  0.00     0.051 A 
ATOM      4  N6  5ZE d   1       3.417  14.264  43.066  0.00  0.00    -0.068 NA
ATOM      5  C7  5ZE d   1       3.537  14.119  44.409  0.00  0.00     0.720 A 
ATOM      6  N9  5ZE d   1       4.253  13.091  44.940  0.00  0.00    -0.068 NA
ATOM      7  H   5ZE d   1       5.285  11.640  42.066  0.00  0.00     0.089 H 
ENDROOT
BRANCH   1   8
ATOM      8  C1  5ZE d   1       5.693  11.082  44.763  0.00  0.00    -0.035 C 
ATOM      9  H   5ZE d   1       6.140  10.460  43.974  0.00  0.00     0.035 H 
ATOM     10  H   5ZE d   1       5.030  10.463  45.386  0.00  0.00     0.035 H 
ATOM     11  H   5ZE d   1       6.490  11.510  45.389  0.00  0.00     0.035 H 
ENDBRANCH   1   8
BRANCH   3  12
ATOM     12  C5  5ZE d   1       3.839  13.613  40.722  0.00  0.00    -0.035 C 
ATOM     13  H   5ZE d   1       3.202  14.494  40.554  0.00  0.00     0.035 H 
ATOM     14  H   5ZE d   1       3.365  12.727  40.275  0.00  0.00     0.035 H 
ATOM     15  H   5ZE d   1       4.822  13.777  40.256  0.00  0.00     0.035 H 
ENDBRANCH   3  12
BRANCH   5  16
ATOM     16  N8  5ZE d   1       2.916  14.990  45.213  0.00  0.00    -0.231 N 
ATOM     17  H   5ZE d   1       2.374  15.768  44.809  0.00  0.00     0.174 HD
ATOM     18  H   5ZE d   1       2.980  14.883  46.235  0.00  0.00     0.174 HD
ENDBRANCH   5  16
TORSDOF 3
