REMARK  1 active torsions:
REMARK  status: ('A' for Active; 'I' for Inactive)
REMARK    1  A    between atoms: C5_6  and  N10_10 
ROOT
ATOM      1  C6  5NI d   1       5.412  11.067  43.201  0.00  0.00    -0.049 A 
ATOM      2  C7  5NI d   1       4.779  12.168  43.781  0.00  0.00    -0.050 A 
ATOM      3  C8  5NI d   1       4.118  13.039  42.909  0.00  0.00     0.088 A 
ATOM      4  C9  5NI d   1       4.092  12.823  41.531  0.00  0.00     0.014 A 
ATOM      5  C4  5NI d   1       4.726  11.724  40.955  0.00  0.00    -0.037 A 
ATOM      6  C5  5NI d   1       5.392  10.845  41.816  0.00  0.00     0.103 A 
ATOM      7  N1  5NI d   1       3.415  14.173  43.132  0.00  0.00    -0.175 NA
ATOM      8  N2  5NI d   1       2.965  14.668  41.976  0.00  0.00    -0.288 N 
ATOM      9  C3  5NI d   1       3.360  13.863  40.966  0.00  0.00     0.008 A 
ATOM     10  H   5NI d   1       5.934  10.363  43.839  0.00  0.00     0.087 H 
ATOM     11  H   5NI d   1       4.799  12.339  44.851  0.00  0.00     0.087 H 
ATOM     12  H   5NI d   1       4.704  11.557  39.884  0.00  0.00     0.088 H 
ATOM     13  H   5NI d   1       2.406  15.527  41.871  0.00  0.00     0.188 HD
ATOM     14  H   5NI d   1       3.146  14.002  39.907  0.00  0.00     0.115 H 
ENDROOT
BRANCH   6  15
ATOM     15  N10 5NI d   1       6.018   9.773  41.270  0.00  0.00    -0.116 N 
ATOM     16  O11 5NI d   1       7.217   9.574  41.477  0.00  0.00    -0.532 OA
ATOM     17  O12 5NI d   1       5.396   9.000  40.558  0.00  0.00    -0.532 OA
ENDBRANCH   6  15
TORSDOF 1
