REMARK  1 active torsions:
REMARK  status: ('A' for Active; 'I' for Inactive)
REMARK    1  A    between atoms: N2_2  and  C4_4 
ROOT
ATOM      1  C4  7ZE d   1       4.632  12.515  43.884  0.00  0.00     0.115 A 
ATOM      2  C5  7ZE d   1       4.352  13.213  45.063  0.00  0.00    -0.050 A 
ATOM      3  C6  7ZE d   1       3.700  14.445  45.008  0.00  0.00    -0.078 A 
ATOM      4  C7  7ZE d   1       3.324  14.975  43.777  0.00  0.00    -0.054 A 
ATOM      5  C8  7ZE d   1       3.601  14.281  42.597  0.00  0.00     0.069 A 
ATOM      6  N9  7ZE d   1       3.227  14.821  41.413  0.00  0.00    -0.260 NA
ATOM      7  C10 7ZE d   1       3.470  14.162  40.255  0.00  0.00     0.003 A 
ATOM      8  C11 7ZE d   1       4.117  12.926  40.243  0.00  0.00    -0.065 A 
ATOM      9  C12 7ZE d   1       4.520  12.367  41.450  0.00  0.00    -0.067 A 
ATOM     10  C13 7ZE d   1       4.256  13.044  42.645  0.00  0.00     0.026 A 
ATOM     11  H   7ZE d   1       4.642  12.796  46.021  0.00  0.00     0.087 H 
ATOM     12  H   7ZE d   1       3.487  14.988  45.922  0.00  0.00     0.083 H 
ATOM     13  H   7ZE d   1       2.814  15.931  43.734  0.00  0.00     0.087 H 
ATOM     14  H   7ZE d   1       3.155  14.605  39.317  0.00  0.00     0.114 H 
ATOM     15  H   7ZE d   1       4.302  12.410  39.308  0.00  0.00     0.085 H 
ATOM     16  H   7ZE d   1       5.035  11.413  41.465  0.00  0.00     0.085 H 
ENDROOT
BRANCH   1  17
ATOM     17  N2  7ZE d   1       5.263  11.331  43.972  0.00  0.00    -0.115 N 
ATOM     18  O1  7ZE d   1       5.309  10.538  43.034  0.00  0.00    -0.532 OA
ATOM     19  O3  7ZE d   1       5.800  11.047  45.036  0.00  0.00    -0.532 OA
ENDBRANCH   1  17
TORSDOF 1
