REMARK  2 active torsions:
REMARK  status: ('A' for Active; 'I' for Inactive)
REMARK    1  A    between atoms: O1_1  and  C2_2 
REMARK    2  A    between atoms: C2_2  and  C3_3 
ROOT
ATOM      1  C3  8ZE d   1       4.455  12.825  45.853  0.00  0.00    -0.032 A 
ATOM      2  C4  8ZE d   1       5.088  11.693  45.336  0.00  0.00    -0.072 A 
ATOM      3  C5  8ZE d   1       5.264  11.567  43.958  0.00  0.00    -0.047 A 
ATOM      4  C6  8ZE d   1       4.805  12.580  43.115  0.00  0.00     0.102 A 
ATOM      5  O7  8ZE d   1       4.978  12.450  41.798  0.00  0.00    -0.346 OA
ATOM      6  C8  8ZE d   1       4.154  13.216  40.865  0.00  0.00     0.046 C 
ATOM      7  C9  8ZE d   1       3.979  14.650  41.378  0.00  0.00     0.046 C 
ATOM      8  O10 8ZE d   1       3.740  14.683  42.816  0.00  0.00    -0.346 OA
ATOM      9  C11 8ZE d   1       4.167  13.721  43.635  0.00  0.00     0.102 A 
ATOM     10  C12 8ZE d   1       3.989  13.853  45.014  0.00  0.00    -0.040 A 
ATOM     11  H   8ZE d   1       5.441  10.915  46.003  0.00  0.00     0.084 H 
ATOM     12  H   8ZE d   1       5.752  10.691  43.546  0.00  0.00     0.087 H 
ATOM     13  H   8ZE d   1       3.167  12.739  40.773  0.00  0.00     0.078 H 
ATOM     14  H   8ZE d   1       4.643  13.238  39.880  0.00  0.00     0.078 H 
ATOM     15  H   8ZE d   1       3.123  15.111  40.864  0.00  0.00     0.078 H 
ATOM     16  H   8ZE d   1       4.892  15.222  41.155  0.00  0.00     0.078 H 
ATOM     17  H   8ZE d   1       3.502  14.729  45.428  0.00  0.00     0.088 H 
ENDROOT
BRANCH   1  18
ATOM     18  C2  8ZE d   1       4.271  12.940  47.347  0.00  0.00     0.041 C 
ATOM     19  H   8ZE d   1       4.253  14.004  47.627  0.00  0.00     0.081 H 
ATOM     20  H   8ZE d   1       3.317  12.470  47.629  0.00  0.00     0.081 H 
BRANCH  18  21
ATOM     21  O1  8ZE d   1       5.334  12.293  48.043  0.00  0.00    -0.396 OA
ATOM     22  H   8ZE d   1       5.197  12.379  48.979  0.00  0.00     0.209 HD
ENDBRANCH  18  21
ENDBRANCH   1  18
TORSDOF 2
