REMARK  2 active torsions:
REMARK  status: ('A' for Active; 'I' for Inactive)
REMARK    1  A    between atoms: C3_3  and  C11_11 
REMARK    2  A    between atoms: C11_11  and  C12_12 
ROOT
ATOM      1  C1  9ZE d   1       4.936  12.229  45.114  0.00  0.00    -0.067 A 
ATOM      2  C2  9ZE d   1       4.981  11.627  43.750  0.00  0.00    -0.047 A 
ATOM      3  C3  9ZE d   1       4.592  13.501  45.275  0.00  0.00     0.012 A 
ATOM      4  C4  9ZE d   1       4.674  12.377  42.699  0.00  0.00     0.102 A 
ATOM      5  C5  9ZE d   1       4.243  14.345  44.088  0.00  0.00    -0.035 A 
ATOM      6  C6  9ZE d   1       4.284  13.813  42.879  0.00  0.00     0.103 A 
ATOM      7  O7  9ZE d   1       4.439  11.805  41.520  0.00  0.00    -0.346 OA
ATOM      8  C8  9ZE d   1       4.246  12.601  40.323  0.00  0.00     0.046 C 
ATOM      9  O9  9ZE d   1       3.934  14.535  41.809  0.00  0.00    -0.346 OA
ATOM     10  C10 9ZE d   1       3.429  13.866  40.619  0.00  0.00     0.046 C 
ATOM     11  H   9ZE d   1       5.186  11.624  45.978  0.00  0.00     0.085 H 
ATOM     12  H   9ZE d   1       5.261  10.588  43.619  0.00  0.00     0.087 H 
ATOM     13  H   9ZE d   1       3.959  15.383  44.219  0.00  0.00     0.089 H 
ATOM     14  H   9ZE d   1       3.713  11.998  39.574  0.00  0.00     0.078 H 
ATOM     15  H   9ZE d   1       5.229  12.894  39.926  0.00  0.00     0.078 H 
ATOM     16  H   9ZE d   1       2.377  13.588  40.780  0.00  0.00     0.078 H 
ATOM     17  H   9ZE d   1       3.500  14.551  39.761  0.00  0.00     0.078 H 
ENDROOT
BRANCH   3  18
ATOM     18  C11 9ZE d   1       4.971  14.145  46.562  0.00  0.00     0.155 C 
ATOM     19  O13 9ZE d   1       5.029  13.478  47.593  0.00  0.00    -0.293 OA
BRANCH  18  20
ATOM     20  C12 9ZE d   1       5.294  15.622  46.579  0.00  0.00    -0.017 C 
ATOM     21  H   9ZE d   1       5.551  15.929  47.603  0.00  0.00     0.038 H 
ATOM     22  H   9ZE d   1       4.419  16.193  46.234  0.00  0.00     0.038 H 
ATOM     23  H   9ZE d   1       6.146  15.819  45.912  0.00  0.00     0.038 H 
ENDBRANCH  18  20
ENDBRANCH   3  18
TORSDOF 2
