REMARK  0 active torsions:
REMARK  status: ('A' for Active; 'I' for Inactive)
ROOT
ATOM      1  C9  JPZ d   1       4.704  11.738  46.618  0.00  0.00    -0.082 A 
ATOM      2  C8  JPZ d   1       4.040  12.844  47.151  0.00  0.00    -0.081 A 
ATOM      3  C10 JPZ d   1       4.838  11.590  45.235  0.00  0.00    -0.067 A 
ATOM      4  C7  JPZ d   1       3.502  13.815  46.298  0.00  0.00    -0.054 A 
ATOM      5  C4  JPZ d   1       3.252  14.465  42.723  0.00  0.00     0.066 A 
ATOM      6  C11 JPZ d   1       4.305  12.558  44.377  0.00  0.00     0.047 A 
ATOM      7  C6  JPZ d   1       3.639  13.670  44.912  0.00  0.00     0.072 A 
ATOM      8  C2  JPZ d   1       4.420  12.445  42.983  0.00  0.00     0.192 A 
ATOM      9  N5  JPZ d   1       3.130  14.605  44.069  0.00  0.00    -0.243 NA
ATOM     10  N3  JPZ d   1       3.889  13.403  42.181  0.00  0.00    -0.328 N 
ATOM     11  O1  JPZ d   1       5.037  11.406  42.432  0.00  0.00    -0.171 OA
ATOM     12  H1  JPZ d   1       5.119  10.988  47.282  0.00  0.00     0.083 H 
ATOM     13  H2  JPZ d   1       3.941  12.951  48.225  0.00  0.00     0.083 H 
ATOM     14  H3  JPZ d   1       5.354  10.728  44.828  0.00  0.00     0.085 H 
ATOM     15  H4  JPZ d   1       2.983  14.674  46.708  0.00  0.00     0.087 H 
ATOM     16  H5  JPZ d   1       2.828  15.224  42.067  0.00  0.00     0.143 H 
ATOM     17  H6  JPZ d   1       3.969  13.323  41.187  0.00  0.00     0.168 HD
ENDROOT
TORSDOF 0
