REMARK  5 active torsions:
REMARK  status: ('A' for Active; 'I' for Inactive)
REMARK    1  A    between atoms: C6_3  and  N01_2 
REMARK    2  A    between atoms: N9_10  and  C1'_11 
REMARK    3  A    between atoms: C2'_12  and  O2'_13 
REMARK    4  A    between atoms: C22_22  and  O23_23 
REMARK    5  A    between atoms: C32_32  and  N33_33 
ROOT
ATOM      1  C1' 1SY d   1     -57.110   2.328  70.193  0.00  0.00     0.140 C 
ATOM      2  C2' 1SY d   1     -55.817   2.111  70.568  0.00  0.00     0.106 C 
ATOM      3  C3' 1SY d   1     -55.918   2.707  71.990  0.00  0.00     0.106 C 
ATOM      4  C4' 1SY d   1     -57.199   2.130  72.538  0.00  0.00     0.090 C 
ATOM      5  C16 1SY d   1     -57.818   2.862  73.764  0.00  0.00     0.058 C 
ATOM      6  O17 1SY d   1     -58.052   4.186  73.359  0.00  0.00    -0.287 OA
ATOM      7  P18 1SY d   1     -58.122   5.324  74.452  0.00  0.00     0.408 P 
ATOM      8  O19 1SY d   1     -58.285   6.608  73.751  0.00  0.00    -0.624 OA
ATOM      9  O20 1SY d   1     -56.859   5.549  75.366  0.00  0.00    -0.277 OA
ATOM     10  C21 1SY d   1     -55.574   5.488  74.853  0.00  0.00     0.120 C 
ATOM     11  C22 1SY d   1     -54.932   4.445  75.734  0.00  0.00     0.092 C 
ATOM     12  C24 1SY d   1     -53.508   4.858  75.654  0.00  0.00     0.089 C 
ATOM     13  C25 1SY d   1     -52.847   3.932  74.638  0.00  0.00     0.058 C 
ATOM     14  O26 1SY d   1     -53.356   4.209  73.298  0.00  0.00    -0.287 OA
ATOM     15  P27 1SY d   1     -53.385   2.987  72.328  0.00  0.00     0.408 P 
ATOM     16  O28 1SY d   1     -54.804   2.185  72.662  0.00  0.00    -0.279 OA
ATOM     17  O29 1SY d   1     -52.300   2.028  72.805  0.00  0.00    -0.624 OA
ATOM     18  O30 1SY d   1     -53.281   3.595  70.964  0.00  0.00    -0.624 OA
ATOM     19  O31 1SY d   1     -53.448   6.269  75.193  0.00  0.00    -0.353 OA
ATOM     20  C32 1SY d   1     -54.744   6.795  75.009  0.00  0.00     0.140 C 
ATOM     21  O44 1SY d   1     -59.216   5.085  75.512  0.00  0.00    -0.624 OA
ATOM     22  O4' 1SY d   1     -57.960   2.255  71.411  0.00  0.00    -0.353 OA
ATOM     23  H5  1SY d   1     -57.429   1.600  69.432  0.00  0.00     0.122 H 
ATOM     24  H6  1SY d   1     -55.089   2.650  69.944  0.00  0.00     0.093 H 
ATOM     25  H8  1SY d   1     -55.925   3.807  72.002  0.00  0.00     0.092 H 
ATOM     26  H9  1SY d   1     -57.060   1.074  72.813  0.00  0.00     0.090 H 
ATOM     27  H10 1SY d   1     -57.118   2.842  74.612  0.00  0.00     0.079 H 
ATOM     28  H11 1SY d   1     -58.763   2.381  74.057  0.00  0.00     0.079 H 
ATOM     29  H12 1SY d   1     -55.593   5.186  73.796  0.00  0.00     0.095 H 
ATOM     30  H13 1SY d   1     -55.066   3.456  75.272  0.00  0.00     0.091 H 
ATOM     31  H15 1SY d   1     -53.018   4.763  76.634  0.00  0.00     0.090 H 
ATOM     32  H16 1SY d   1     -53.067   2.887  74.901  0.00  0.00     0.079 H 
ATOM     33  H17 1SY d   1     -51.759   4.093  74.654  0.00  0.00     0.079 H 
ATOM     34  H18 1SY d   1     -55.119   7.449  75.810  0.00  0.00     0.123 H 
ENDROOT
BRANCH  20  35
ATOM     35  N33 1SY d   1     -54.531   7.479  73.772  0.00  0.00    -0.295 N 
ATOM     36  C34 1SY d   1     -53.992   7.088  72.596  0.00  0.00     0.071 A 
ATOM     37  N35 1SY d   1     -54.060   8.110  71.750  0.00  0.00    -0.234 NA
ATOM     38  H19 1SY d   1     -53.575   6.106  72.379  0.00  0.00     0.144 H 
ATOM     39  C37 1SY d   1     -54.619   9.117  72.382  0.00  0.00     0.171 A 
ATOM     40  C36 1SY d   1     -54.880   8.713  73.643  0.00  0.00     0.161 A 
ATOM     41  C38 1SY d   1     -54.891  10.359  72.014  0.00  0.00     0.292 A 
ATOM     42  N42 1SY d   1     -55.438   9.470  74.603  0.00  0.00    -0.174 N 
ATOM     43  C40 1SY d   1     -55.733  10.697  74.264  0.00  0.00     0.680 A 
ATOM     44  H23 1SY d   1     -55.622   9.105  75.549  0.00  0.00     0.186 HD
ATOM     45  N39 1SY d   1     -55.469  11.145  72.953  0.00  0.00    -0.154 N 
ATOM     46  N41 1SY d   1     -56.291  11.397  75.241  0.00  0.00    -0.234 N 
ATOM     47  H20 1SY d   1     -55.719  12.082  72.707  0.00  0.00     0.187 HD
ATOM     48  H21 1SY d   1     -56.437  10.966  76.165  0.00  0.00     0.174 HD
ATOM     49  H22 1SY d   1     -56.579  12.372  75.076  0.00  0.00     0.174 HD
ATOM     50  O43 1SY d   1     -54.653  10.818  70.884  0.00  0.00    -0.265 OA
ENDBRANCH  20  35
BRANCH  11  51
ATOM     51  O23 1SY d   1     -55.431   4.324  77.202  0.00  0.00    -0.390 OA
ATOM     52  H14 1SY d   1     -56.358   4.114  77.204  0.00  0.00     0.210 HD
ENDBRANCH  11  51
BRANCH   2  53
ATOM     53  O2' 1SY d   1     -55.515   0.587  70.531  0.00  0.00    -0.388 OA
ATOM     54  H7  1SY d   1     -54.614   0.437  70.792  0.00  0.00     0.210 HD
ENDBRANCH   2  53
BRANCH   1  55
ATOM     55  N9  1SY d   1     -57.222   3.625  69.731  0.00  0.00    -0.294 N 
ATOM     56  C4  1SY d   1     -56.751   3.735  68.517  0.00  0.00     0.167 A 
ATOM     57  N3  1SY d   1     -56.223   2.777  67.733  0.00  0.00    -0.222 NA
ATOM     58  C5  1SY d   1     -56.866   5.002  68.148  0.00  0.00     0.149 A 
ATOM     59  C2  1SY d   1     -55.822   3.181  66.503  0.00  0.00     0.091 A 
ATOM     60  N1  1SY d   1     -55.977   4.506  66.130  0.00  0.00    -0.222 NA
ATOM     61  H1  1SY d   1     -55.382   2.470  65.814  0.00  0.00     0.146 H 
ATOM     62  C6  1SY d   1     -56.502   5.385  66.938  0.00  0.00     0.155 A 
ATOM     63  N7  1SY d   1     -57.421   5.654  69.152  0.00  0.00    -0.236 NA
ATOM     64  C8  1SY d   1     -57.640   4.814  70.156  0.00  0.00     0.071 A 
ATOM     65  H4  1SY d   1     -58.073   5.050  71.127  0.00  0.00     0.144 H 
BRANCH  62  66
ATOM     66  N01 1SY d   1     -56.646   6.675  66.598  0.00  0.00    -0.382 N 
ATOM     67  H2  1SY d   1     -57.066   7.339  67.264  0.00  0.00     0.157 HD
ATOM     68  H3  1SY d   1     -56.337   7.001  65.671  0.00  0.00     0.157 HD
ENDBRANCH  62  66
ENDBRANCH   1  55
TORSDOF 5
