REMARK  6 active torsions:
REMARK  status: ('A' for Active; 'I' for Inactive)
REMARK    1  A    between atoms: CBA_4  and  NAA_5 
REMARK    2  A    between atoms: NBQ_11  and  CBO_12 
REMARK    3  A    between atoms: CBI_21  and  OAE_22 
REMARK    4  A    between atoms: C3'_32  and  O3'_33 
REMARK    5  A    between atoms: C1'_35  and  N9_36 
REMARK    6  A    between atoms: C6_44  and  N6_45 
ROOT
ATOM      1  CBO 1YC d   1      43.812  34.997  15.752  0.00  0.00     0.140 C 
ATOM      2  OAX 1YC d   1      43.064  35.090  16.941  0.00  0.00    -0.353 OA
ATOM      3  CBK 1YC d   1      41.655  34.784  16.661  0.00  0.00     0.089 C 
ATOM      4  CAN 1YC d   1      41.219  33.441  17.280  0.00  0.00     0.058 C 
ATOM      5  OP3 1YC d   1      42.060  32.397  16.843  0.00  0.00    -0.287 OA
ATOM      6  P2' 1YC d   1      41.718  30.827  17.106  0.00  0.00     0.408 P 
ATOM      7  O2' 1YC d   1      40.789  30.433  15.919  0.00  0.00    -0.277 OA
ATOM      8  OP2 1YC d   1      40.933  30.734  18.402  0.00  0.00    -0.624 OA
ATOM      9  OP1 1YC d   1      43.066  30.107  17.047  0.00  0.00    -0.624 OA
ATOM     10  CBI 1YC d   1      41.542  34.733  15.180  0.00  0.00     0.092 C 
ATOM     11  CBM 1YC d   1      42.911  34.304  14.766  0.00  0.00     0.120 C 
ATOM     12  OAZ 1YC d   1      43.190  34.749  13.418  0.00  0.00    -0.277 OA
ATOM     13  PBS 1YC d   1      43.363  33.657  12.248  0.00  0.00     0.408 P 
ATOM     14  OAH 1YC d   1      44.843  33.170  12.396  0.00  0.00    -0.624 OA
ATOM     15  OAI 1YC d   1      43.047  34.248  10.884  0.00  0.00    -0.624 OA
ATOM     16  O5' 1YC d   1      42.408  32.364  12.544  0.00  0.00    -0.287 OA
ATOM     17  C5' 1YC d   1      41.194  32.333  11.950  0.00  0.00     0.058 C 
ATOM     18  C4' 1YC d   1      40.429  31.114  12.457  0.00  0.00     0.089 C 
ATOM     19  O4' 1YC d   1      41.241  29.915  12.406  0.00  0.00    -0.353 OA
ATOM     20  C3' 1YC d   1      40.130  31.333  13.897  0.00  0.00     0.092 C 
ATOM     21  C2' 1YC d   1      41.243  30.738  14.599  0.00  0.00     0.120 C 
ATOM     22  C1' 1YC d   1      41.491  29.504  13.720  0.00  0.00     0.140 C 
ATOM     23  H6  1YC d   1      44.091  35.998  15.392  0.00  0.00     0.123 H 
ATOM     24  H7  1YC d   1      41.014  35.584  17.061  0.00  0.00     0.090 H 
ATOM     25  H8  1YC d   1      40.184  33.222  16.977  0.00  0.00     0.079 H 
ATOM     26  H9  1YC d   1      41.273  33.514  18.376  0.00  0.00     0.079 H 
ATOM     27  H10 1YC d   1      40.770  34.026  14.844  0.00  0.00     0.091 H 
ATOM     28  H12 1YC d   1      43.021  33.211  14.828  0.00  0.00     0.095 H 
ATOM     29  H13 1YC d   1      41.318  32.264  10.859  0.00  0.00     0.079 H 
ATOM     30  H14 1YC d   1      40.637  33.248  12.199  0.00  0.00     0.079 H 
ATOM     31  H15 1YC d   1      39.506  30.979  11.874  0.00  0.00     0.090 H 
ATOM     32  H16 1YC d   1      40.038  32.406  14.122  0.00  0.00     0.091 H 
ATOM     33  H18 1YC d   1      42.127  31.391  14.640  0.00  0.00     0.095 H 
ATOM     34  H19 1YC d   1      40.840  28.673  14.031  0.00  0.00     0.123 H 
ENDROOT
BRANCH   1  35
ATOM     35  NBQ 1YC d   1      45.034  34.179  15.961  0.00  0.00    -0.295 N 
ATOM     36  CBG 1YC d   1      46.281  34.529  15.651  0.00  0.00     0.161 A 
ATOM     37  NAS 1YC d   1      46.794  35.688  15.162  0.00  0.00    -0.174 N 
ATOM     38  CBE 1YC d   1      47.089  33.504  15.940  0.00  0.00     0.171 A 
ATOM     39  CBA 1YC d   1      48.124  35.831  14.951  0.00  0.00     0.680 A 
ATOM     40  H4  1YC d   1      46.160  36.471  14.948  0.00  0.00     0.186 HD
ATOM     41  NAT 1YC d   1      48.971  34.790  15.267  0.00  0.00    -0.154 N 
ATOM     42  CBC 1YC d   1      48.428  33.610  15.741  0.00  0.00     0.292 A 
ATOM     43  H1  1YC d   1      49.960  34.887  15.155  0.00  0.00     0.187 HD
ATOM     44  OAC 1YC d   1      49.220  32.702  15.994  0.00  0.00    -0.265 OA
ATOM     45  NAR 1YC d   1      46.325  32.523  16.436  0.00  0.00    -0.234 NA
ATOM     46  CAL 1YC d   1      45.049  32.928  16.411  0.00  0.00     0.071 A 
ATOM     47  H5  1YC d   1      44.181  32.340  16.706  0.00  0.00     0.144 H 
BRANCH  39  48
ATOM     48  NAA 1YC d   1      48.648  36.959  14.488  0.00  0.00    -0.234 N 
ATOM     49  H2  1YC d   1      48.035  37.750  14.245  0.00  0.00     0.174 HD
ATOM     50  H3  1YC d   1      49.668  37.043  14.371  0.00  0.00     0.174 HD
ENDBRANCH  39  48
ENDBRANCH   1  35
BRANCH  10  51
ATOM     51  OAE 1YC d   1      41.270  36.043  14.697  0.00  0.00    -0.390 OA
ATOM     52  H11 1YC d   1      41.196  36.021  13.750  0.00  0.00     0.210 HD
ENDBRANCH  10  51
BRANCH  20  53
ATOM     53  O3' 1YC d   1      38.942  30.643  14.278  0.00  0.00    -0.390 OA
ATOM     54  H17 1YC d   1      38.770  30.796  15.200  0.00  0.00     0.210 HD
ENDBRANCH  20  53
BRANCH  22  55
ATOM     55  N9  1YC d   1      42.873  29.091  13.690  0.00  0.00    -0.294 N 
ATOM     56  C8  1YC d   1      43.935  29.818  13.297  0.00  0.00     0.071 A 
ATOM     57  N7  1YC d   1      45.048  29.080  13.452  0.00  0.00    -0.236 NA
ATOM     58  H20 1YC d   1      43.899  30.837  12.916  0.00  0.00     0.144 H 
ATOM     59  C5  1YC d   1      44.686  27.880  13.943  0.00  0.00     0.149 A 
ATOM     60  C4  1YC d   1      43.334  27.894  14.078  0.00  0.00     0.167 A 
ATOM     61  C6  1YC d   1      45.395  26.778  14.257  0.00  0.00     0.155 A 
ATOM     62  N3  1YC d   1      42.669  26.830  14.567  0.00  0.00    -0.222 NA
ATOM     63  C2  1YC d   1      43.412  25.694  14.890  0.00  0.00     0.091 A 
ATOM     64  N1  1YC d   1      44.782  25.688  14.734  0.00  0.00    -0.222 NA
ATOM     65  H21 1YC d   1      42.909  24.811  15.266  0.00  0.00     0.146 H 
BRANCH  61  66
ATOM     66  N6  1YC d   1      46.731  26.787  14.094  0.00  0.00    -0.382 N 
ATOM     67  H22 1YC d   1      47.284  25.951  14.330  0.00  0.00     0.157 HD
ATOM     68  H23 1YC d   1      47.200  27.630  13.733  0.00  0.00     0.157 HD
ENDBRANCH  61  66
ENDBRANCH  22  55
TORSDOF 6
