REMARK  4 active torsions:
REMARK  status: ('A' for Active; 'I' for Inactive)
REMARK    1  A    between atoms: ND1_21  and  CA6_6 
REMARK    2  A    between atoms: CD4_24  and  CB6_12 
REMARK    3  A    between atoms: CD5_25  and  CC2_15 
REMARK    4  A    between atoms: CC4_17  and  NC7_20 
ROOT
ATOM      1  ND1 SB4 d   1      21.064 -21.169  28.429  0.00  0.00    -0.333 N 
ATOM      2  CD2 SB4 d   1      20.610 -19.985  28.897  0.00  0.00     0.067 A 
ATOM      3  ND3 SB4 d   1      20.157 -20.161  30.148  0.00  0.00    -0.241 NA
ATOM      4  CD4 SB4 d   1      20.420 -21.428  30.504  0.00  0.00     0.097 A 
ATOM      5  CD5 SB4 d   1      20.937 -22.074  29.406  0.00  0.00     0.095 A 
ATOM      6  H20 SB4 d   1      20.611 -19.044  28.349  0.00  0.00     0.143 H 
ENDROOT
BRANCH   1   7
ATOM      7  CA6 SB4 d   1      21.604 -21.377  27.108  0.00  0.00     0.021 C 
ATOM      8  CA1 SB4 d   1      23.037 -20.801  27.209  0.00  0.00    -0.023 C 
ATOM      9  CA2 SB4 d   1      23.691 -20.848  25.868  0.00  0.00     0.084 C 
ATOM     10  H1  SB4 d   1      22.989 -19.759  27.556  0.00  0.00     0.038 H 
ATOM     11  H2  SB4 d   1      23.622 -21.399  27.923  0.00  0.00     0.038 H 
ATOM     12  NA3 SB4 d   1      22.803 -20.189  24.904  0.00  0.00    -0.075 N 
ATOM     13  H3  SB4 d   1      23.855 -21.894  25.570  0.00  0.00     0.075 H 
ATOM     14  H4  SB4 d   1      24.656 -20.322  25.905  0.00  0.00     0.075 H 
ATOM     15  CA4 SB4 d   1      21.488 -20.758  24.715  0.00  0.00     0.084 C 
ATOM     16  H5  SB4 d   1      23.268 -20.198  24.010  0.00  0.00     0.277 HD
ATOM     17  H6  SB4 d   1      22.679 -19.236  25.209  0.00  0.00     0.277 HD
ATOM     18  CA5 SB4 d   1      20.828 -20.612  26.084  0.00  0.00    -0.023 C 
ATOM     19  H7  SB4 d   1      21.557 -21.817  24.424  0.00  0.00     0.075 H 
ATOM     20  H8  SB4 d   1      20.927 -20.203  23.948  0.00  0.00     0.075 H 
ATOM     21  H9  SB4 d   1      19.801 -21.003  26.037  0.00  0.00     0.038 H 
ATOM     22  H10 SB4 d   1      20.803 -19.549  26.365  0.00  0.00     0.038 H 
ATOM     23  H11 SB4 d   1      21.617 -22.446  26.848  0.00  0.00     0.073 H 
ENDBRANCH   1   7
BRANCH   5  24
ATOM     24  CC2 SB4 d   1      21.272 -23.391  29.216  0.00  0.00     0.106 A 
ATOM     25  CC1 SB4 d   1      20.398 -24.344  29.681  0.00  0.00    -0.035 A 
ATOM     26  CC6 SB4 d   1      20.658 -25.677  29.490  0.00  0.00     0.023 A 
ATOM     27  H16 SB4 d   1      19.497 -24.040  30.202  0.00  0.00     0.089 H 
ATOM     28  NC5 SB4 d   1      21.881 -26.028  28.827  0.00  0.00    -0.075 NA
ATOM     29  H17 SB4 d   1      19.964 -26.438  29.828  0.00  0.00     0.115 H 
ATOM     30  CC4 SB4 d   1      22.705 -25.113  28.333  0.00  0.00     0.720 A 
ATOM     31  NC3 SB4 d   1      22.451 -23.818  28.554  0.00  0.00    -0.061 NA
BRANCH  30  32
ATOM     32  NC7 SB4 d   1      23.815 -25.499  27.687  0.00  0.00    -0.231 N 
ATOM     33  H18 SB4 d   1      24.458 -24.793  27.301  0.00  0.00     0.174 HD
ATOM     34  H19 SB4 d   1      24.024 -26.501  27.576  0.00  0.00     0.174 HD
ENDBRANCH  30  32
ENDBRANCH   5  24
BRANCH   4  35
ATOM     35  CB6 SB4 d   1      20.022 -21.899  31.714  0.00  0.00    -0.005 C 
ATOM     36  CB1 SB4 d   1      20.800 -22.718  32.522  0.00  0.00    -0.068 C 
ATOM     37  CB2 SB4 d   1      20.453 -23.140  33.781  0.00  0.00    -0.045 C 
ATOM     38  H12 SB4 d   1      21.754 -23.049  32.128  0.00  0.00     0.085 H 
ATOM     39  CB3 SB4 d   1      19.158 -22.839  34.186  0.00  0.00     0.116 C 
ATOM     40  H13 SB4 d   1      21.146 -23.675  34.420  0.00  0.00     0.088 H 
ATOM     41  CB4 SB4 d   1      18.349 -22.097  33.387  0.00  0.00    -0.045 C 
ATOM     42  FB7 SB4 d   1      18.726 -23.347  35.332  0.00  0.00    -0.206 F 
ATOM     43  CB5 SB4 d   1      18.723 -21.604  32.160  0.00  0.00    -0.068 C 
ATOM     44  H14 SB4 d   1      17.347 -21.880  33.739  0.00  0.00     0.088 H 
ATOM     45  H15 SB4 d   1      18.042 -21.011  31.560  0.00  0.00     0.085 H 
ENDBRANCH   4  35
TORSDOF 4
