REMARK  12 active torsions:
REMARK  status: ('A' for Active; 'I' for Inactive)
REMARK    1  A    between atoms: C6_2  and  O6_1 
REMARK    2  A    between atoms: C5_3  and  C6_2 
REMARK    3  A    between atoms: C11_19  and  C10_4 
REMARK    4  A    between atoms: C4_6  and  O4_7 
REMARK    5  A    between atoms: C3_8  and  O3_9 
REMARK    6  A    between atoms: C2_10  and  O2_11 
REMARK    7  A    between atoms: O1_13  and  C1_12 
REMARK    8  A    between atoms: C7_14  and  O1_13 
REMARK    9  A    between atoms: C8_15  and  C7_14 
REMARK   10  A    between atoms: C9_16  and  C8_15 
REMARK   11  A    between atoms: C12_18  and  C13_17 
REMARK   12  A    between atoms: C12_18  and  C11_19 
ROOT
ATOM      1  C5  KGM d   1      10.267  -7.412 -35.407  0.00  0.00     0.089 C 
ATOM      2  O5  KGM d   1      10.449  -5.989 -35.541  0.00  0.00    -0.348 OA
ATOM      3  C4  KGM d   1      11.284  -8.058 -34.405  0.00  0.00     0.090 C 
ATOM      4  C3  KGM d   1      12.697  -7.668 -34.877  0.00  0.00     0.092 C 
ATOM      5  C2  KGM d   1      12.869  -6.095 -34.983  0.00  0.00     0.110 C 
ATOM      6  C1  KGM d   1      11.779  -5.521 -35.943  0.00  0.00     0.158 C 
ATOM      7  H   KGM d   1      10.410  -7.891 -36.387  0.00  0.00     0.090 H 
ATOM      8  H   KGM d   1      11.111  -7.689 -33.383  0.00  0.00     0.091 H 
ATOM      9  H   KGM d   1      12.880  -8.127 -35.860  0.00  0.00     0.091 H 
ATOM     10  H   KGM d   1      13.870  -5.867 -35.377  0.00  0.00     0.094 H 
ATOM     11  H   KGM d   1      11.823  -4.423 -35.905  0.00  0.00     0.133 H 
ENDROOT
BRANCH   6  12
ATOM     12  O1  KGM d   1      11.927  -5.953 -37.275  0.00  0.00    -0.358 OA
BRANCH  12  13
ATOM     13  C7  KGM d   1      11.066  -5.448 -38.332  0.00  0.00     0.025 C 
ATOM     14  H   KGM d   1      11.306  -4.402 -38.573  0.00  0.00     0.074 H 
ATOM     15  H   KGM d   1      10.006  -5.525 -38.050  0.00  0.00     0.074 H 
BRANCH  13  16
ATOM     16  C8  KGM d   1      11.397  -6.384 -39.521  0.00  0.00    -0.030 C 
ATOM     17  H   KGM d   1      11.263  -7.424 -39.189  0.00  0.00     0.042 H 
ATOM     18  H   KGM d   1      12.447  -6.222 -39.806  0.00  0.00     0.042 H 
BRANCH  16  19
ATOM     19  C9  KGM d   1      10.544  -6.163 -40.728  0.00  0.00    -0.105 C 
ATOM     20  C10 KGM d   1      10.776  -6.811 -41.890  0.00  0.00    -0.106 C 
ATOM     21  H   KGM d   1      11.570  -7.553 -41.958  0.00  0.00     0.076 H 
ATOM     22  H   KGM d   1       9.713  -5.461 -40.669  0.00  0.00     0.076 H 
BRANCH  20  23
ATOM     23  C11 KGM d   1       9.921  -6.495 -43.094  0.00  0.00    -0.050 C 
ATOM     24  H   KGM d   1      10.134  -5.461 -43.402  0.00  0.00     0.038 H 
ATOM     25  H   KGM d   1       8.866  -6.579 -42.795  0.00  0.00     0.038 H 
BRANCH  23  26
ATOM     26  C12 KGM d   1      10.142  -7.388 -44.278  0.00  0.00    -0.066 C 
ATOM     27  H   KGM d   1      11.171  -7.262 -44.645  0.00  0.00     0.032 H 
ATOM     28  H   KGM d   1       9.985  -8.435 -43.981  0.00  0.00     0.032 H 
BRANCH  26  29
ATOM     29  C13 KGM d   1       9.146  -7.016 -45.401  0.00  0.00    -0.076 C 
ATOM     30  H   KGM d   1       9.310  -7.672 -46.269  0.00  0.00     0.027 H 
ATOM     31  H   KGM d   1       9.303  -5.969 -45.699  0.00  0.00     0.027 H 
ATOM     32  H   KGM d   1       8.117  -7.143 -45.035  0.00  0.00     0.027 H 
ENDBRANCH  26  29
ENDBRANCH  23  26
ENDBRANCH  20  23
ENDBRANCH  16  19
ENDBRANCH  13  16
ENDBRANCH  12  13
ENDBRANCH   6  12
BRANCH   5  33
ATOM     33  O2  KGM d   1      12.707  -5.477 -33.720  0.00  0.00    -0.388 OA
ATOM     34  H   KGM d   1      13.360  -5.814 -33.118  0.00  0.00     0.210 HD
ENDBRANCH   5  33
BRANCH   1  35
ATOM     35  C6  KGM d   1       8.784  -7.586 -34.961  0.00  0.00     0.043 C 
ATOM     36  H   KGM d   1       8.120  -7.091 -35.685  0.00  0.00     0.078 H 
ATOM     37  H   KGM d   1       8.537  -8.657 -34.910  0.00  0.00     0.078 H 
BRANCH  35  38
ATOM     38  O6  KGM d   1       8.615  -6.990 -33.666  0.00  0.00    -0.398 OA
ATOM     39  H   KGM d   1       7.713  -7.092 -33.387  0.00  0.00     0.209 HD
ENDBRANCH  35  38
ENDBRANCH   1  35
BRANCH   4  40
ATOM     40  O3  KGM d   1      13.670  -8.103 -33.958  0.00  0.00    -0.390 OA
ATOM     41  H   KGM d   1      14.532  -7.852 -34.269  0.00  0.00     0.210 HD
ENDBRANCH   4  40
BRANCH   3  42
ATOM     42  O4  KGM d   1      11.113  -9.445 -34.448  0.00  0.00    -0.390 OA
ATOM     43  H   KGM d   1      10.223  -9.661 -34.197  0.00  0.00     0.210 HD
ENDBRANCH   3  42
TORSDOF 12
