REMARK  9 active torsions:
REMARK  status: ('A' for Active; 'I' for Inactive)
REMARK    1  A    between atoms: C29_6  and  C28_7 
REMARK       I    between atoms: C28_7  and  N27_9 
REMARK    2  A    between atoms: N27_9  and  C26_10 
REMARK    3  A    between atoms: C26_10  and  C17_11 
REMARK    4  A    between atoms: C17_11  and  C18_12 
REMARK    5  A    between atoms: C17_11  and  N16_21 
REMARK       I    between atoms: C18_12  and  N19_14 
REMARK    6  A    between atoms: N22_17  and  C25_18 
REMARK    7  A    between atoms: N16_21  and  S15_22 
REMARK    8  A    between atoms: S15_22  and  C9_25 
REMARK    9  A    between atoms: C7_32  and  N3_33 
ROOT
ATOM      1  C17 6XS d   1      13.961 -14.767  15.072  0.00  0.00     0.112 C 
ATOM      2  H   6XS d   1      13.521 -15.331  15.908  0.00  0.00     0.091 H 
ENDROOT
BRANCH   1   3
ATOM      3  C26 6XS d   1      15.424 -14.378  15.508  0.00  0.00     0.023 C 
ATOM      4  H   6XS d   1      15.405 -13.898  16.498  0.00  0.00     0.068 H 
ATOM      5  H   6XS d   1      16.054 -15.278  15.549  0.00  0.00     0.068 H 
BRANCH   3   6
ATOM      6  N27 6XS d   1      15.957 -13.437  14.504  0.00  0.00    -0.354 N 
ATOM      7  C28 6XS d   1      15.716 -12.120  14.471  0.00  0.00     0.258 C 
ATOM      8  O39 6XS d   1      15.037 -11.548  15.322  0.00  0.00    -0.267 OA
ATOM      9  H   6XS d   1      16.547 -13.814  13.790  0.00  0.00     0.162 HD
BRANCH   7  10
ATOM     10  C29 6XS d   1      16.185 -11.312  13.355  0.00  0.00     0.074 A 
ATOM     11  C33 6XS d   1      17.038 -11.638  12.384  0.00  0.00    -0.059 A 
ATOM     12  C32 6XS d   1      17.280 -10.579  11.507  0.00  0.00    -0.054 A 
ATOM     13  H   6XS d   1      17.495 -12.621  12.286  0.00  0.00     0.086 H 
ATOM     14  C31 6XS d   1      16.614  -9.481  11.861  0.00  0.00     0.075 A 
ATOM     15  H   6XS d   1      17.934 -10.643  10.639  0.00  0.00     0.086 H 
ATOM     16 CL3  6XS d   1      16.592  -7.944  10.998  0.00  0.00    -0.076 Cl
ATOM     17  S30 6XS d   1      15.700  -9.678  13.289  0.00  0.00    -0.072 SA
ENDBRANCH   7  10
ENDBRANCH   3   6
ENDBRANCH   1   3
BRANCH   1  18
ATOM     18  C18 6XS d   1      13.018 -13.608  14.753  0.00  0.00     0.244 C 
ATOM     19  O38 6XS d   1      12.948 -13.211  13.583  0.00  0.00    -0.271 OA
ATOM     20  N19 6XS d   1      12.275 -13.024  15.709  0.00  0.00    -0.347 N 
ATOM     21  C20 6XS d   1      12.281 -13.415  17.134  0.00  0.00     0.020 C 
ATOM     22  C24 6XS d   1      11.411 -11.871  15.370  0.00  0.00     0.020 C 
ATOM     23  C21 6XS d   1      10.830 -13.745  17.485  0.00  0.00     0.098 C 
ATOM     24  H   6XS d   1      12.646 -12.585  17.757  0.00  0.00     0.066 H 
ATOM     25  H   6XS d   1      12.921 -14.296  17.286  0.00  0.00     0.066 H 
ATOM     26  N22 6XS d   1      10.001 -12.547  17.264  0.00  0.00    -0.072 N 
ATOM     27  H   6XS d   1      10.765 -14.049  18.540  0.00  0.00     0.078 H 
ATOM     28  H   6XS d   1      10.472 -14.565  16.845  0.00  0.00     0.078 H 
ATOM     29  C23 6XS d   1       9.985 -12.199  15.830  0.00  0.00     0.098 C 
ATOM     30  H   6XS d   1      10.393 -11.777  17.783  0.00  0.00     0.279 HD
ATOM     31  H   6XS d   1       9.338 -11.324  15.672  0.00  0.00     0.078 H 
ATOM     32  H   6XS d   1       9.599 -13.050  15.250  0.00  0.00     0.078 H 
ATOM     33  H   6XS d   1      11.423 -11.701  14.283  0.00  0.00     0.066 H 
ATOM     34  H   6XS d   1      11.772 -10.969  15.886  0.00  0.00     0.066 H 
BRANCH  26  35
ATOM     35  C25 6XS d   1       8.630 -12.795  17.737  0.00  0.00     0.066 C 
ATOM     36  H   6XS d   1       8.016 -11.898  17.569  0.00  0.00     0.068 H 
ATOM     37  H   6XS d   1       8.650 -13.030  18.811  0.00  0.00     0.068 H 
ATOM     38  H   6XS d   1       8.199 -13.642  17.184  0.00  0.00     0.068 H 
ENDBRANCH  26  35
ENDBRANCH   1  18
BRANCH   1  39
ATOM     39  N16 6XS d   1      13.986 -15.630  13.885  0.00  0.00    -0.300 N 
ATOM     40  H   6XS d   1      14.626 -15.422  13.145  0.00  0.00     0.173 HD
BRANCH  39  41
ATOM     41  S15 6XS d   1      13.040 -16.863  13.749  0.00  0.00     0.261 S 
ATOM     42  O36 6XS d   1      13.391 -17.553  12.485  0.00  0.00    -0.200 OA
ATOM     43  O37 6XS d   1      13.391 -17.751  14.885  0.00  0.00    -0.200 OA
BRANCH  41  44
ATOM     44  C9  6XS d   1      11.440 -16.503  13.783  0.00  0.00     0.106 A 
ATOM     45  C8  6XS d   1      10.690 -16.003  12.683  0.00  0.00     0.084 A 
ATOM     46 CL4  6XS d   1      11.433 -15.720  11.082  0.00  0.00    -0.080 Cl
ATOM     47  C7  6XS d   1       9.317 -15.701  12.767  0.00  0.00     0.063 A 
ATOM     48  C12 6XS d   1       8.652 -15.892  13.982  0.00  0.00    -0.018 A 
ATOM     49  C11 6XS d   1       9.366 -16.374  15.093  0.00  0.00     0.120 A 
ATOM     50  H   6XS d   1       7.594 -15.670  14.067  0.00  0.00     0.091 H 
ATOM     51  C10 6XS d   1      10.736 -16.679  14.993  0.00  0.00    -0.021 A 
ATOM     52  F13 6XS d   1       8.715 -16.501  16.267  0.00  0.00    -0.206 F 
ATOM     53  H   6XS d   1      11.261 -17.057  15.863  0.00  0.00     0.090 H 
BRANCH  47  54
ATOM     54  N3  6XS d   1       8.628 -15.199  11.677  0.00  0.00    -0.316 N 
ATOM     55  C2  6XS d   1       8.532 -13.725  11.615  0.00  0.00     0.003 C 
ATOM     56  C1  6XS d   1       7.699 -13.222  10.422  0.00  0.00    -0.049 C 
ATOM     57  H   6XS d   1       9.548 -13.312  11.531  0.00  0.00     0.065 H 
ATOM     58  H   6XS d   1       8.065 -13.366  12.544  0.00  0.00     0.065 H 
ATOM     59  C6  6XS d   1       7.829 -14.112   9.187  0.00  0.00    -0.056 C 
ATOM     60  H   6XS d   1       8.037 -12.208  10.161  0.00  0.00     0.035 H 
ATOM     61  H   6XS d   1       6.641 -13.190  10.722  0.00  0.00     0.035 H 
ATOM     62  C5  6XS d   1       7.393 -15.539   9.534  0.00  0.00     0.010 C 
ATOM     63  H   6XS d   1       8.876 -14.121   8.851  0.00  0.00     0.033 H 
ATOM     64  H   6XS d   1       7.189 -13.719   8.383  0.00  0.00     0.033 H 
ATOM     65  C4  6XS d   1       8.126 -16.076  10.760  0.00  0.00     0.224 C 
ATOM     66  H   6XS d   1       7.606 -16.194   8.677  0.00  0.00     0.047 H 
ATOM     67  H   6XS d   1       6.312 -15.541   9.737  0.00  0.00     0.047 H 
ATOM     68  O35 6XS d   1       8.239 -17.294  10.853  0.00  0.00    -0.273 OA
ENDBRANCH  47  54
ENDBRANCH  41  44
ENDBRANCH  39  41
ENDBRANCH   1  39
TORSDOF 9
