REMARK  9 active torsions:
REMARK  status: ('A' for Active; 'I' for Inactive)
REMARK    1  A    between atoms: PB_1  and  O3A_5 
REMARK    2  A    between atoms: O3A_5  and  PA_6 
REMARK    3  A    between atoms: PA_6  and  O5'_9 
REMARK    4  A    between atoms: O5'_9  and  C5'_10 
REMARK    5  A    between atoms: C5'_10  and  C4'_11 
REMARK    6  A    between atoms: C3'_13  and  O3'_14 
REMARK    7  A    between atoms: C2'_15  and  O2'_16 
REMARK    8  A    between atoms: C1'_17  and  N9_18 
REMARK    9  A    between atoms: C2_25  and  N2_26 
ROOT
ATOM      1  C4' GDP d   1       6.477  -4.113  -0.721  0.00  0.00     0.089 C 
ATOM      2  O4' GDP d   1       6.736  -2.936   0.046  0.00  0.00    -0.353 OA
ATOM      3  C3' GDP d   1       5.920  -3.646  -2.053  0.00  0.00     0.091 C 
ATOM      4  C2' GDP d   1       6.249  -2.173  -2.126  0.00  0.00     0.105 C 
ATOM      5  C1' GDP d   1       6.259  -1.786  -0.660  0.00  0.00     0.139 C 
ATOM      6  H3  GDP d   1       5.742  -4.750  -0.207  0.00  0.00     0.090 H 
ATOM      7  H4  GDP d   1       6.353  -4.202  -2.897  0.00  0.00     0.091 H 
ATOM      8  H6  GDP d   1       7.226  -1.997  -2.599  0.00  0.00     0.093 H 
ATOM      9  H8  GDP d   1       5.237  -1.537  -0.339  0.00  0.00     0.122 H 
ENDROOT
BRANCH   5  10
ATOM     10  N9  GDP d   1       7.146  -0.638  -0.368  0.00  0.00    -0.295 N 
ATOM     11  C8  GDP d   1       8.430  -0.462  -0.735  0.00  0.00     0.071 A 
ATOM     12  N7  GDP d   1       8.907   0.711  -0.248  0.00  0.00    -0.234 NA
ATOM     13  H9  GDP d   1       9.005  -1.163  -1.338  0.00  0.00     0.144 H 
ATOM     14  C5  GDP d   1       7.918   1.296   0.458  0.00  0.00     0.171 A 
ATOM     15  C6  GDP d   1       7.736   2.542   1.240  0.00  0.00     0.292 A 
ATOM     16  C4  GDP d   1       6.768   0.394   0.378  0.00  0.00     0.161 A 
ATOM     17  O6  GDP d   1       8.665   3.366   1.360  0.00  0.00    -0.265 OA
ATOM     18  N1  GDP d   1       6.547   2.761   1.816  0.00  0.00    -0.154 N 
ATOM     19  C2  GDP d   1       5.527   1.889   1.702  0.00  0.00     0.680 A 
ATOM     20  H10 GDP d   1       6.412   3.598   2.347  0.00  0.00     0.187 HD
ATOM     21  N3  GDP d   1       5.622   0.731   1.005  0.00  0.00    -0.174 N 
ATOM     22  H13 GDP d   1       4.809   0.100   0.953  0.00  0.00     0.186 HD
BRANCH  19  23
ATOM     23  N2  GDP d   1       4.348   2.168   2.307  0.00  0.00    -0.234 N 
ATOM     24  H11 GDP d   1       3.560   1.510   2.228  0.00  0.00     0.174 HD
ATOM     25  H12 GDP d   1       4.239   3.039   2.846  0.00  0.00     0.174 HD
ENDBRANCH  19  23
ENDBRANCH   5  10
BRANCH   4  26
ATOM     26  O2' GDP d   1       5.232  -1.465  -2.833  0.00  0.00    -0.388 OA
ATOM     27  H7  GDP d   1       4.402  -1.573  -2.384  0.00  0.00     0.210 HD
ENDBRANCH   4  26
BRANCH   1  28
ATOM     28  C5' GDP d   1       7.770  -4.890  -0.918  0.00  0.00     0.058 C 
ATOM     29  H1  GDP d   1       8.144  -5.241   0.055  0.00  0.00     0.079 H 
ATOM     30  H2  GDP d   1       7.587  -5.754  -1.574  0.00  0.00     0.079 H 
BRANCH  28  31
ATOM     31  O5' GDP d   1       8.731  -4.025  -1.519  0.00  0.00    -0.287 OA
BRANCH  31  32
ATOM     32  PA  GDP d   1       9.966  -4.624  -2.340  0.00  0.00     0.418 P 
ATOM     33  O1A GDP d   1      10.558  -3.537  -3.199  0.00  0.00    -0.624 OA
ATOM     34  O2A GDP d   1       9.570  -5.820  -3.167  0.00  0.00    -0.624 OA
BRANCH  32  35
ATOM     35  O3A GDP d   1      10.991  -5.015  -1.159  0.00  0.00    -0.173 OA
BRANCH  35  36
ATOM     36  PB  GDP d   1      12.129  -6.136  -1.314  0.00  0.00     0.431 P 
ATOM     37  O1B GDP d   1      11.488  -7.501  -1.333  0.00  0.00    -0.616 OA
ATOM     38  O2B GDP d   1      12.923  -5.907  -2.575  0.00  0.00    -0.616 OA
ATOM     39  O3B GDP d   1      13.071  -6.014  -0.142  0.00  0.00    -0.616 OA
ENDBRANCH  35  36
ENDBRANCH  32  35
ENDBRANCH  31  32
ENDBRANCH  28  31
ENDBRANCH   1  28
BRANCH   3  40
ATOM     40  O3' GDP d   1       4.498  -3.796  -2.009  0.00  0.00    -0.390 OA
ATOM     41  H5  GDP d   1       4.125  -3.509  -2.834  0.00  0.00     0.210 HD
ENDBRANCH   3  40
TORSDOF 9
