REMARK  9 active torsions:
REMARK  status: ('A' for Active; 'I' for Inactive)
REMARK    1  A    between atoms: C01_1  and  C04_4 
REMARK    2  A    between atoms: C07_7  and  C09_9 
REMARK    3  A    between atoms: C12_12  and  C15_15 
REMARK    4  A    between atoms: C15_15  and  O16_16 
REMARK    5  A    between atoms: O16_16  and  C17_17 
REMARK    6  A    between atoms: C20_20  and  C23_23 
REMARK    7  A    between atoms: C25_25  and  C35_35 
REMARK    8  A    between atoms: N27_27  and  C28_28 
REMARK    9  A    between atoms: C30_30  and  C34_34 
ROOT
ATOM      1  C17 1XT d   1      -9.937  12.242 -24.987  0.00  0.00     0.069 A 
ATOM      2  C18 1XT d   1      -8.955  11.282 -25.166  0.00  0.00    -0.050 A 
ATOM      3  C19 1XT d   1      -7.633  11.561 -24.846  0.00  0.00    -0.068 A 
ATOM      4  C20 1XT d   1      -7.293  12.807 -24.347  0.00  0.00    -0.007 A 
ATOM      5  C21 1XT d   1      -8.283  13.763 -24.170  0.00  0.00    -0.068 A 
ATOM      6  C22 1XT d   1      -9.605  13.490 -24.485  0.00  0.00    -0.050 A 
ATOM      7  H9  1XT d   1      -9.220  10.307 -25.558  0.00  0.00     0.087 H 
ATOM      8  H10 1XT d   1      -6.869  10.805 -24.986  0.00  0.00     0.085 H 
ATOM      9  H11 1XT d   1      -8.018  14.739 -23.779  0.00  0.00     0.085 H 
ATOM     10  H12 1XT d   1     -10.370  14.244 -24.340  0.00  0.00     0.087 H 
ENDROOT
BRANCH   1  11
ATOM     11  O16 1XT d   1     -11.241  11.956 -25.315  0.00  0.00    -0.347 OA
BRANCH  11  12
ATOM     12  C15 1XT d   1     -11.834  10.854 -24.738  0.00  0.00     0.050 C 
ATOM     13  H7  1XT d   1     -12.228  10.229 -25.553  0.00  0.00     0.082 H 
ATOM     14  H8  1XT d   1     -11.049  10.303 -24.199  0.00  0.00     0.082 H 
BRANCH  12  15
ATOM     15  C12 1XT d   1     -12.951  11.090 -23.778  0.00  0.00    -0.034 A 
ATOM     16  C11 1XT d   1     -12.824  12.041 -22.775  0.00  0.00    -0.074 A 
ATOM     17  C10 1XT d   1     -13.870  12.245 -21.887  0.00  0.00    -0.070 A 
ATOM     18  H4  1XT d   1     -11.913  12.621 -22.686  0.00  0.00     0.084 H 
ATOM     19  C09 1XT d   1     -15.039  11.502 -22.012  0.00  0.00    -0.002 A 
ATOM     20  H3  1XT d   1     -13.777  12.982 -21.098  0.00  0.00     0.085 H 
ATOM     21  C14 1XT d   1     -15.164  10.556 -23.018  0.00  0.00    -0.070 A 
ATOM     22  C13 1XT d   1     -14.115  10.347 -23.900  0.00  0.00    -0.074 A 
ATOM     23  H6  1XT d   1     -16.078   9.982 -23.114  0.00  0.00     0.085 H 
ATOM     24  H5  1XT d   1     -14.205   9.604 -24.684  0.00  0.00     0.084 H 
BRANCH  19  25
ATOM     25  C07 1XT d   1     -16.156  11.726 -21.048  0.00  0.00     0.086 A 
ATOM     26  C06 1XT d   1     -17.294  10.925 -20.872  0.00  0.00    -0.046 A 
ATOM     27  C05 1XT d   1     -18.049  11.556 -19.829  0.00  0.00    -0.041 A 
ATOM     28  H2  1XT d   1     -17.550  10.015 -21.413  0.00  0.00     0.087 H 
ATOM     29  C04 1XT d   1     -17.291  12.680 -19.466  0.00  0.00     0.152 A 
ATOM     30  H1  1XT d   1     -19.001  11.234 -19.410  0.00  0.00     0.088 H 
ATOM     31  O08 1XT d   1     -16.203  12.727 -20.202  0.00  0.00    -0.303 OA
BRANCH  29  32
ATOM     32  C01 1XT d   1     -17.617  13.699 -18.424  0.00  0.00     0.234 C 
ATOM     33  O02 1XT d   1     -18.607  13.541 -17.652  0.00  0.00    -0.642 OA
ATOM     34  O03 1XT d   1     -16.879  14.724 -18.340  0.00  0.00    -0.642 OA
ENDBRANCH  29  32
ENDBRANCH  19  25
ENDBRANCH  12  15
ENDBRANCH  11  12
ENDBRANCH   1  11
BRANCH   4  35
ATOM     35  C23 1XT d   1      -5.881  13.148 -23.978  0.00  0.00     0.071 A 
ATOM     36  C24 1XT d   1      -5.204  14.358 -24.308  0.00  0.00    -0.018 A 
ATOM     37  C25 1XT d   1      -3.910  14.221 -23.737  0.00  0.00     0.156 A 
ATOM     38  H13 1XT d   1      -5.593  15.203 -24.874  0.00  0.00     0.091 H 
ATOM     39  N26 1XT d   1      -3.874  13.046 -23.134  0.00  0.00    -0.160 NA
ATOM     40  N27 1XT d   1      -5.023  12.412 -23.266  0.00  0.00    -0.233 N 
BRANCH  37  41
ATOM     41  C35 1XT d   1      -2.777  15.190 -23.772  0.00  0.00     0.230 C 
ATOM     42  O36 1XT d   1      -2.197  15.484 -22.692  0.00  0.00    -0.643 OA
ATOM     43  O37 1XT d   1      -2.399  15.696 -24.861  0.00  0.00    -0.643 OA
ENDBRANCH  37  41
BRANCH  40  44
ATOM     44  C28 1XT d   1      -5.232  11.119 -22.700  0.00  0.00     0.059 A 
ATOM     45  C29 1XT d   1      -4.967   9.986 -23.453  0.00  0.00    -0.049 A 
ATOM     46  C30 1XT d   1      -5.151   8.732 -22.895  0.00  0.00    -0.060 A 
ATOM     47  H14 1XT d   1      -4.617  10.081 -24.475  0.00  0.00     0.087 H 
ATOM     48  C31 1XT d   1      -5.590   8.620 -21.588  0.00  0.00    -0.077 A 
ATOM     49  C32 1XT d   1      -5.849   9.752 -20.829  0.00  0.00    -0.080 A 
ATOM     50  H15 1XT d   1      -5.733   7.638 -21.152  0.00  0.00     0.084 H 
ATOM     51  C33 1XT d   1      -5.662  11.006 -21.386  0.00  0.00    -0.055 A 
ATOM     52  H16 1XT d   1      -6.196   9.655 -19.806  0.00  0.00     0.083 H 
ATOM     53  H17 1XT d   1      -5.851  11.896 -20.797  0.00  0.00     0.087 H 
BRANCH  46  54
ATOM     54  C34 1XT d   1      -4.879   7.507 -23.706  0.00  0.00    -0.051 C 
ATOM     55  H18 1XT d   1      -4.541   7.800 -24.711  0.00  0.00     0.033 H 
ATOM     56  H19 1XT d   1      -5.799   6.910 -23.788  0.00  0.00     0.033 H 
ATOM     57  H20 1XT d   1      -4.096   6.909 -23.216  0.00  0.00     0.033 H 
ENDBRANCH  46  54
ENDBRANCH  40  44
ENDBRANCH   4  35
TORSDOF 9
