REMARK  19 active torsions:
REMARK  status: ('A' for Active; 'I' for Inactive)
REMARK    1  A    between atoms: C25_27  and  C17_9 
REMARK    2  A    between atoms: C20_10  and  N51_49 
REMARK    3  A    between atoms: S62_62  and  C21_11 
REMARK    4  A    between atoms: S64_64  and  C22_12 
REMARK    5  A    between atoms: C42_42  and  C26_14 
REMARK    6  A    between atoms: C27_28  and  C18_24 
REMARK    7  A    between atoms: C19_25  and  N48_48 
REMARK    8  A    between atoms: C23_26  and  S63_63 
REMARK       I    between atoms: N52_50  and  C27_28 
REMARK    9  A    between atoms: C39_39  and  C40_40 
REMARK   10  A    between atoms: C39_39  and  C41_41 
REMARK   11  A    between atoms: N49_51  and  C42_42 
REMARK   12  A    between atoms: C43_43  and  C44_44 
REMARK   13  A    between atoms: C46_46  and  C43_43 
REMARK   14  A    between atoms: C44_44  and  N50_52 
REMARK   15  A    between atoms: C46_46  and  C45_45 
REMARK   16  A    between atoms: C45_45  and  S62_62 
REMARK   17  A    between atoms: N51_49  and  C46_46 
REMARK   18  A    between atoms: S63_63  and  C47_47 
REMARK   19  A    between atoms: N52_50  and  S64_64 
ROOT
ATOM      1  C27 1XJ d   1       6.325  -2.982 -11.958  0.00  0.00     0.265 C 
ATOM      2  N52 1XJ d   1       5.006  -3.343 -11.654  0.00  0.00    -0.246 N 
ATOM      3  O53 1XJ d   1       7.079  -3.702 -12.592  0.00  0.00    -0.267 OA
ATOM      4  H55 1XJ d   1       4.441  -2.743 -11.087  0.00  0.00     0.182 HD
ENDROOT
BRANCH   1   5
ATOM      5  C18 1XJ d   1       6.722  -1.732 -11.307  0.00  0.00     0.033 A 
ATOM      6  C6  1XJ d   1       8.057  -1.392 -11.328  0.00  0.00    -0.066 A 
ATOM      7  C8  1XJ d   1       8.451  -0.248 -10.676  0.00  0.00    -0.061 A 
ATOM      8  H3  1XJ d   1       8.779  -2.012 -11.846  0.00  0.00     0.085 H 
ATOM      9  C19 1XJ d   1       7.544   0.547 -10.008  0.00  0.00     0.010 A 
ATOM     10  H5  1XJ d   1       9.497   0.035 -10.687  0.00  0.00     0.086 H 
ATOM     11  C9  1XJ d   1       6.204   0.181  -9.988  0.00  0.00    -0.061 A 
ATOM     12  C7  1XJ d   1       5.785  -0.966 -10.638  0.00  0.00    -0.066 A 
ATOM     13  H14 1XJ d   1       5.484   0.797  -9.461  0.00  0.00     0.086 H 
ATOM     14  H4  1XJ d   1       4.741  -1.259 -10.623  0.00  0.00     0.085 H 
BRANCH   9  15
ATOM     15  N48 1XJ d   1       8.022   1.701  -9.340  0.00  0.00    -0.280 NA
ATOM     16  C31 1XJ d   1       6.948   2.603  -8.967  0.00  0.00     0.006 C 
ATOM     17  C33 1XJ d   1       7.517   3.650  -8.032  0.00  0.00     0.095 C 
ATOM     18  H23 1XJ d   1       6.539   3.088  -9.866  0.00  0.00     0.058 H 
ATOM     19  H24 1XJ d   1       6.150   2.042  -8.458  0.00  0.00     0.058 H 
ATOM     20  N49 1XJ d   1       8.641   4.376  -8.695  0.00  0.00    -0.065 N 
ATOM     21  H27 1XJ d   1       7.889   3.160  -7.120  0.00  0.00     0.077 H 
ATOM     22  H28 1XJ d   1       6.727   4.368  -7.766  0.00  0.00     0.077 H 
ATOM     23  C34 1XJ d   1       9.692   3.454  -9.220  0.00  0.00     0.095 C 
ATOM     24  H56 1XJ d   1       8.261   4.883  -9.479  0.00  0.00     0.280 HD
ATOM     25  C32 1XJ d   1       9.088   2.347 -10.070  0.00  0.00     0.006 C 
ATOM     26  H29 1XJ d   1      10.399   4.031  -9.834  0.00  0.00     0.077 H 
ATOM     27  H30 1XJ d   1      10.227   3.002  -8.372  0.00  0.00     0.077 H 
ATOM     28  H25 1XJ d   1       9.865   1.607 -10.314  0.00  0.00     0.058 H 
ATOM     29  H26 1XJ d   1       8.687   2.777 -10.999  0.00  0.00     0.058 H 
BRANCH  20  30
ATOM     30  C42 1XJ d   1       9.238   5.369  -7.739  0.00  0.00     0.104 C 
ATOM     31  H45 1XJ d   1       9.766   4.818  -6.947  0.00  0.00     0.083 H 
ATOM     32  H46 1XJ d   1       9.954   5.997  -8.289  0.00  0.00     0.083 H 
BRANCH  30  33
ATOM     33  C26 1XJ d   1       8.216   6.257  -7.102  0.00  0.00    -0.047 C 
ATOM     34  C25 1XJ d   1       7.939   6.275  -5.786  0.00  0.00    -0.044 C 
ATOM     35  C28 1XJ d   1       6.874   7.122  -5.188  0.00  0.00    -0.039 C 
ATOM     36  C30 1XJ d   1       5.967   7.693  -6.261  0.00  0.00    -0.055 C 
ATOM     37  H9  1XJ d   1       7.341   7.950  -4.634  0.00  0.00     0.040 H 
ATOM     38  H10 1XJ d   1       6.274   6.511  -4.497  0.00  0.00     0.040 H 
ATOM     39  C39 1XJ d   1       6.789   8.278  -7.374  0.00  0.00    -0.044 C 
ATOM     40  H21 1XJ d   1       5.335   8.480  -5.823  0.00  0.00     0.034 H 
ATOM     41  H22 1XJ d   1       5.329   6.892  -6.662  0.00  0.00     0.034 H 
ATOM     42  C29 1XJ d   1       7.475   7.120  -8.062  0.00  0.00    -0.036 C 
ATOM     43  H19 1XJ d   1       6.715   6.511  -8.573  0.00  0.00     0.040 H 
ATOM     44  H20 1XJ d   1       8.185   7.518  -8.802  0.00  0.00     0.040 H 
BRANCH  34  45
ATOM     45  C17 1XJ d   1       8.670   5.468  -4.808  0.00  0.00    -0.029 A 
ATOM     46  C4  1XJ d   1       9.991   5.759  -4.529  0.00  0.00    -0.071 A 
ATOM     47  C14 1XJ d   1      10.684   5.017  -3.591  0.00  0.00    -0.061 A 
ATOM     48  H1  1XJ d   1      10.486   6.572  -5.047  0.00  0.00     0.084 H 
ATOM     49  C24 1XJ d   1      10.025   4.009  -2.918  0.00  0.00     0.034 A 
ATOM     50  H17 1XJ d   1      11.729   5.224  -3.388  0.00  0.00     0.086 H 
ATOM     51  C15 1XJ d   1       8.701   3.719  -3.177  0.00  0.00    -0.061 A 
ATOM     52 CL6  1XJ d   1      10.863   3.074  -1.739  0.00  0.00    -0.084 Cl
ATOM     53  C5  1XJ d   1       8.025   4.456  -4.125  0.00  0.00    -0.071 A 
ATOM     54  H8  1XJ d   1       8.199   2.921  -2.641  0.00  0.00     0.086 H 
ATOM     55  H2  1XJ d   1       6.984   4.241  -4.335  0.00  0.00     0.084 H 
ENDBRANCH  34  45
BRANCH  39  56
ATOM     56  C40 1XJ d   1       5.904   9.009  -8.359  0.00  0.00    -0.069 C 
ATOM     57  H39 1XJ d   1       6.522   9.430  -9.165  0.00  0.00     0.028 H 
ATOM     58  H40 1XJ d   1       5.373   9.822  -7.842  0.00  0.00     0.028 H 
ATOM     59  H41 1XJ d   1       5.173   8.307  -8.786  0.00  0.00     0.028 H 
ENDBRANCH  39  56
BRANCH  39  60
ATOM     60  C41 1XJ d   1       7.777   9.264  -6.804  0.00  0.00    -0.069 C 
ATOM     61  H42 1XJ d   1       8.432   8.752  -6.084  0.00  0.00     0.028 H 
ATOM     62  H43 1XJ d   1       7.234  10.074  -6.295  0.00  0.00     0.028 H 
ATOM     63  H44 1XJ d   1       8.386   9.685  -7.618  0.00  0.00     0.028 H 
ENDBRANCH  39  60
ENDBRANCH  30  33
ENDBRANCH  20  30
ENDBRANCH   9  15
ENDBRANCH   1   5
BRANCH   2  64
ATOM     64  S64 1XJ d   1       4.372  -4.786 -12.242  0.00  0.00     0.265 S 
ATOM     65  O56 1XJ d   1       3.060  -4.964 -11.660  0.00  0.00    -0.200 OA
ATOM     66  O57 1XJ d   1       4.491  -4.760 -13.685  0.00  0.00    -0.200 OA
BRANCH  64  67
ATOM     67  C22 1XJ d   1       5.395  -6.057 -11.535  0.00  0.00     0.081 A 
ATOM     68  C13 1XJ d   1       6.466  -6.622 -12.206  0.00  0.00    -0.058 A 
ATOM     69  C10 1XJ d   1       7.230  -7.608 -11.598  0.00  0.00    -0.054 A 
ATOM     70  H7  1XJ d   1       6.709  -6.293 -13.210  0.00  0.00     0.086 H 
ATOM     71  C20 1XJ d   1       6.906  -8.014 -10.321  0.00  0.00     0.050 A 
ATOM     72  H6  1XJ d   1       8.070  -8.053 -12.120  0.00  0.00     0.087 H 
ATOM     73  C23 1XJ d   1       5.849  -7.397  -9.687  0.00  0.00     0.096 A 
ATOM     74  C16 1XJ d   1       5.059  -6.440 -10.259  0.00  0.00    -0.037 A 
ATOM     75  H18 1XJ d   1       4.214  -6.007  -9.735  0.00  0.00     0.088 H 
BRANCH  71  76
ATOM     76  N51 1XJ d   1       7.615  -8.986  -9.603  0.00  0.00    -0.383 N 
ATOM     77  H54 1XJ d   1       7.396  -9.218  -8.624  0.00  0.00     0.160 HD
BRANCH  76  78
ATOM     78  C46 1XJ d   1       8.683  -9.644 -10.340  0.00  0.00     0.019 C 
ATOM     79  H53 1XJ d   1       8.389  -9.812 -11.387  0.00  0.00     0.073 H 
BRANCH  78  80
ATOM     80  C43 1XJ d   1       8.879 -10.958  -9.615  0.00  0.00    -0.023 C 
ATOM     81  H47 1XJ d   1       9.705 -10.850  -8.897  0.00  0.00     0.038 H 
ATOM     82  H48 1XJ d   1       7.954 -11.209  -9.075  0.00  0.00     0.038 H 
BRANCH  80  83
ATOM     83  C44 1XJ d   1       9.205 -12.072 -10.568  0.00  0.00     0.086 C 
ATOM     84  H49 1XJ d   1      10.051 -11.782 -11.209  0.00  0.00     0.076 H 
ATOM     85  H50 1XJ d   1       8.330 -12.297 -11.195  0.00  0.00     0.076 H 
BRANCH  83  86
ATOM     86  N50 1XJ d   1       9.568 -13.264  -9.760  0.00  0.00    -0.067 N 
ATOM     87  C35 1XJ d   1      10.466 -12.952  -8.636  0.00  0.00     0.103 C 
ATOM     88  C37 1XJ d   1      10.590 -14.232  -7.845  0.00  0.00     0.042 C 
ATOM     89  H31 1XJ d   1      11.451 -12.634  -9.009  0.00  0.00     0.079 H 
ATOM     90  H32 1XJ d   1      10.036 -12.155  -8.011  0.00  0.00     0.079 H 
ATOM     91  O58 1XJ d   1      11.248 -15.176  -8.674  0.00  0.00    -0.388 OA
ATOM     92  H35 1XJ d   1       9.592 -14.603  -7.570  0.00  0.00     0.076 H 
ATOM     93  H36 1XJ d   1      11.180 -14.056  -6.933  0.00  0.00     0.076 H 
ATOM     94  C38 1XJ d   1      10.339 -15.548  -9.697  0.00  0.00     0.042 C 
ATOM     95  C36 1XJ d   1      10.107 -14.361 -10.597  0.00  0.00     0.103 C 
ATOM     96  H37 1XJ d   1      10.761 -16.378 -10.282  0.00  0.00     0.076 H 
ATOM     97  H38 1XJ d   1       9.386 -15.863  -9.248  0.00  0.00     0.076 H 
ATOM     98  H33 1XJ d   1       9.384 -14.622 -11.384  0.00  0.00     0.079 H 
ATOM     99  H34 1XJ d   1      11.055 -14.049 -11.059  0.00  0.00     0.079 H 
ATOM    100  H57 1XJ d   1       8.710 -13.604  -9.354  0.00  0.00     0.280 HD
ENDBRANCH  83  86
ENDBRANCH  80  83
ENDBRANCH  78  80
BRANCH  78 101
ATOM    101  C45 1XJ d   1       9.965  -8.822 -10.295  0.00  0.00     0.000 C 
ATOM    102  H51 1XJ d   1       9.820  -7.914 -10.899  0.00  0.00     0.052 H 
ATOM    103  H52 1XJ d   1      10.780  -9.422 -10.725  0.00  0.00     0.052 H 
BRANCH 101 104
ATOM    104  S62 1XJ d   1      10.441  -8.324  -8.602  0.00  0.00    -0.128 SA
BRANCH 104 105
ATOM    105  C21 1XJ d   1       9.550  -6.790  -8.461  0.00  0.00     0.000 A 
ATOM    106  C11 1XJ d   1       9.597  -5.860  -9.470  0.00  0.00    -0.067 A 
ATOM    107  C2  1XJ d   1       8.873  -4.688  -9.378  0.00  0.00    -0.082 A 
ATOM    108  H15 1XJ d   1      10.207  -6.048 -10.346  0.00  0.00     0.085 H 
ATOM    109  C1  1XJ d   1       8.101  -4.424  -8.270  0.00  0.00    -0.083 A 
ATOM    110  H12 1XJ d   1       8.913  -3.968 -10.187  0.00  0.00     0.083 H 
ATOM    111  C3  1XJ d   1       8.042  -5.346  -7.251  0.00  0.00    -0.082 A 
ATOM    112  H11 1XJ d   1       7.544  -3.497  -8.201  0.00  0.00     0.083 H 
ATOM    113  C12 1XJ d   1       8.766  -6.520  -7.355  0.00  0.00    -0.067 A 
ATOM    114  H13 1XJ d   1       7.434  -5.154  -6.375  0.00  0.00     0.083 H 
ATOM    115  H16 1XJ d   1       8.717  -7.245  -6.551  0.00  0.00     0.085 H 
ENDBRANCH 104 105
ENDBRANCH 101 104
ENDBRANCH  78 101
ENDBRANCH  76  78
ENDBRANCH  71  76
BRANCH  73 116
ATOM    116  S63 1XJ d   1       5.403  -7.935  -8.085  0.00  0.00     0.278 S 
ATOM    117  O54 1XJ d   1       6.515  -8.500  -7.344  0.00  0.00    -0.213 OA
ATOM    118  O55 1XJ d   1       4.546  -6.929  -7.477  0.00  0.00    -0.213 OA
BRANCH 116 119
ATOM    119  C47 1XJ d   1       4.354  -9.315  -8.512  0.00  0.00     0.503 C 
ATOM    120  F59 1XJ d   1       3.802  -9.859  -7.419  0.00  0.00    -0.157 F 
ATOM    121  F60 1XJ d   1       3.299  -8.964  -9.298  0.00  0.00    -0.157 F 
ATOM    122  F61 1XJ d   1       5.030 -10.305  -9.156  0.00  0.00    -0.157 F 
ENDBRANCH 116 119
ENDBRANCH  73 116
ENDBRANCH  64  67
ENDBRANCH   2  64
TORSDOF 19
