REMARK  10 active torsions:
REMARK  status: ('A' for Active; 'I' for Inactive)
REMARK    1  A    between atoms: C19_20  and  C12_13 
REMARK    2  A    between atoms: C21_22  and  C13_14 
REMARK    3  A    between atoms: C14_15  and  N35_36 
REMARK    4  A    between atoms: C15_16  and  N37_38 
REMARK    5  A    between atoms: C16_17  and  N39_40 
REMARK    6  A    between atoms: S47_48  and  C17_18 
REMARK    7  A    between atoms: C34_35  and  C20_21 
REMARK       I    between atoms: N38_39  and  C21_22 
REMARK    8  A    between atoms: N37_38  and  C33_34 
REMARK    9  A    between atoms: N36_37  and  C34_35 
REMARK   10  A    between atoms: N38_39  and  S47_48 
ROOT
ATOM      1  C3  1XV d   1      22.914  31.427  12.532  0.00  0.00    -0.066 A 
ATOM      2  C4  1XV d   1      24.518  33.173  12.923  0.00  0.00    -0.066 A 
ATOM      3  C5  1XV d   1      23.871  30.706  11.830  0.00  0.00    -0.056 A 
ATOM      4  C6  1XV d   1      25.455  32.442  12.212  0.00  0.00    -0.056 A 
ATOM      5  C13 1XV d   1      23.248  32.652  13.074  0.00  0.00     0.033 A 
ATOM      6  C14 1XV d   1      25.156  31.201  11.656  0.00  0.00     0.030 A 
ATOM      7  H3  1XV d   1      21.912  31.031  12.653  0.00  0.00     0.085 H 
ATOM      8  H4  1XV d   1      24.776  34.134  13.352  0.00  0.00     0.085 H 
ATOM      9  H5  1XV d   1      23.610  29.741  11.411  0.00  0.00     0.086 H 
ATOM     10  H6  1XV d   1      26.452  32.848  12.084  0.00  0.00     0.086 H 
ENDROOT
BRANCH   6  11
ATOM     11  N35 1XV d   1      26.144  30.473  10.903  0.00  0.00    -0.378 N 
ATOM     12  C26 1XV d   1      25.922  29.031  10.733  0.00  0.00     0.018 C 
ATOM     13  C28 1XV d   1      26.756  28.561   9.550  0.00  0.00     0.098 C 
ATOM     14  H20 1XV d   1      26.231  28.496  11.643  0.00  0.00     0.066 H 
ATOM     15  H21 1XV d   1      24.857  28.838  10.538  0.00  0.00     0.066 H 
ATOM     16  N36 1XV d   1      28.193  28.915   9.790  0.00  0.00    -0.064 N 
ATOM     17  H24 1XV d   1      26.404  29.054   8.632  0.00  0.00     0.078 H 
ATOM     18  H25 1XV d   1      26.659  27.471   9.441  0.00  0.00     0.078 H 
ATOM     19  C29 1XV d   1      28.424  30.384   9.973  0.00  0.00     0.098 C 
ATOM     20  H37 1XV d   1      28.429  28.485  10.671  0.00  0.00     0.280 HD
ATOM     21  C27 1XV d   1      27.526  30.923  11.089  0.00  0.00     0.018 C 
ATOM     22  H26 1XV d   1      29.477  30.556  10.239  0.00  0.00     0.078 H 
ATOM     23  H27 1XV d   1      28.192  30.908   9.034  0.00  0.00     0.078 H 
ATOM     24  H22 1XV d   1      27.553  32.023  11.075  0.00  0.00     0.066 H 
ATOM     25  H23 1XV d   1      27.897  30.559  12.059  0.00  0.00     0.066 H 
BRANCH  16  26
ATOM     26  C34 1XV d   1      29.157  28.340   8.783  0.00  0.00     0.106 C 
ATOM     27  H35 1XV d   1      29.178  29.018   7.917  0.00  0.00     0.083 H 
ATOM     28  H36 1XV d   1      30.152  28.313   9.252  0.00  0.00     0.083 H 
BRANCH  26  29
ATOM     29  C20 1XV d   1      28.857  26.962   8.274  0.00  0.00    -0.024 C 
ATOM     30  C19 1XV d   1      28.479  26.660   7.009  0.00  0.00    -0.040 C 
ATOM     31  C22 1XV d   1      28.172  25.258   6.577  0.00  0.00    -0.020 C 
ATOM     32  C30 1XV d   1      28.539  24.226   7.633  0.00  0.00     0.024 C 
ATOM     33  H12 1XV d   1      28.739  25.040   5.660  0.00  0.00     0.043 H 
ATOM     34  H13 1XV d   1      27.095  25.181   6.369  0.00  0.00     0.043 H 
ATOM     35  O45 1XV d   1      28.238  24.707   8.944  0.00  0.00    -0.387 OA
ATOM     36  H28 1XV d   1      29.616  24.011   7.567  0.00  0.00     0.074 H 
ATOM     37  H29 1XV d   1      27.969  23.304   7.448  0.00  0.00     0.074 H 
ATOM     38  C23 1XV d   1      29.026  25.861   9.279  0.00  0.00     0.042 C 
ATOM     39  H14 1XV d   1      28.715  26.230  10.267  0.00  0.00     0.081 H 
ATOM     40  H15 1XV d   1      30.086  25.570   9.314  0.00  0.00     0.081 H 
BRANCH  30  41
ATOM     41  C12 1XV d   1      28.347  27.624   5.914  0.00  0.00    -0.029 A 
ATOM     42  C1  1XV d   1      29.484  28.233   5.405  0.00  0.00    -0.071 A 
ATOM     43  C9  1XV d   1      29.384  29.110   4.345  0.00  0.00    -0.061 A 
ATOM     44  H1  1XV d   1      30.453  28.020   5.841  0.00  0.00     0.084 H 
ATOM     45  C18 1XV d   1      28.141  29.366   3.797  0.00  0.00     0.034 A 
ATOM     46  H9  1XV d   1      30.269  29.593   3.947  0.00  0.00     0.086 H 
ATOM     47 CL4  1XV d   1      28.020  30.449   2.459  0.00  0.00    -0.084 Cl
ATOM     48  C10 1XV d   1      27.006  28.764   4.296  0.00  0.00    -0.061 A 
ATOM     49  C2  1XV d   1      27.109  27.875   5.343  0.00  0.00    -0.071 A 
ATOM     50  H10 1XV d   1      26.037  28.989   3.866  0.00  0.00     0.086 H 
ATOM     51  H2  1XV d   1      26.225  27.373   5.719  0.00  0.00     0.084 H 
ENDBRANCH  30  41
ENDBRANCH  26  29
ENDBRANCH  16  26
ENDBRANCH   6  11
BRANCH   5  52
ATOM     52  C21 1XV d   1      22.232  33.457  13.788  0.00  0.00     0.265 C 
ATOM     53  N38 1XV d   1      20.943  32.918  13.695  0.00  0.00    -0.246 N 
ATOM     54  H39 1XV d   1      20.833  31.992  13.334  0.00  0.00     0.182 HD
ATOM     55  O41 1XV d   1      22.463  34.519  14.343  0.00  0.00    -0.267 OA
BRANCH  53  56
ATOM     56  S47 1XV d   1      19.570  33.773  14.169  0.00  0.00     0.265 S 
ATOM     57  O43 1XV d   1      18.402  32.961  13.868  0.00  0.00    -0.200 OA
ATOM     58  O44 1XV d   1      19.747  34.225  15.543  0.00  0.00    -0.200 OA
BRANCH  56  59
ATOM     59  C17 1XV d   1      19.564  35.222  13.138  0.00  0.00     0.082 A 
ATOM     60  C8  1XV d   1      20.174  36.393  13.543  0.00  0.00    -0.058 A 
ATOM     61  C7  1XV d   1      20.139  37.503  12.715  0.00  0.00    -0.054 A 
ATOM     62  H8  1XV d   1      20.677  36.443  14.502  0.00  0.00     0.086 H 
ATOM     63  C15 1XV d   1      19.504  37.459  11.478  0.00  0.00     0.061 A 
ATOM     64  H7  1XV d   1      20.615  38.422  13.037  0.00  0.00     0.087 H 
ATOM     65  C16 1XV d   1      18.883  36.267  11.120  0.00  0.00     0.130 A 
ATOM     66  C11 1XV d   1      18.890  35.159  11.939  0.00  0.00    -0.026 A 
ATOM     67  H11 1XV d   1      18.373  34.253  11.644  0.00  0.00     0.089 H 
BRANCH  63  68
ATOM     68  N37 1XV d   1      19.439  38.560  10.590  0.00  0.00    -0.383 N 
ATOM     69  H38 1XV d   1      18.886  38.491   9.724  0.00  0.00     0.160 HD
BRANCH  68  70
ATOM     70  C33 1XV d   1      20.159  39.798  10.903  0.00  0.00     0.013 C 
ATOM     71  C24 1XV d   1      19.331  40.658  11.842  0.00  0.00    -0.026 C 
ATOM     72  C31 1XV d   1      20.026  41.996  12.047  0.00  0.00     0.021 C 
ATOM     73  H16 1XV d   1      18.335  40.825  11.405  0.00  0.00     0.039 H 
ATOM     74  H17 1XV d   1      19.226  40.147  12.810  0.00  0.00     0.039 H 
ATOM     75  O46 1XV d   1      20.065  42.688  10.803  0.00  0.00    -0.391 OA
ATOM     76  H30 1XV d   1      21.051  41.829  12.409  0.00  0.00     0.074 H 
ATOM     77  H31 1XV d   1      19.469  42.593  12.785  0.00  0.00     0.074 H 
ATOM     78  C32 1XV d   1      20.870  41.988   9.833  0.00  0.00     0.021 C 
ATOM     79  C25 1XV d   1      20.365  40.566   9.592  0.00  0.00    -0.026 C 
ATOM     80  H32 1XV d   1      20.842  42.541   8.883  0.00  0.00     0.074 H 
ATOM     81  H33 1XV d   1      21.906  41.940  10.199  0.00  0.00     0.074 H 
ATOM     82  H18 1XV d   1      21.101  40.027   8.977  0.00  0.00     0.039 H 
ATOM     83  H19 1XV d   1      19.406  40.616   9.056  0.00  0.00     0.039 H 
ATOM     84  H34 1XV d   1      21.129  39.564  11.366  0.00  0.00     0.072 H 
ENDBRANCH  68  70
ENDBRANCH  63  68
BRANCH  65  85
ATOM     85  N39 1XV d   1      18.166  36.091   9.865  0.00  0.00    -0.113 N 
ATOM     86  O40 1XV d   1      17.679  34.985   9.637  0.00  0.00    -0.532 OA
ATOM     87  O42 1XV d   1      18.071  37.038   9.093  0.00  0.00    -0.532 OA
ENDBRANCH  65  85
ENDBRANCH  56  59
ENDBRANCH  53  56
ENDBRANCH   5  52
TORSDOF 10
