REMARK  9 active torsions:
REMARK  status: ('A' for Active; 'I' for Inactive)
REMARK    1  A    between atoms: N1_3  and  O1_1 
REMARK       I    between atoms: N1_3  and  C1_4 
REMARK    2  A    between atoms: C1_4  and  C2_5 
REMARK    3  A    between atoms: C2_5  and  C3_6 
REMARK    4  A    between atoms: C3_6  and  C4_7 
REMARK    5  A    between atoms: C4_7  and  C5_8 
REMARK    6  A    between atoms: C5_8  and  C6_9 
REMARK    7  A    between atoms: C6_9  and  C7_10 
REMARK    8  A    between atoms: C7_10  and  C8_11 
REMARK       I    between atoms: C8_11  and  N2_13 
REMARK    9  A    between atoms: N2_13  and  C9_14 
ROOT
ATOM      1  C6  SHH d   1      27.325 -17.005  -0.024  0.00  0.00    -0.057 C 
ATOM      2  H11 SHH d   1      27.768 -17.902  -0.482  0.00  0.00     0.033 H 
ATOM      3  H12 SHH d   1      27.156 -17.186   1.048  0.00  0.00     0.033 H 
ENDROOT
BRANCH   1   4
ATOM      4  C5  SHH d   1      25.972 -16.715  -0.701  0.00  0.00    -0.065 C 
ATOM      5  H9  SHH d   1      25.662 -15.682  -0.487  0.00  0.00     0.033 H 
ATOM      6  H10 SHH d   1      26.062 -16.853  -1.789  0.00  0.00     0.033 H 
BRANCH   4   7
ATOM      7  C4  SHH d   1      24.933 -17.701  -0.133  0.00  0.00    -0.065 C 
ATOM      8  H7  SHH d   1      25.267 -18.730  -0.330  0.00  0.00     0.033 H 
ATOM      9  H8  SHH d   1      24.844 -17.545   0.952  0.00  0.00     0.033 H 
BRANCH   7  10
ATOM     10  C3  SHH d   1      23.558 -17.483  -0.789  0.00  0.00    -0.057 C 
ATOM     11  H5  SHH d   1      23.188 -16.472  -0.564  0.00  0.00     0.033 H 
ATOM     12  H6  SHH d   1      23.635 -17.611  -1.879  0.00  0.00     0.033 H 
BRANCH  10  13
ATOM     13  C2  SHH d   1      22.597 -18.546  -0.195  0.00  0.00     0.011 C 
ATOM     14  H3  SHH d   1      23.081 -19.531  -0.273  0.00  0.00     0.047 H 
ATOM     15  H4  SHH d   1      22.427 -18.304   0.864  0.00  0.00     0.047 H 
BRANCH  13  16
ATOM     16  C1  SHH d   1      21.257 -18.620  -0.886  0.00  0.00     0.240 C 
ATOM     17  O2  SHH d   1      20.493 -17.663  -0.936  0.00  0.00    -0.271 OA
ATOM     18  N1  SHH d   1      20.883 -19.782  -1.456  0.00  0.00    -0.237 N 
ATOM     19  H2  SHH d   1      21.495 -20.573  -1.425  0.00  0.00     0.197 HD
BRANCH  18  20
ATOM     20  O1  SHH d   1      19.636 -19.886  -2.094  0.00  0.00    -0.287 OA
ATOM     21  H1  SHH d   1      19.530 -20.765  -2.439  0.00  0.00     0.244 HD
ENDBRANCH  18  20
ENDBRANCH  13  16
ENDBRANCH  10  13
ENDBRANCH   7  10
ENDBRANCH   4   7
ENDBRANCH   1   4
BRANCH   1  22
ATOM     22  C7  SHH d   1      28.304 -15.828  -0.183  0.00  0.00     0.010 C 
ATOM     23  H13 SHH d   1      28.230 -15.443  -1.211  0.00  0.00     0.047 H 
ATOM     24  H14 SHH d   1      29.326 -16.191  -0.000  0.00  0.00     0.047 H 
BRANCH  22  25
ATOM     25  C8  SHH d   1      28.010 -14.702   0.779  0.00  0.00     0.222 C 
ATOM     26  O3  SHH d   1      27.461 -13.712   0.333  0.00  0.00    -0.273 OA
ATOM     27  N2  SHH d   1      28.377 -14.832   2.094  0.00  0.00    -0.327 N 
ATOM     28  H15 SHH d   1      28.779 -15.714   2.339  0.00  0.00     0.169 HD
BRANCH  27  29
ATOM     29  C9  SHH d   1      28.270 -13.899   3.158  0.00  0.00     0.034 A 
ATOM     30  C10 SHH d   1      28.005 -12.534   2.969  0.00  0.00    -0.057 A 
ATOM     31  C11 SHH d   1      28.001 -11.658   4.055  0.00  0.00    -0.081 A 
ATOM     32  H16 SHH d   1      27.802 -12.158   1.973  0.00  0.00     0.086 H 
ATOM     33  C12 SHH d   1      28.266 -12.130   5.340  0.00  0.00    -0.083 A 
ATOM     34  H17 SHH d   1      27.791 -10.606   3.899  0.00  0.00     0.083 H 
ATOM     35  C13 SHH d   1      28.553 -13.478   5.537  0.00  0.00    -0.081 A 
ATOM     36  H18 SHH d   1      28.249 -11.449   6.183  0.00  0.00     0.083 H 
ATOM     37  C14 SHH d   1      28.581 -14.346   4.451  0.00  0.00    -0.057 A 
ATOM     38  H19 SHH d   1      28.754 -13.850   6.535  0.00  0.00     0.083 H 
ATOM     39  H20 SHH d   1      28.848 -15.385   4.606  0.00  0.00     0.086 H 
ENDBRANCH  27  29
ENDBRANCH  22  25
ENDBRANCH   1  22
TORSDOF 9
