REMARK  6 active torsions:
REMARK  status: ('A' for Active; 'I' for Inactive)
REMARK    1  A    between atoms: N13_14  and  C14_1 
REMARK    2  A    between atoms: N4_12  and  C5_2 
REMARK    3  A    between atoms: C8_6  and  C11_4 
REMARK       I    between atoms: C11_4  and  N13_14 
REMARK    4  A    between atoms: C2_10  and  C1_9 
REMARK       I    between atoms: C2_10  and  N4_12 
REMARK    5  A    between atoms: C16_16  and  C21_21 
REMARK    6  A    between atoms: C19_19  and  N20_20 
ROOT
ATOM      1  C11 20Y d   1      21.771 -17.854  -0.387  0.00  0.00     0.256 C 
ATOM      2  O12 20Y d   1      20.830 -17.223  -0.856  0.00  0.00    -0.267 OA
ATOM      3  N13 20Y d   1      21.544 -18.917   0.409  0.00  0.00    -0.321 N 
ATOM      4  H9  20Y d   1      22.341 -19.355   0.825  0.00  0.00     0.169 HD
ENDROOT
BRANCH   3   5
ATOM      5  C14 20Y d   1      20.287 -19.463   0.705  0.00  0.00     0.062 A 
ATOM      6  C15 20Y d   1      19.960 -19.635   2.053  0.00  0.00    -0.044 A 
ATOM      7  C16 20Y d   1      18.765 -20.280   2.417  0.00  0.00    -0.017 A 
ATOM      8  H10 20Y d   1      20.631 -19.269   2.822  0.00  0.00     0.088 H 
ATOM      9  C17 20Y d   1      17.914 -20.744   1.400  0.00  0.00    -0.070 A 
ATOM     10  C18 20Y d   1      18.251 -20.603   0.058  0.00  0.00    -0.055 A 
ATOM     11  H11 20Y d   1      16.977 -21.221   1.666  0.00  0.00     0.085 H 
ATOM     12  C19 20Y d   1      19.436 -19.956  -0.317  0.00  0.00     0.052 A 
ATOM     13  H12 20Y d   1      17.590 -20.998  -0.706  0.00  0.00     0.087 H 
BRANCH   7  14
ATOM     14  C21 20Y d   1      18.392 -20.357   3.848  0.00  0.00     0.015 A 
ATOM     15  C22 20Y d   1      17.144 -20.320   4.359  0.00  0.00    -0.065 A 
ATOM     16  C23 20Y d   1      17.086 -20.324   5.744  0.00  0.00    -0.075 A 
ATOM     17  H15 20Y d   1      16.253 -20.289   3.733  0.00  0.00     0.085 H 
ATOM     18  C24 20Y d   1      18.261 -20.326   6.374  0.00  0.00    -0.044 A 
ATOM     19  H16 20Y d   1      16.140 -20.325   6.284  0.00  0.00     0.084 H 
ATOM     20  S25 20Y d   1      19.547 -20.322   5.172  0.00  0.00    -0.101 SA
ATOM     21  H17 20Y d   1      18.402 -20.329   7.454  0.00  0.00     0.095 H 
ENDBRANCH   7  14
BRANCH  12  22
ATOM     22  N20 20Y d   1      19.761 -19.812  -1.694  0.00  0.00    -0.397 N 
ATOM     23  H13 20Y d   1      20.632 -19.337  -1.971  0.00  0.00     0.156 HD
ATOM     24  H14 20Y d   1      19.126 -20.183  -2.415  0.00  0.00     0.156 HD
ENDBRANCH  12  22
ENDBRANCH   3   5
BRANCH   1  25
ATOM     25  C8  20Y d   1      23.189 -17.444  -0.585  0.00  0.00     0.032 A 
ATOM     26  C7  20Y d   1      24.198 -18.406  -0.381  0.00  0.00    -0.066 A 
ATOM     27  C6  20Y d   1      25.538 -18.053  -0.498  0.00  0.00    -0.056 A 
ATOM     28  H2  20Y d   1      23.928 -19.426  -0.132  0.00  0.00     0.085 H 
ATOM     29  C5  20Y d   1      25.884 -16.760  -0.882  0.00  0.00     0.034 A 
ATOM     30  H1  20Y d   1      26.312 -18.783  -0.291  0.00  0.00     0.086 H 
ATOM     31  C10 20Y d   1      24.884 -15.790  -1.062  0.00  0.00    -0.056 A 
ATOM     32  C9  20Y d   1      23.540 -16.125  -0.928  0.00  0.00    -0.066 A 
ATOM     33  H4  20Y d   1      25.162 -14.771  -1.308  0.00  0.00     0.086 H 
ATOM     34  H3  20Y d   1      22.771 -15.377  -1.086  0.00  0.00     0.085 H 
BRANCH  29  35
ATOM     35  N4  20Y d   1      27.259 -16.471  -1.024  0.00  0.00    -0.328 N 
ATOM     36  C2  20Y d   1      27.782 -15.696  -2.008  0.00  0.00     0.218 C 
ATOM     37  O3  20Y d   1      27.096 -15.161  -2.859  0.00  0.00    -0.274 OA
ATOM     38  H8  20Y d   1      27.890 -16.864  -0.355  0.00  0.00     0.169 HD
BRANCH  36  39
ATOM     39  C1  20Y d   1      29.277 -15.491  -2.039  0.00  0.00    -0.003 C 
ATOM     40  H5  20Y d   1      29.740 -16.040  -1.206  0.00  0.00     0.040 H 
ATOM     41  H6  20Y d   1      29.502 -14.419  -1.941  0.00  0.00     0.040 H 
ATOM     42  H7  20Y d   1      29.679 -15.865  -2.992  0.00  0.00     0.040 H 
ENDBRANCH  36  39
ENDBRANCH  29  35
ENDBRANCH   1  25
TORSDOF 6
