REMARK  10 active torsions:
REMARK  status: ('A' for Active; 'I' for Inactive)
REMARK    1  A    between atoms: C22_1  and  C21_2 
REMARK    2  A    between atoms: N3_7  and  C5_8 
REMARK    3  A    between atoms: C5_8  and  C3_9 
REMARK    4  A    between atoms: N1_11  and  S1_12 
REMARK    5  A    between atoms: S1_12  and  C6_15 
REMARK    6  A    between atoms: N2_22  and  C10_23 
REMARK    7  A    between atoms: C13_28  and  C16_29 
REMARK    8  A    between atoms: C16_29  and  C23_30 
REMARK    9  A    between atoms: C16_29  and  C17_34 
REMARK   10  A    between atoms: C16_29  and  O3_35 
ROOT
ATOM      1  C3  1YY d   1      37.518 -23.971  15.718  0.00  0.00     0.047 C 
ATOM      2  C2  1YY d   1      38.258 -25.245  15.180  0.00  0.00     0.014 C 
ATOM      3  N1  1YY d   1      39.721 -25.017  15.096  0.00  0.00    -0.203 NA
ATOM      4  C1  1YY d   1      40.141 -25.033  16.475  0.00  0.00     0.008 C 
ATOM      5  C4  1YY d   1      39.399 -23.986  17.320  0.00  0.00     0.007 C 
ATOM      6  N2  1YY d   1      38.015 -23.715  17.018  0.00  0.00    -0.372 N 
ATOM      7  H14 1YY d   1      36.426 -24.102  15.697  0.00  0.00     0.077 H 
ATOM      8  H15 1YY d   1      37.874 -25.487  14.178  0.00  0.00     0.060 H 
ATOM      9  H16 1YY d   1      38.064 -26.087  15.861  0.00  0.00     0.060 H 
ATOM     10  H20 1YY d   1      41.220 -24.824  16.519  0.00  0.00     0.059 H 
ATOM     11  H21 1YY d   1      39.944 -26.031  16.894  0.00  0.00     0.059 H 
ATOM     12  H22 1YY d   1      39.946 -23.037  17.216  0.00  0.00     0.066 H 
ATOM     13  H23 1YY d   1      39.444 -24.322  18.366  0.00  0.00     0.066 H 
ENDROOT
BRANCH   1  14
ATOM     14  C5  1YY d   1      37.974 -22.727  14.927  0.00  0.00     0.104 C 
ATOM     15  H12 1YY d   1      38.160 -21.915  15.645  0.00  0.00     0.079 H 
ATOM     16  H13 1YY d   1      38.910 -22.977  14.406  0.00  0.00     0.079 H 
BRANCH  14  17
ATOM     17  N3  1YY d   1      37.007 -22.240  13.925  0.00  0.00    -0.061 N 
ATOM     18  C21 1YY d   1      36.981 -20.768  13.908  0.00  0.00     0.121 C 
ATOM     19  C20 1YY d   1      35.876 -20.336  12.932  0.00  0.00     0.046 C 
ATOM     20  H4  1YY d   1      36.726 -20.410  14.916  0.00  0.00     0.087 H 
ATOM     21  O4  1YY d   1      36.026 -20.925  11.616  0.00  0.00    -0.387 OA
ATOM     22  H5  1YY d   1      35.904 -19.241  12.832  0.00  0.00     0.077 H 
ATOM     23  H6  1YY d   1      34.903 -20.642  13.345  0.00  0.00     0.077 H 
ATOM     24  C19 1YY d   1      36.256 -22.358  11.580  0.00  0.00     0.042 C 
ATOM     25  C18 1YY d   1      37.381 -22.694  12.580  0.00  0.00     0.103 C 
ATOM     26  H7  1YY d   1      36.557 -22.661  10.566  0.00  0.00     0.076 H 
ATOM     27  H8  1YY d   1      35.336 -22.890  11.864  0.00  0.00     0.076 H 
ATOM     28  H9  1YY d   1      38.308 -22.189  12.269  0.00  0.00     0.079 H 
ATOM     29  H10 1YY d   1      37.543 -23.782  12.594  0.00  0.00     0.079 H 
ATOM     30  H11 1YY d   1      36.091 -22.591  14.156  0.00  0.00     0.280 HD
BRANCH  18  31
ATOM     31  C22 1YY d   1      38.361 -20.146  13.512  0.00  0.00    -0.047 C 
ATOM     32  H1  1YY d   1      38.283 -19.049  13.516  0.00  0.00     0.030 H 
ATOM     33  H2  1YY d   1      38.643 -20.490  12.506  0.00  0.00     0.030 H 
ATOM     34  H3  1YY d   1      39.127 -20.462  14.236  0.00  0.00     0.030 H 
ENDBRANCH  18  31
ENDBRANCH  14  17
ENDBRANCH   1  14
BRANCH   6  35
ATOM     35  C10 1YY d   1      37.296 -22.903  17.887  0.00  0.00     0.030 A 
ATOM     36  C15 1YY d   1      37.801 -22.622  19.149  0.00  0.00    -0.057 A 
ATOM     37  C14 1YY d   1      37.120 -21.824  20.036  0.00  0.00    -0.071 A 
ATOM     38  H24 1YY d   1      38.756 -23.043  19.442  0.00  0.00     0.086 H 
ATOM     39  C13 1YY d   1      35.891 -21.286  19.662  0.00  0.00    -0.015 A 
ATOM     40  H25 1YY d   1      37.534 -21.616  21.016  0.00  0.00     0.084 H 
ATOM     41  C12 1YY d   1      35.373 -21.549  18.419  0.00  0.00    -0.071 A 
ATOM     42  C11 1YY d   1      36.083 -22.363  17.550  0.00  0.00    -0.057 A 
ATOM     43  H27 1YY d   1      34.421 -21.126  18.120  0.00  0.00     0.084 H 
ATOM     44  H26 1YY d   1      35.665 -22.579  16.573  0.00  0.00     0.086 H 
BRANCH  39  45
ATOM     45  C16 1YY d   1      35.167 -20.389  20.622  0.00  0.00     0.179 C 
BRANCH  45  46
ATOM     46  C23 1YY d   1      34.487 -21.103  21.746  0.00  0.00     0.422 C 
ATOM     47  F2  1YY d   1      33.703 -20.252  22.436  0.00  0.00    -0.167 F 
ATOM     48  F3  1YY d   1      35.446 -21.632  22.555  0.00  0.00    -0.167 F 
ATOM     49  F1  1YY d   1      33.699 -21.980  21.197  0.00  0.00    -0.167 F 
ENDBRANCH  45  46
BRANCH  45  50
ATOM     50  C17 1YY d   1      36.268 -19.535  21.245  0.00  0.00    -0.035 C 
ATOM     51  H28 1YY d   1      36.800 -18.987  20.453  0.00  0.00     0.032 H 
ATOM     52  H29 1YY d   1      36.976 -20.184  21.781  0.00  0.00     0.032 H 
ATOM     53  H30 1YY d   1      35.822 -18.818  21.950  0.00  0.00     0.032 H 
ENDBRANCH  45  50
BRANCH  45  54
ATOM     54  O3  1YY d   1      34.230 -19.629  19.908  0.00  0.00    -0.376 OA
ATOM     55  H31 1YY d   1      34.667 -19.178  19.195  0.00  0.00     0.211 HD
ENDBRANCH  45  54
ENDBRANCH  39  45
ENDBRANCH   6  35
BRANCH   3  56
ATOM     56  S1  1YY d   1      40.454 -26.177  14.261  0.00  0.00     0.250 S 
ATOM     57  O1  1YY d   1      41.910 -26.151  14.555  0.00  0.00    -0.205 OA
ATOM     58  O2  1YY d   1      40.044 -25.979  12.843  0.00  0.00    -0.205 OA
BRANCH  56  59
ATOM     59  C6  1YY d   1      39.867 -27.752  14.718  0.00  0.00     0.115 A 
ATOM     60  C7  1YY d   1      38.901 -28.465  14.116  0.00  0.00    -0.054 A 
ATOM     61  C8  1YY d   1      38.645 -29.623  14.751  0.00  0.00    -0.075 A 
ATOM     62  H17 1YY d   1      38.383 -28.142  13.214  0.00  0.00     0.086 H 
ATOM     63  C9  1YY d   1      39.389 -29.902  15.855  0.00  0.00    -0.044 A 
ATOM     64  H18 1YY d   1      37.876 -30.307  14.397  0.00  0.00     0.084 H 
ATOM     65  S2  1YY d   1      40.470 -28.587  16.037  0.00  0.00    -0.089 SA
ATOM     66  H19 1YY d   1      39.313 -30.782  16.492  0.00  0.00     0.095 H 
ENDBRANCH  56  59
ENDBRANCH   3  56
TORSDOF 10
