REMARK  14 active torsions:
REMARK  status: ('A' for Active; 'I' for Inactive)
REMARK    1  A    between atoms: C2_2  and  C1_1 
REMARK    2  A    between atoms: C3_3  and  C2_2 
REMARK    3  A    between atoms: C8_6  and  C7_5 
REMARK       I    between atoms: N10_24  and  C8_6 
REMARK    4  A    between atoms: C11_7  and  N10_24 
REMARK    5  A    between atoms: S18_29  and  C13_9 
REMARK    6  A    between atoms: C16_12  and  O17_13 
REMARK    7  A    between atoms: C22_14  and  C23_22 
REMARK    8  A    between atoms: N21_25  and  C22_14 
REMARK    9  A    between atoms: C24_15  and  C25_23 
REMARK   10  A    between atoms: N21_25  and  C24_15 
REMARK   11  A    between atoms: C4_18  and  C27_16 
REMARK   12  A    between atoms: C27_16  and  C29_21 
REMARK   13  A    between atoms: C5_19  and  C26_20 
REMARK   14  A    between atoms: N21_25  and  S18_29 
ROOT
ATOM      1  C11 21Q d   1       3.724   5.577  23.029  0.00  0.00     0.070 A 
ATOM      2  C12 21Q d   1       3.472   4.486  22.212  0.00  0.00    -0.032 A 
ATOM      3  C13 21Q d   1       2.793   3.402  22.761  0.00  0.00     0.082 A 
ATOM      4  C14 21Q d   1       2.365   3.390  24.076  0.00  0.00    -0.058 A 
ATOM      5  C15 21Q d   1       2.621   4.477  24.882  0.00  0.00    -0.047 A 
ATOM      6  C16 21Q d   1       3.297   5.549  24.341  0.00  0.00     0.092 A 
ATOM      7  H   21Q d   1       3.794   4.477  21.177  0.00  0.00     0.089 H 
ATOM      8  H   21Q d   1       1.832   2.532  24.469  0.00  0.00     0.086 H 
ATOM      9  H   21Q d   1       2.299   4.489  25.917  0.00  0.00     0.087 H 
ENDROOT
BRANCH   1  10
ATOM     10  N10 21Q d   1       4.403   6.762  22.651  0.00  0.00    -0.319 N 
ATOM     11  C8  21Q d   1       5.077   6.893  21.462  0.00  0.00     0.273 C 
ATOM     12  O9  21Q d   1       5.274   5.967  20.699  0.00  0.00    -0.266 OA
ATOM     13  H   21Q d   1       4.391   7.539  23.280  0.00  0.00     0.169 HD
BRANCH  11  14
ATOM     14  C7  21Q d   1       5.566   8.205  21.166  0.00  0.00     0.108 A 
ATOM     15  C3  21Q d   1       5.204   9.476  21.589  0.00  0.00    -0.010 A 
ATOM     16  C4  21Q d   1       6.058  10.402  20.938  0.00  0.00     0.040 A 
ATOM     17  C5  21Q d   1       6.911   9.670  20.125  0.00  0.00     0.020 A 
ATOM     18  N6  21Q d   1       6.595   8.354  20.280  0.00  0.00    -0.354 N 
ATOM     19  H   21Q d   1       7.067   7.577  19.795  0.00  0.00     0.166 HD
BRANCH  15  20
ATOM     20  C2  21Q d   1       4.129   9.799  22.552  0.00  0.00    -0.041 C 
ATOM     21  H   21Q d   1       3.624  10.723  22.235  0.00  0.00     0.039 H 
ATOM     22  H   21Q d   1       3.402   8.973  22.574  0.00  0.00     0.039 H 
BRANCH  20  23
ATOM     23  C1  21Q d   1       4.706   9.996  23.947  0.00  0.00    -0.073 C 
ATOM     24  H   21Q d   1       3.894  10.235  24.649  0.00  0.00     0.028 H 
ATOM     25  H   21Q d   1       5.431  10.823  23.930  0.00  0.00     0.028 H 
ATOM     26  H   21Q d   1       5.209   9.073  24.269  0.00  0.00     0.028 H 
ENDBRANCH  20  23
ENDBRANCH  15  20
BRANCH  16  27
ATOM     27  C27 21Q d   1       6.096  11.839  21.015  0.00  0.00     0.158 C 
ATOM     28  O28 21Q d   1       7.117  12.484  20.810  0.00  0.00    -0.293 OA
BRANCH  27  29
ATOM     29  C29 21Q d   1       4.817  12.545  21.301  0.00  0.00    -0.017 C 
ATOM     30  H   21Q d   1       4.017  11.806  21.457  0.00  0.00     0.038 H 
ATOM     31  H   21Q d   1       4.557  13.192  20.450  0.00  0.00     0.038 H 
ATOM     32  H   21Q d   1       4.931  13.158  22.207  0.00  0.00     0.038 H 
ENDBRANCH  27  29
ENDBRANCH  16  27
BRANCH  17  33
ATOM     33  C26 21Q d   1       8.011  10.046  19.195  0.00  0.00    -0.037 C 
ATOM     34  H   21Q d   1       8.131  11.139  19.192  0.00  0.00     0.035 H 
ATOM     35  H   21Q d   1       7.767   9.701  18.180  0.00  0.00     0.035 H 
ATOM     36  H   21Q d   1       8.948   9.576  19.527  0.00  0.00     0.035 H 
ENDBRANCH  17  33
ENDBRANCH  11  14
ENDBRANCH   1  10
BRANCH   6  37
ATOM     37  O17 21Q d   1       3.567   6.655  25.126  0.00  0.00    -0.358 OA
ATOM     38  H   21Q d   1       4.035   7.301  24.610  0.00  0.00     0.217 HD
ENDBRANCH   6  37
BRANCH   3  39
ATOM     39  S18 21Q d   1       2.388   1.916  21.828  0.00  0.00     0.260 S 
ATOM     40  O19 21Q d   1       3.072   1.882  20.545  0.00  0.00    -0.200 OA
ATOM     41  O20 21Q d   1       2.463   0.815  22.779  0.00  0.00    -0.200 OA
BRANCH  39  42
ATOM     42  N21 21Q d   1       0.756   2.344  21.529  0.00  0.00    -0.307 N 
BRANCH  42  43
ATOM     43  C22 21Q d   1       0.518   3.453  20.574  0.00  0.00     0.002 C 
ATOM     44  H   21Q d   1      -0.286   4.097  20.960  0.00  0.00     0.064 H 
ATOM     45  H   21Q d   1       1.441   4.042  20.466  0.00  0.00     0.064 H 
BRANCH  43  46
ATOM     46  C23 21Q d   1       0.113   2.909  19.219  0.00  0.00    -0.060 C 
ATOM     47  H   21Q d   1      -0.059   3.745  18.525  0.00  0.00     0.029 H 
ATOM     48  H   21Q d   1      -0.811   2.321  19.321  0.00  0.00     0.029 H 
ATOM     49  H   21Q d   1       0.915   2.266  18.827  0.00  0.00     0.029 H 
ENDBRANCH  43  46
ENDBRANCH  42  43
BRANCH  42  50
ATOM     50  C24 21Q d   1      -0.204   1.226  21.402  0.00  0.00     0.002 C 
ATOM     51  H   21Q d   1      -0.796   1.139  22.325  0.00  0.00     0.064 H 
ATOM     52  H   21Q d   1      -0.876   1.409  20.551  0.00  0.00     0.064 H 
BRANCH  50  53
ATOM     53  C25 21Q d   1       0.574  -0.052  21.172  0.00  0.00    -0.060 C 
ATOM     54  H   21Q d   1      -0.126  -0.895  21.075  0.00  0.00     0.029 H 
ATOM     55  H   21Q d   1       1.247  -0.230  22.024  0.00  0.00     0.029 H 
ATOM     56  H   21Q d   1       1.167   0.040  20.250  0.00  0.00     0.029 H 
ENDBRANCH  50  53
ENDBRANCH  42  50
ENDBRANCH  39  42
ENDBRANCH   3  39
TORSDOF 14
