REMARK  10 active torsions:
REMARK  status: ('A' for Active; 'I' for Inactive)
REMARK    1  A    between atoms: C12_2  and  C13_3 
REMARK       I    between atoms: C12_2  and  N1_4 
REMARK    2  A    between atoms: N1_4  and  C11_5 
REMARK    3  A    between atoms: C5_12  and  O3_19 
REMARK    4  A    between atoms: C3_13  and  O2_17 
REMARK    5  A    between atoms: C1_14  and  O1_15 
REMARK    6  A    between atoms: O1_15  and  C2_16 
REMARK    7  A    between atoms: O2_17  and  C4_18 
REMARK    8  A    between atoms: O3_19  and  C6_20 
REMARK    9  A    between atoms: C17_25  and  O6_28 
REMARK   10  A    between atoms: O6_28  and  C18_29 
ROOT
ATOM      1  C11 LOC d   1     -13.399   7.803  -2.864  0.00  0.00     0.039 C 
ATOM      2  C14 LOC d   1     -13.178   6.971  -1.615  0.00  0.00    -0.020 C 
ATOM      3  C15 LOC d   1     -14.146   6.116  -1.232  0.00  0.00    -0.023 C 
ATOM      4  C10 LOC d   1     -13.909   9.211  -2.536  0.00  0.00    -0.038 C 
ATOM      5  C9  LOC d   1     -13.072   9.932  -1.475  0.00  0.00    -0.038 C 
ATOM      6  C8  LOC d   1     -11.599   9.626  -1.624  0.00  0.00    -0.041 A 
ATOM      7  C7  LOC d   1     -10.789  10.666  -2.060  0.00  0.00    -0.041 A 
ATOM      8  C5  LOC d   1      -9.425  10.475  -2.223  0.00  0.00     0.104 A 
ATOM      9  C3  LOC d   1      -8.870   9.222  -1.954  0.00  0.00     0.136 A 
ATOM     10  C1  LOC d   1      -9.675   8.168  -1.526  0.00  0.00     0.116 A 
ATOM     11  C22 LOC d   1     -11.050   8.364  -1.368  0.00  0.00     0.017 A 
ATOM     12  C21 LOC d   1     -11.926   7.242  -0.887  0.00  0.00    -0.014 C 
ATOM     13  C20 LOC d   1     -11.477   6.685   0.246  0.00  0.00    -0.069 C 
ATOM     14  C19 LOC d   1     -12.002   5.583   1.032  0.00  0.00    -0.046 C 
ATOM     15  C17 LOC d   1     -13.158   4.933   0.899  0.00  0.00     0.118 C 
ATOM     16  C16 LOC d   1     -14.204   5.194  -0.089  0.00  0.00     0.205 C 
ATOM     17  O5  LOC d   1     -15.234   4.557   0.034  0.00  0.00    -0.285 OA
ATOM     18  H   LOC d   1     -12.413   7.917  -3.339  0.00  0.00     0.080 H 
ATOM     19  H   LOC d   1     -15.027   6.106  -1.872  0.00  0.00     0.090 H 
ATOM     20  H   LOC d   1     -14.943   9.130  -2.168  0.00  0.00     0.036 H 
ATOM     21  H   LOC d   1     -13.894   9.810  -3.458  0.00  0.00     0.036 H 
ATOM     22  H   LOC d   1     -13.405   9.608  -0.478  0.00  0.00     0.040 H 
ATOM     23  H   LOC d   1     -13.223  11.017  -1.578  0.00  0.00     0.040 H 
ATOM     24  H   LOC d   1     -11.226  11.634  -2.275  0.00  0.00     0.088 H 
ATOM     25  H   LOC d   1     -10.567   7.133   0.643  0.00  0.00     0.085 H 
ATOM     26  H   LOC d   1     -11.362   5.240   1.843  0.00  0.00     0.087 H 
ENDROOT
BRANCH   1  27
ATOM     27  N1  LOC d   1     -14.268   7.177  -3.847  0.00  0.00    -0.353 N 
ATOM     28  C12 LOC d   1     -13.811   6.418  -4.855  0.00  0.00     0.214 C 
ATOM     29  O4  LOC d   1     -14.537   6.037  -5.780  0.00  0.00    -0.274 OA
ATOM     30  H   LOC d   1     -15.255   7.319  -3.768  0.00  0.00     0.163 HD
BRANCH  28  31
ATOM     31  C13 LOC d   1     -12.361   6.097  -4.796  0.00  0.00    -0.003 C 
ATOM     32  H   LOC d   1     -11.924   6.539  -3.888  0.00  0.00     0.040 H 
ATOM     33  H   LOC d   1     -11.858   6.509  -5.683  0.00  0.00     0.040 H 
ATOM     34  H   LOC d   1     -12.228   5.005  -4.773  0.00  0.00     0.040 H 
ENDBRANCH  28  31
ENDBRANCH   1  27
BRANCH  15  35
ATOM     35  O6  LOC d   1     -13.406   3.855   1.836  0.00  0.00    -0.352 OA
BRANCH  35  36
ATOM     36  C18 LOC d   1     -12.333   3.189   2.506  0.00  0.00     0.011 C 
ATOM     37  H   LOC d   1     -12.741   2.410   3.167  0.00  0.00     0.067 H 
ATOM     38  H   LOC d   1     -11.766   3.917   3.105  0.00  0.00     0.067 H 
ATOM     39  H   LOC d   1     -11.666   2.728   1.762  0.00  0.00     0.067 H 
ENDBRANCH  35  36
ENDBRANCH  15  35
BRANCH  10  40
ATOM     40  O1  LOC d   1      -9.087   6.949  -1.296  0.00  0.00    -0.352 OA
BRANCH  40  41
ATOM     41  C2  LOC d   1      -9.045   6.052  -2.415  0.00  0.00     0.011 C 
ATOM     42  H   LOC d   1      -8.555   5.114  -2.115  0.00  0.00     0.067 H 
ATOM     43  H   LOC d   1      -8.478   6.516  -3.236  0.00  0.00     0.067 H 
ATOM     44  H   LOC d   1     -10.070   5.839  -2.753  0.00  0.00     0.067 H 
ENDBRANCH  40  41
ENDBRANCH  10  40
BRANCH   9  45
ATOM     45  O2  LOC d   1      -7.506   9.036  -2.091  0.00  0.00    -0.351 OA
BRANCH  45  46
ATOM     46  C4  LOC d   1      -6.698   9.467  -1.006  0.00  0.00     0.011 C 
ATOM     47  H   LOC d   1      -5.641   9.266  -1.234  0.00  0.00     0.067 H 
ATOM     48  H   LOC d   1      -6.987   8.922  -0.095  0.00  0.00     0.067 H 
ATOM     49  H   LOC d   1      -6.841  10.546  -0.849  0.00  0.00     0.067 H 
ENDBRANCH  45  46
ENDBRANCH   9  45
BRANCH   8  50
ATOM     50  O3  LOC d   1      -8.608  11.505  -2.635  0.00  0.00    -0.353 OA
BRANCH  50  51
ATOM     51  C6  LOC d   1      -9.039  12.853  -2.882  0.00  0.00     0.010 C 
ATOM     52  H   LOC d   1      -8.179  13.461  -3.199  0.00  0.00     0.066 H 
ATOM     53  H   LOC d   1      -9.467  13.276  -1.961  0.00  0.00     0.066 H 
ATOM     54  H   LOC d   1      -9.801  12.855  -3.675  0.00  0.00     0.066 H 
ENDBRANCH  50  51
ENDBRANCH   8  50
TORSDOF 10
