REMARK  7 active torsions:
REMARK  status: ('A' for Active; 'I' for Inactive)
REMARK    1  A    between atoms: C4_1  and  C27_5 
REMARK    2  A    between atoms: C3_2  and  C2_10 
REMARK    3  A    between atoms: C7_3  and  C8_6 
REMARK    4  A    between atoms: C5_4  and  C26_7 
REMARK    5  A    between atoms: C27_5  and  C29_8 
REMARK       I    between atoms: C8_6  and  N10_12 
REMARK    6  A    between atoms: C2_10  and  C1_9 
REMARK    7  A    between atoms: N10_12  and  C6_15 
ROOT
ATOM      1  C4  L46 d   1      12.682  38.572  77.476  0.00  0.00     0.040 A 
ATOM      2  C3  L46 d   1      11.703  37.691  77.009  0.00  0.00    -0.010 A 
ATOM      3  C7  L46 d   1      10.463  38.128  77.722  0.00  0.00     0.108 A 
ATOM      4  C5  L46 d   1      12.039  39.491  78.452  0.00  0.00     0.020 A 
ATOM      5  N6  L46 d   1      10.739  39.163  78.534  0.00  0.00    -0.354 N 
ATOM      6  H   L46 d   1      10.050  39.638  79.135  0.00  0.00     0.166 HD
ENDROOT
BRANCH   3   7
ATOM      7  C8  L46 d   1       9.128  37.474  77.561  0.00  0.00     0.268 C 
ATOM      8  N10 L46 d   1       8.333  37.469  78.642  0.00  0.00    -0.360 N 
ATOM      9  H   L46 d   1       8.684  37.858  79.494  0.00  0.00     0.162 HD
ATOM     10  O9  L46 d   1       8.784  36.981  76.491  0.00  0.00    -0.266 OA
BRANCH   8  11
ATOM     11  C6  L46 d   1       6.975  36.920  78.633  0.00  0.00    -0.018 C 
ATOM     12  H   L46 d   1       6.528  37.031  79.632  0.00  0.00     0.056 H 
ATOM     13  H   L46 d   1       7.012  35.854  78.365  0.00  0.00     0.056 H 
ATOM     14  H   L46 d   1       6.365  37.463  77.896  0.00  0.00     0.056 H 
ENDBRANCH   8  11
ENDBRANCH   3   7
BRANCH   2  15
ATOM     15  C2  L46 d   1      11.837  36.582  75.993  0.00  0.00    -0.041 C 
ATOM     16  H   L46 d   1      10.912  35.986  75.976  0.00  0.00     0.039 H 
ATOM     17  H   L46 d   1      12.685  35.936  76.265  0.00  0.00     0.039 H 
BRANCH  15  18
ATOM     18  C1  L46 d   1      12.078  37.181  74.618  0.00  0.00    -0.073 C 
ATOM     19  H   L46 d   1      12.176  36.373  73.878  0.00  0.00     0.028 H 
ATOM     20  H   L46 d   1      13.003  37.777  74.634  0.00  0.00     0.028 H 
ATOM     21  H   L46 d   1      11.230  37.827  74.346  0.00  0.00     0.028 H 
ENDBRANCH  15  18
ENDBRANCH   2  15
BRANCH   1  22
ATOM     22  C27 L46 d   1      14.144  38.621  77.133  0.00  0.00     0.158 C 
ATOM     23  O28 L46 d   1      14.785  39.648  77.254  0.00  0.00    -0.293 OA
BRANCH  22  24
ATOM     24  C29 L46 d   1      14.829  37.354  76.694  0.00  0.00    -0.017 C 
ATOM     25  H   L46 d   1      15.888  37.564  76.483  0.00  0.00     0.038 H 
ATOM     26  H   L46 d   1      14.343  36.971  75.785  0.00  0.00     0.038 H 
ATOM     27  H   L46 d   1      14.756  36.602  77.493  0.00  0.00     0.038 H 
ENDBRANCH  22  24
ENDBRANCH   1  22
BRANCH   4  28
ATOM     28  C26 L46 d   1      12.680  40.610  79.229  0.00  0.00    -0.037 C 
ATOM     29  H   L46 d   1      11.924  41.095  79.864  0.00  0.00     0.035 H 
ATOM     30  H   L46 d   1      13.100  41.348  78.530  0.00  0.00     0.035 H 
ATOM     31  H   L46 d   1      13.484  40.204  79.860  0.00  0.00     0.035 H 
ENDBRANCH   4  28
TORSDOF 7
