REMARK  2 active torsions:
REMARK  status: ('A' for Active; 'I' for Inactive)
REMARK    1  A    between atoms: C18_1  and  C4_2 
REMARK    2  A    between atoms: C15_20  and  C17_21 
ROOT
ATOM      1  C4  1YL d   1     -20.850 -40.716  25.285  0.00  0.00    -0.051 A 
ATOM      2  C3  1YL d   1     -21.096 -40.365  23.888  0.00  0.00    -0.076 A 
ATOM      3  C2  1YL d   1     -20.097 -40.654  22.870  0.00  0.00    -0.082 A 
ATOM      4  C1  1YL d   1     -18.840 -41.302  23.257  0.00  0.00    -0.071 A 
ATOM      5  C10 1YL d   1     -18.587 -41.658  24.662  0.00  0.00    -0.010 A 
ATOM      6  C5  1YL d   1     -19.603 -41.351  25.665  0.00  0.00    -0.019 A 
ATOM      7  C6  1YL d   1     -19.411 -41.676  27.078  0.00  0.00    -0.071 A 
ATOM      8  C7  1YL d   1     -18.165 -42.321  27.494  0.00  0.00    -0.069 A 
ATOM      9  C8  1YL d   1     -17.139 -42.600  26.496  0.00  0.00     0.013 A 
ATOM     10  C9  1YL d   1     -17.326 -42.297  25.080  0.00  0.00     0.042 A 
ATOM     11  C11 1YL d   1     -16.213 -42.628  24.135  0.00  0.00     0.234 A 
ATOM     12  O21 1YL d   1     -16.279 -42.379  22.900  0.00  0.00    -0.283 OA
ATOM     13  C12 1YL d   1     -14.984 -43.265  24.586  0.00  0.00     0.232 A 
ATOM     14  O20 1YL d   1     -14.066 -43.538  23.734  0.00  0.00    -0.283 OA
ATOM     15  C13 1YL d   1     -14.833 -43.602  26.095  0.00  0.00     0.036 A 
ATOM     16  C14 1YL d   1     -15.852 -43.289  26.974  0.00  0.00     0.090 A 
ATOM     17  O19 1YL d   1     -15.500 -43.687  28.354  0.00  0.00    -0.349 OA
ATOM     18  C16 1YL d   1     -14.355 -44.642  28.261  0.00  0.00     0.033 C 
ATOM     19  C15 1YL d   1     -13.617 -44.284  26.901  0.00  0.00    -0.004 C 
ATOM     20  H4  1YL d   1     -22.028 -39.887  23.608  0.00  0.00     0.084 H 
ATOM     21  H5  1YL d   1     -20.281 -40.392  21.834  0.00  0.00     0.083 H 
ATOM     22  H6  1YL d   1     -18.092 -41.520  22.503  0.00  0.00     0.084 H 
ATOM     23  H7  1YL d   1     -20.180 -41.443  27.806  0.00  0.00     0.084 H 
ATOM     24  H8  1YL d   1     -18.006 -42.588  28.532  0.00  0.00     0.085 H 
ATOM     25  H9  1YL d   1     -14.720 -45.679  28.239  0.00  0.00     0.076 H 
ATOM     26  H10 1YL d   1     -13.674 -44.511  29.115  0.00  0.00     0.076 H 
ATOM     27  H11 1YL d   1     -13.236 -45.186  26.400  0.00  0.00     0.050 H 
ENDROOT
BRANCH  19  28
ATOM     28  C17 1YL d   1     -12.420 -43.213  27.078  0.00  0.00    -0.067 C 
ATOM     29  H12 1YL d   1     -11.958 -43.015  26.100  0.00  0.00     0.028 H 
ATOM     30  H13 1YL d   1     -11.663 -43.619  27.765  0.00  0.00     0.028 H 
ATOM     31  H14 1YL d   1     -12.824 -42.276  27.489  0.00  0.00     0.028 H 
ENDBRANCH  19  28
BRANCH   1  32
ATOM     32  C18 1YL d   1     -21.922 -40.431  26.436  0.00  0.00    -0.050 C 
ATOM     33  H1  1YL d   1     -22.809 -39.950  25.999  0.00  0.00     0.033 H 
ATOM     34  H2  1YL d   1     -21.480 -39.767  27.193  0.00  0.00     0.033 H 
ATOM     35  H3  1YL d   1     -22.215 -41.381  26.908  0.00  0.00     0.033 H 
ENDBRANCH   1  32
TORSDOF 2
