REMARK  13 active torsions:
REMARK  status: ('A' for Active; 'I' for Inactive)
REMARK    1  A    between atoms: C26_1  and  C14_2 
REMARK    2  A    between atoms: C17_5  and  O2_38 
REMARK    3  A    between atoms: C18_6  and  C25_37 
REMARK    4  A    between atoms: C13_7  and  O9_29 
REMARK    5  A    between atoms: C8_12  and  C1_16 
REMARK    6  A    between atoms: C5_18  and  O5_26 
REMARK    7  A    between atoms: C4_19  and  O4_24 
REMARK    8  A    between atoms: C3_20  and  O3_22 
REMARK    9  A    between atoms: O3_22  and  C27_23 
REMARK   10  A    between atoms: O4_24  and  C28_25 
REMARK   11  A    between atoms: O5_26  and  C29_27 
REMARK   12  A    between atoms: C22_34  and  C24_35 
REMARK   13  A    between atoms: C22_34  and  C23_36 
ROOT
ATOM      1  C14 1YK d   1     -13.506 -44.654  29.666  0.00  0.00     0.097 C 
ATOM      2  C15 1YK d   1     -13.285 -44.588  31.197  0.00  0.00    -0.030 C 
ATOM      3  C16 1YK d   1     -11.873 -45.080  31.505  0.00  0.00    -0.031 C 
ATOM      4  C17 1YK d   1     -10.819 -44.229  30.848  0.00  0.00     0.086 C 
ATOM      5  C18 1YK d   1     -10.942 -44.338  29.332  0.00  0.00     0.087 C 
ATOM      6  C13 1YK d   1     -12.372 -43.931  28.907  0.00  0.00     0.110 C 
ATOM      7  C12 1YK d   1     -12.593 -44.129  27.412  0.00  0.00     0.000 C 
ATOM      8  C11 1YK d   1     -14.022 -43.729  27.107  0.00  0.00     0.054 A 
ATOM      9  C10 1YK d   1     -14.939 -43.700  28.064  0.00  0.00     0.085 A 
ATOM     10  C9  1YK d   1     -16.370 -43.301  27.775  0.00  0.00    -0.016 A 
ATOM     11  C8  1YK d   1     -16.706 -43.017  26.486  0.00  0.00     0.092 A 
ATOM     12  O6  1YK d   1     -15.750 -43.087  25.460  0.00  0.00    -0.274 OA
ATOM     13  C7  1YK d   1     -14.429 -43.415  25.724  0.00  0.00     0.297 A 
ATOM     14  O7  1YK d   1     -13.641 -43.436  24.804  0.00  0.00    -0.259 OA
ATOM     15  O8  1YK d   1     -14.685 -43.979  29.408  0.00  0.00    -0.337 OA
ATOM     16  C19 1YK d   1      -9.886 -43.418  28.762  0.00  0.00     0.163 C 
ATOM     17  O1  1YK d   1     -10.092 -42.668  27.830  0.00  0.00    -0.292 OA
ATOM     18  C20 1YK d   1      -8.526 -43.408  29.344  0.00  0.00    -0.041 C 
ATOM     19  C21 1YK d   1      -8.296 -43.945  30.566  0.00  0.00    -0.089 C 
ATOM     20  C22 1YK d   1      -9.410 -44.590  31.426  0.00  0.00     0.003 C 
ATOM     21  H4  1YK d   1     -14.020 -45.229  31.706  0.00  0.00     0.037 H 
ATOM     22  H5  1YK d   1     -13.400 -43.551  31.544  0.00  0.00     0.037 H 
ATOM     23  H6  1YK d   1     -11.771 -46.113  31.142  0.00  0.00     0.037 H 
ATOM     24  H7  1YK d   1     -11.719 -45.057  32.594  0.00  0.00     0.037 H 
ATOM     25  H8  1YK d   1     -12.433 -45.184  27.145  0.00  0.00     0.045 H 
ATOM     26  H9  1YK d   1     -11.896 -43.497  26.842  0.00  0.00     0.045 H 
ATOM     27  H10 1YK d   1     -17.108 -43.243  28.573  0.00  0.00     0.092 H 
ATOM     28  H23 1YK d   1      -7.703 -42.965  28.785  0.00  0.00     0.088 H 
ATOM     29  H24 1YK d   1      -7.282 -43.922  30.961  0.00  0.00     0.078 H 
ENDROOT
BRANCH  11  30
ATOM     30  C1  1YK d   1     -18.065 -42.603  26.012  0.00  0.00     0.003 A 
ATOM     31  C6  1YK d   1     -19.307 -42.440  26.776  0.00  0.00    -0.035 A 
ATOM     32  C5  1YK d   1     -20.445 -42.040  26.100  0.00  0.00     0.105 A 
ATOM     33  H11 1YK d   1     -19.332 -42.628  27.843  0.00  0.00     0.089 H 
ATOM     34  C4  1YK d   1     -20.505 -41.780  24.836  0.00  0.00     0.135 A 
ATOM     35  C3  1YK d   1     -19.459 -41.910  24.067  0.00  0.00     0.105 A 
ATOM     36  C2  1YK d   1     -18.244 -42.305  24.594  0.00  0.00    -0.035 A 
ATOM     37  H12 1YK d   1     -17.392 -42.397  23.930  0.00  0.00     0.089 H 
BRANCH  32  38
ATOM     38  O5  1YK d   1     -21.631 -41.880  26.817  0.00  0.00    -0.353 OA
BRANCH  38  39
ATOM     39  C29 1YK d   1     -21.784 -42.839  27.837  0.00  0.00     0.010 C 
ATOM     40  H19 1YK d   1     -22.733 -42.664  28.366  0.00  0.00     0.066 H 
ATOM     41  H20 1YK d   1     -20.948 -42.756  28.547  0.00  0.00     0.066 H 
ATOM     42  H21 1YK d   1     -21.791 -43.846  27.395  0.00  0.00     0.066 H 
ENDBRANCH  38  39
ENDBRANCH  32  38
BRANCH  34  43
ATOM     43  O4  1YK d   1     -21.786 -41.402  24.369  0.00  0.00    -0.351 OA
BRANCH  43  44
ATOM     44  C28 1YK d   1     -21.919 -40.303  23.486  0.00  0.00     0.011 C 
ATOM     45  H16 1YK d   1     -22.980 -40.161  23.234  0.00  0.00     0.067 H 
ATOM     46  H17 1YK d   1     -21.347 -40.500  22.567  0.00  0.00     0.067 H 
ATOM     47  H18 1YK d   1     -21.533 -39.394  23.971  0.00  0.00     0.067 H 
ENDBRANCH  43  44
ENDBRANCH  34  43
BRANCH  35  48
ATOM     48  O3  1YK d   1     -19.460 -41.652  22.678  0.00  0.00    -0.353 OA
BRANCH  48  49
ATOM     49  C27 1YK d   1     -19.323 -42.814  21.874  0.00  0.00     0.010 C 
ATOM     50  H13 1YK d   1     -19.333 -42.528  20.812  0.00  0.00     0.066 H 
ATOM     51  H14 1YK d   1     -20.158 -43.501  22.077  0.00  0.00     0.066 H 
ATOM     52  H15 1YK d   1     -18.372 -43.313  22.110  0.00  0.00     0.066 H 
ENDBRANCH  48  49
ENDBRANCH  35  48
ENDBRANCH  11  30
BRANCH   1  53
ATOM     53  C26 1YK d   1     -13.801 -46.080  29.229  0.00  0.00    -0.044 C 
ATOM     54  H1  1YK d   1     -14.622 -46.488  29.838  0.00  0.00     0.031 H 
ATOM     55  H2  1YK d   1     -12.902 -46.699  29.365  0.00  0.00     0.031 H 
ATOM     56  H3  1YK d   1     -14.093 -46.086  28.169  0.00  0.00     0.031 H 
ENDBRANCH   1  53
BRANCH   6  57
ATOM     57  O9  1YK d   1     -12.520 -42.553  29.189  0.00  0.00    -0.385 OA
ATOM     58  H22 1YK d   1     -13.392 -42.271  28.938  0.00  0.00     0.210 HD
ENDBRANCH   6  57
BRANCH   5  59
ATOM     59  C25 1YK d   1     -10.595 -45.696  28.746  0.00  0.00    -0.056 C 
ATOM     60  H31 1YK d   1      -9.577 -45.978  29.053  0.00  0.00     0.029 H 
ATOM     61  H32 1YK d   1     -10.647 -45.646  27.648  0.00  0.00     0.029 H 
ATOM     62  H33 1YK d   1     -11.310 -46.447  29.113  0.00  0.00     0.029 H 
ENDBRANCH   5  59
BRANCH   4  63
ATOM     63  O2  1YK d   1     -11.078 -42.893  31.216  0.00  0.00    -0.387 OA
ATOM     64  H34 1YK d   1     -11.956 -42.654  30.941  0.00  0.00     0.210 HD
ENDBRANCH   4  63
BRANCH  20  65
ATOM     65  C24 1YK d   1      -9.292 -44.023  32.826  0.00  0.00    -0.063 C 
ATOM     66  H25 1YK d   1      -8.304 -44.272  33.240  0.00  0.00     0.029 H 
ATOM     67  H26 1YK d   1     -10.077 -44.455  33.464  0.00  0.00     0.029 H 
ATOM     68  H27 1YK d   1      -9.409 -42.930  32.790  0.00  0.00     0.029 H 
ENDBRANCH  20  65
BRANCH  20  69
ATOM     69  C23 1YK d   1      -9.132 -46.081  31.606  0.00  0.00    -0.063 C 
ATOM     70  H28 1YK d   1      -9.196 -46.586  30.631  0.00  0.00     0.029 H 
ATOM     71  H29 1YK d   1      -9.876 -46.513  32.292  0.00  0.00     0.029 H 
ATOM     72  H30 1YK d   1      -8.124 -46.218  32.025  0.00  0.00     0.029 H 
ENDBRANCH  20  69
TORSDOF 13
