REMARK  7 active torsions:
REMARK  status: ('A' for Active; 'I' for Inactive)
REMARK    1  A    between atoms: C21_2  and  C15_4 
REMARK    2  A    between atoms: C14_9  and  N02_10 
REMARK    3  A    between atoms: N02_10  and  C10_11 
REMARK    4  A    between atoms: C09_12  and  C20_13 
REMARK    5  A    between atoms: C08_19  and  N01_20 
REMARK    6  A    between atoms: N01_20  and  C03_21 
REMARK    7  A    between atoms: C02_26  and  C01_27 
ROOT
ATOM      1  C10 644 d   1     -17.706  32.595 -15.504  0.00  0.00     0.052 A 
ATOM      2  C09 644 d   1     -18.026  31.271 -15.794  0.00  0.00     0.094 A 
ATOM      3  C11 644 d   1     -17.026  32.846 -14.306  0.00  0.00    -0.056 A 
ATOM      4  C12 644 d   1     -16.659  31.828 -13.438  0.00  0.00    -0.079 A 
ATOM      5  C13 644 d   1     -16.979  30.518 -13.751  0.00  0.00    -0.056 A 
ATOM      6  C08 644 d   1     -17.684  30.236 -14.921  0.00  0.00     0.052 A 
ATOM      7  H   644 d   1     -16.778  33.869 -14.048  0.00  0.00     0.086 H 
ATOM      8  H   644 d   1     -16.126  32.056 -12.522  0.00  0.00     0.083 H 
ATOM      9  H   644 d   1     -16.682  29.713 -13.088  0.00  0.00     0.086 H 
ENDROOT
BRANCH   1  10
ATOM     10  N02 644 d   1     -18.056  33.586 -16.391  0.00  0.00    -0.354 N 
ATOM     11  H   644 d   1     -18.634  33.285 -17.189  0.00  0.00     0.166 HD
BRANCH  10  12
ATOM     12  C14 644 d   1     -17.739  34.930 -16.359  0.00  0.00     0.049 A 
ATOM     13  C15 644 d   1     -18.532  35.835 -17.062  0.00  0.00     0.067 A 
ATOM     14  C16 644 d   1     -18.269  37.200 -17.055  0.00  0.00    -0.064 A 
ATOM     15  C17 644 d   1     -17.182  37.705 -16.353  0.00  0.00    -0.082 A 
ATOM     16  H   644 d   1     -18.917  37.876 -17.602  0.00  0.00     0.085 H 
ATOM     17  C18 644 d   1     -16.368  36.825 -15.653  0.00  0.00    -0.081 A 
ATOM     18  H   644 d   1     -16.973  38.769 -16.352  0.00  0.00     0.083 H 
ATOM     19  C19 644 d   1     -16.648  35.460 -15.671  0.00  0.00    -0.056 A 
ATOM     20  H   644 d   1     -15.517  37.198 -15.094  0.00  0.00     0.083 H 
ATOM     21  H   644 d   1     -15.994  34.786 -15.130  0.00  0.00     0.086 H 
BRANCH  13  22
ATOM     22  C21 644 d   1     -19.732  35.380 -17.836  0.00  0.00     0.211 C 
ATOM     23  O05 644 d   1     -19.808  34.191 -18.224  0.00  0.00    -0.644 OA
ATOM     24  O06 644 d   1     -20.629  36.230 -18.054  0.00  0.00    -0.644 OA
ENDBRANCH  13  22
ENDBRANCH  10  12
ENDBRANCH   1  10
BRANCH   2  25
ATOM     25  C20 644 d   1     -18.740  30.948 -17.080  0.00  0.00     0.214 C 
ATOM     26  O04 644 d   1     -19.791  31.543 -17.383  0.00  0.00    -0.644 OA
ATOM     27  O03 644 d   1     -18.231  30.097 -17.848  0.00  0.00    -0.644 OA
ENDBRANCH   2  25
BRANCH   6  28
ATOM     28  N01 644 d   1     -18.012  28.944 -15.223  0.00  0.00    -0.354 N 
ATOM     29  H   644 d   1     -17.687  28.571 -16.127  0.00  0.00     0.166 HD
BRANCH  28  30
ATOM     30  C03 644 d   1     -18.741  28.103 -14.416  0.00  0.00     0.049 A 
ATOM     31  C04 644 d   1     -19.086  28.412 -13.090  0.00  0.00    -0.056 A 
ATOM     32  C05 644 d   1     -19.799  27.526 -12.299  0.00  0.00    -0.081 A 
ATOM     33  H   644 d   1     -18.787  29.368 -12.675  0.00  0.00     0.086 H 
ATOM     34  C06 644 d   1     -20.206  26.301 -12.817  0.00  0.00    -0.082 A 
ATOM     35  H   644 d   1     -20.040  27.788 -11.275  0.00  0.00     0.083 H 
ATOM     36  C07 644 d   1     -19.881  25.977 -14.127  0.00  0.00    -0.064 A 
ATOM     37  H   644 d   1     -20.771  25.607 -12.205  0.00  0.00     0.083 H 
ATOM     38  C02 644 d   1     -19.148  26.868 -14.916  0.00  0.00     0.067 A 
ATOM     39  H   644 d   1     -20.198  25.026 -14.541  0.00  0.00     0.085 H 
BRANCH  38  40
ATOM     40  C01 644 d   1     -18.819  26.475 -16.328  0.00  0.00     0.211 C 
ATOM     41  O02 644 d   1     -18.545  27.368 -17.159  0.00  0.00    -0.644 OA
ATOM     42  O01 644 d   1     -18.844  25.262 -16.635  0.00  0.00    -0.644 OA
ENDBRANCH  38  40
ENDBRANCH  28  30
ENDBRANCH   6  28
TORSDOF 7
