REMARK  6 active torsions:
REMARK  status: ('A' for Active; 'I' for Inactive)
REMARK    1  A    between atoms: N1_1  and  C6_13 
REMARK    2  A    between atoms: C1_3  and  C5_10 
REMARK    3  A    between atoms: C2_4  and  N3_6 
REMARK       I    between atoms: N3_6  and  C4_7 
REMARK       I    between atoms: C4_7  and  N4_8 
REMARK       I    between atoms: C5_10  and  N5_11 
REMARK    4  A    between atoms: C14_21  and  O3_23 
REMARK    5  A    between atoms: O3_23  and  C16_24 
REMARK    6  A    between atoms: C16_24  and  C17_25 
ROOT
ATOM      1  C6  1YZ d   1      -4.962   9.346  12.364  0.00  0.00     0.069 A 
ATOM      2  C7  1YZ d   1      -4.278   9.299  11.176  0.00  0.00    -0.054 A 
ATOM      3  C8  1YZ d   1      -4.380  10.386  10.280  0.00  0.00    -0.080 A 
ATOM      4  C9  1YZ d   1      -5.151  11.470  10.594  0.00  0.00    -0.072 A 
ATOM      5  C10 1YZ d   1      -5.758  10.469  12.741  0.00  0.00     0.005 A 
ATOM      6  C11 1YZ d   1      -5.829  11.541  11.837  0.00  0.00    -0.024 A 
ATOM      7  C12 1YZ d   1      -6.565  12.706  12.194  0.00  0.00    -0.070 A 
ATOM      8  C13 1YZ d   1      -7.203  12.792  13.394  0.00  0.00    -0.050 A 
ATOM      9  C14 1YZ d   1      -7.133  11.686  14.293  0.00  0.00     0.069 A 
ATOM     10  C15 1YZ d   1      -6.432  10.549  13.983  0.00  0.00    -0.038 A 
ATOM     11  H   1YZ d   1      -3.667   8.439  10.928  0.00  0.00     0.087 H 
ATOM     12  H   1YZ d   1      -3.844  10.360   9.338  0.00  0.00     0.083 H 
ATOM     13  H   1YZ d   1      -5.245  12.284   9.885  0.00  0.00     0.084 H 
ATOM     14  H   1YZ d   1      -6.618  13.537  11.500  0.00  0.00     0.085 H 
ATOM     15  H   1YZ d   1      -7.755  13.686  13.662  0.00  0.00     0.087 H 
ATOM     16  H   1YZ d   1      -6.394   9.721  14.681  0.00  0.00     0.089 H 
ENDROOT
BRANCH   1  17
ATOM     17  N1  1YZ d   1      -4.852   8.225  13.254  0.00  0.00    -0.241 N 
ATOM     18  N2  1YZ d   1      -5.941   7.545  13.664  0.00  0.00    -0.160 NA
ATOM     19  C1  1YZ d   1      -5.470   6.620  14.557  0.00  0.00     0.172 A 
ATOM     20  C2  1YZ d   1      -4.045   6.735  14.691  0.00  0.00     0.090 A 
ATOM     21  C3  1YZ d   1      -3.659   7.773  13.835  0.00  0.00     0.033 A 
ATOM     22  H   1YZ d   1      -2.652   8.148  13.659  0.00  0.00     0.118 H 
BRANCH  19  23
ATOM     23  C5  1YZ d   1      -6.331   5.678  15.272  0.00  0.00     0.272 C 
ATOM     24  N5  1YZ d   1      -7.662   5.649  14.937  0.00  0.00    -0.365 N 
ATOM     25  H   1YZ d   1      -8.281   5.018  15.404  0.00  0.00     0.159 HD
ATOM     26  H   1YZ d   1      -8.012   6.259  14.226  0.00  0.00     0.159 HD
ATOM     27  O2  1YZ d   1      -5.887   4.934  16.154  0.00  0.00    -0.266 OA
ENDBRANCH  19  23
BRANCH  20  28
ATOM     28  N3  1YZ d   1      -3.287   5.933  15.537  0.00  0.00    -0.305 N 
ATOM     29  C4  1YZ d   1      -1.899   6.102  15.657  0.00  0.00     0.318 C 
ATOM     30  N4  1YZ d   1      -1.268   5.326  16.621  0.00  0.00    -0.352 N 
ATOM     31  O1  1YZ d   1      -1.253   6.887  14.954  0.00  0.00    -0.247 OA
ATOM     32  H   1YZ d   1      -0.280   5.401  16.755  0.00  0.00     0.160 HD
ATOM     33  H   1YZ d   1      -1.802   4.692  17.181  0.00  0.00     0.160 HD
ATOM     34  H   1YZ d   1      -3.741   5.220  16.072  0.00  0.00     0.171 HD
ENDBRANCH  20  28
ENDBRANCH   1  17
BRANCH   9  35
ATOM     35  O3  1YZ d   1      -7.798  11.902  15.461  0.00  0.00    -0.351 OA
BRANCH  35  36
ATOM     36  C16 1YZ d   1      -7.810  10.842  16.403  0.00  0.00     0.023 C 
ATOM     37  H   1YZ d   1      -6.784  10.521  16.636  0.00  0.00     0.074 H 
ATOM     38  H   1YZ d   1      -8.383   9.987  16.015  0.00  0.00     0.074 H 
BRANCH  36  39
ATOM     39  C17 1YZ d   1      -8.484  11.418  17.642  0.00  0.00    -0.056 C 
ATOM     40  H   1YZ d   1      -8.531  10.647  18.425  0.00  0.00     0.030 H 
ATOM     41  H   1YZ d   1      -9.503  11.744  17.387  0.00  0.00     0.030 H 
ATOM     42  H   1YZ d   1      -7.904  12.278  18.008  0.00  0.00     0.030 H 
ENDBRANCH  36  39
ENDBRANCH  35  36
ENDBRANCH   9  35
TORSDOF 6
