REMARK  7 active torsions:
REMARK  status: ('A' for Active; 'I' for Inactive)
REMARK    1  A    between atoms: N1_1  and  C6_13 
REMARK    2  A    between atoms: C1_3  and  C5_10 
REMARK    3  A    between atoms: C2_4  and  N3_6 
REMARK       I    between atoms: N3_6  and  C4_7 
REMARK       I    between atoms: C4_7  and  N4_8 
REMARK       I    between atoms: C5_10  and  N5_11 
REMARK    4  A    between atoms: C14_21  and  O3_23 
REMARK    5  A    between atoms: O3_23  and  C16_24 
REMARK    6  A    between atoms: C16_24  and  C17_25 
REMARK    7  A    between atoms: C17_25  and  C18_26 
ROOT
ATOM      1  C6  1E0 d   1      -4.934   9.378  12.257  0.00  0.00     0.069 A 
ATOM      2  C7  1E0 d   1      -4.310   9.263  11.040  0.00  0.00    -0.054 A 
ATOM      3  C8  1E0 d   1      -4.400  10.327  10.118  0.00  0.00    -0.080 A 
ATOM      4  C9  1E0 d   1      -5.107  11.455  10.433  0.00  0.00    -0.072 A 
ATOM      5  C10 1E0 d   1      -5.672  10.539  12.627  0.00  0.00     0.005 A 
ATOM      6  C11 1E0 d   1      -5.744  11.583  11.690  0.00  0.00    -0.024 A 
ATOM      7  C12 1E0 d   1      -6.456  12.768  12.026  0.00  0.00    -0.070 A 
ATOM      8  C13 1E0 d   1      -7.074  12.893  13.232  0.00  0.00    -0.050 A 
ATOM      9  C14 1E0 d   1      -7.007  11.814  14.166  0.00  0.00     0.069 A 
ATOM     10  C15 1E0 d   1      -6.315  10.667  13.884  0.00  0.00    -0.038 A 
ATOM     11  H   1E0 d   1      -3.755   8.366  10.790  0.00  0.00     0.087 H 
ATOM     12  H   1E0 d   1      -3.907  10.250   9.156  0.00  0.00     0.083 H 
ATOM     13  H   1E0 d   1      -5.180  12.260   9.711  0.00  0.00     0.084 H 
ATOM     14  H   1E0 d   1      -6.507  13.582  11.312  0.00  0.00     0.085 H 
ATOM     15  H   1E0 d   1      -7.611  13.801  13.481  0.00  0.00     0.087 H 
ATOM     16  H   1E0 d   1      -6.259   9.867  14.613  0.00  0.00     0.089 H 
ENDROOT
BRANCH   1  17
ATOM     17  N1  1E0 d   1      -4.828   8.280  13.177  0.00  0.00    -0.241 N 
ATOM     18  N2  1E0 d   1      -5.916   7.625  13.625  0.00  0.00    -0.160 NA
ATOM     19  C1  1E0 d   1      -5.440   6.714  14.530  0.00  0.00     0.172 A 
ATOM     20  C2  1E0 d   1      -4.010   6.814  14.628  0.00  0.00     0.090 A 
ATOM     21  C3  1E0 d   1      -3.629   7.830  13.745  0.00  0.00     0.033 A 
ATOM     22  H   1E0 d   1      -2.622   8.192  13.543  0.00  0.00     0.118 H 
BRANCH  19  23
ATOM     23  C5  1E0 d   1      -6.296   5.788  15.274  0.00  0.00     0.272 C 
ATOM     24  N5  1E0 d   1      -7.637   5.764  14.973  0.00  0.00    -0.365 N 
ATOM     25  H   1E0 d   1      -8.248   5.143  15.463  0.00  0.00     0.159 HD
ATOM     26  H   1E0 d   1      -8.001   6.368  14.264  0.00  0.00     0.159 HD
ATOM     27  O2  1E0 d   1      -5.834   5.053  16.155  0.00  0.00    -0.266 OA
ENDBRANCH  19  23
BRANCH  20  28
ATOM     28  N3  1E0 d   1      -3.240   6.004  15.449  0.00  0.00    -0.305 N 
ATOM     29  C4  1E0 d   1      -1.843   6.129  15.527  0.00  0.00     0.318 C 
ATOM     30  N4  1E0 d   1      -1.211   5.247  16.397  0.00  0.00    -0.352 N 
ATOM     31  O1  1E0 d   1      -1.196   6.964  14.883  0.00  0.00    -0.247 OA
ATOM     32  H   1E0 d   1      -0.217   5.277  16.505  0.00  0.00     0.160 HD
ATOM     33  H   1E0 d   1      -1.750   4.583  16.915  0.00  0.00     0.160 HD
ATOM     34  H   1E0 d   1      -3.695   5.308  16.004  0.00  0.00     0.171 HD
ENDBRANCH  20  28
ENDBRANCH   1  17
BRANCH   9  35
ATOM     35  O3  1E0 d   1      -7.678  12.067  15.321  0.00  0.00    -0.351 OA
BRANCH  35  36
ATOM     36  C16 1E0 d   1      -7.697  11.038  16.296  0.00  0.00     0.026 C 
ATOM     37  H   1E0 d   1      -6.672  10.729  16.550  0.00  0.00     0.075 H 
ATOM     38  H   1E0 d   1      -8.261  10.169  15.927  0.00  0.00     0.075 H 
BRANCH  36  39
ATOM     39  C17 1E0 d   1      -8.391  11.647  17.518  0.00  0.00    -0.048 C 
ATOM     40  H   1E0 d   1      -8.538  10.864  18.276  0.00  0.00     0.035 H 
ATOM     41  H   1E0 d   1      -9.368  12.051  17.214  0.00  0.00     0.035 H 
BRANCH  39  42
ATOM     42  C18 1E0 d   1      -7.553  12.766  18.114  0.00  0.00    -0.075 C 
ATOM     43  H   1E0 d   1      -8.071  13.187  18.988  0.00  0.00     0.027 H 
ATOM     44  H   1E0 d   1      -7.405  13.554  17.361  0.00  0.00     0.027 H 
ATOM     45  H   1E0 d   1      -6.576  12.367  18.424  0.00  0.00     0.027 H 
ENDBRANCH  39  42
ENDBRANCH  36  39
ENDBRANCH  35  36
ENDBRANCH   9  35
TORSDOF 7
