REMARK  7 active torsions:
REMARK  status: ('A' for Active; 'I' for Inactive)
REMARK    1  A    between atoms: N1_1  and  C13_13 
REMARK    2  A    between atoms: C3_3  and  C10_10 
REMARK    3  A    between atoms: C4_4  and  N6_6 
REMARK       I    between atoms: N6_6  and  C7_7 
REMARK       I    between atoms: C7_7  and  N8_8 
REMARK       I    between atoms: C10_10  and  N11_11 
REMARK    4  A    between atoms: C21_21  and  O23_23 
REMARK    5  A    between atoms: O23_23  and  C24_24 
REMARK    6  A    between atoms: C24_24  and  C25_25 
REMARK    7  A    between atoms: C24_24  and  C26_26 
ROOT
ATOM      1  C13 QWS d   1       8.246   3.877  25.132  0.00  0.00     0.069 A 
ATOM      2  C14 QWS d   1       7.797   2.776  25.836  0.00  0.00    -0.054 A 
ATOM      3  C15 QWS d   1       8.544   2.259  26.874  0.00  0.00    -0.080 A 
ATOM      4  C16 QWS d   1       9.733   2.864  27.228  0.00  0.00    -0.072 A 
ATOM      5  C17 QWS d   1       9.450   4.486  25.467  0.00  0.00     0.005 A 
ATOM      6  C18 QWS d   1      10.181   3.969  26.534  0.00  0.00    -0.024 A 
ATOM      7  C19 QWS d   1      11.383   4.533  26.905  0.00  0.00    -0.070 A 
ATOM      8  C20 QWS d   1      11.865   5.638  26.235  0.00  0.00    -0.050 A 
ATOM      9  C21 QWS d   1      11.156   6.162  25.174  0.00  0.00     0.070 A 
ATOM     10  C22 QWS d   1       9.955   5.582  24.788  0.00  0.00    -0.038 A 
ATOM     11  H   QWS d   1       6.852   2.316  25.571  0.00  0.00     0.087 H 
ATOM     12  H   QWS d   1       8.199   1.382  27.409  0.00  0.00     0.083 H 
ATOM     13  H   QWS d   1      10.316   2.470  28.053  0.00  0.00     0.084 H 
ATOM     14  H   QWS d   1      11.950   4.107  27.725  0.00  0.00     0.085 H 
ATOM     15  H   QWS d   1      12.799   6.094  26.542  0.00  0.00     0.087 H 
ATOM     16  H   QWS d   1       9.407   5.991  23.947  0.00  0.00     0.089 H 
ENDROOT
BRANCH   1  17
ATOM     17  N1  QWS d   1       7.407   4.351  24.100  0.00  0.00    -0.241 N 
ATOM     18  N2  QWS d   1       7.876   4.765  22.906  0.00  0.00    -0.160 NA
ATOM     19  C3  QWS d   1       6.790   5.122  22.207  0.00  0.00     0.172 A 
ATOM     20  C4  QWS d   1       5.605   4.924  22.958  0.00  0.00     0.090 A 
ATOM     21  C5  QWS d   1       6.039   4.413  24.163  0.00  0.00     0.033 A 
ATOM     22  H   QWS d   1       5.414   4.115  25.004  0.00  0.00     0.118 H 
BRANCH  19  23
ATOM     23  C10 QWS d   1       6.896   5.629  20.862  0.00  0.00     0.272 C 
ATOM     24  N11 QWS d   1       8.166   5.548  20.340  0.00  0.00    -0.365 N 
ATOM     25  H   QWS d   1       8.347   5.873  19.412  0.00  0.00     0.159 HD
ATOM     26  H   QWS d   1       8.909   5.164  20.889  0.00  0.00     0.159 HD
ATOM     27  O12 QWS d   1       5.923   6.054  20.255  0.00  0.00    -0.266 OA
ENDBRANCH  19  23
BRANCH  20  28
ATOM     28  N6  QWS d   1       4.292   5.169  22.561  0.00  0.00    -0.305 N 
ATOM     29  C7  QWS d   1       3.225   4.471  23.110  0.00  0.00     0.318 C 
ATOM     30  N8  QWS d   1       2.101   4.589  22.332  0.00  0.00    -0.352 N 
ATOM     31  O9  QWS d   1       3.283   3.807  24.149  0.00  0.00    -0.247 OA
ATOM     32  H   QWS d   1       1.253   4.136  22.607  0.00  0.00     0.160 HD
ATOM     33  H   QWS d   1       2.130   5.128  21.490  0.00  0.00     0.160 HD
ATOM     34  H   QWS d   1       4.114   5.864  21.864  0.00  0.00     0.171 HD
ENDBRANCH  20  28
ENDBRANCH   1  17
BRANCH   9  35
ATOM     35  O23 QWS d   1      11.718   7.300  24.600  0.00  0.00    -0.347 OA
BRANCH  35  36
ATOM     36  C24 QWS d   1      11.182   7.666  23.328  0.00  0.00     0.038 C 
ATOM     37  H   QWS d   1      10.748   6.798  22.810  0.00  0.00     0.082 H 
BRANCH  36  38
ATOM     38  C25 QWS d   1      10.148   8.754  23.526  0.00  0.00    -0.052 C 
ATOM     39  H   QWS d   1       9.729   9.043  22.551  0.00  0.00     0.030 H 
ATOM     40  H   QWS d   1      10.621   9.629  23.995  0.00  0.00     0.030 H 
ATOM     41  H   QWS d   1       9.342   8.380  24.175  0.00  0.00     0.030 H 
ENDBRANCH  36  38
BRANCH  36  42
ATOM     42  C26 QWS d   1      12.333   8.261  22.550  0.00  0.00    -0.052 C 
ATOM     43  H   QWS d   1      11.983   8.566  21.553  0.00  0.00     0.030 H 
ATOM     44  H   QWS d   1      13.131   7.511  22.445  0.00  0.00     0.030 H 
ATOM     45  H   QWS d   1      12.723   9.139  23.086  0.00  0.00     0.030 H 
ENDBRANCH  36  42
ENDBRANCH  35  36
ENDBRANCH   9  35
TORSDOF 7
