REMARK  6 active torsions:
REMARK  status: ('A' for Active; 'I' for Inactive)
REMARK    1  A    between atoms: C2_2  and  S10_10 
REMARK    2  A    between atoms: C5_5  and  N14_14 
REMARK    3  A    between atoms: C7_7  and  C15_15 
REMARK    4  A    between atoms: S10_10  and  N13_13 
REMARK    5  A    between atoms: N14_14  and  C18_18 
REMARK    6  A    between atoms: C18_18  and  C19_19 
ROOT
ATOM      1  S1  ETS d   1      15.171   3.545  15.672  0.00  0.00    -0.064 SA
ATOM      2  C2  ETS d   1      16.127   2.152  15.896  0.00  0.00     0.121 A 
ATOM      3  C3  ETS d   1      17.444   2.225  15.270  0.00  0.00    -0.043 A 
ATOM      4  C4  ETS d   1      17.460   3.551  14.682  0.00  0.00     0.003 A 
ATOM      5  C5  ETS d   1      18.724   3.918  13.927  0.00  0.00     0.130 C 
ATOM      6  C6  ETS d   1      18.824   5.397  13.595  0.00  0.00    -0.018 C 
ATOM      7  C7  ETS d   1      17.588   5.955  12.958  0.00  0.00     0.048 C 
ATOM      8  S8  ETS d   1      16.290   5.918  14.202  0.00  0.00     0.186 S 
ATOM      9  C9  ETS d   1      16.345   4.302  14.826  0.00  0.00     0.110 A 
ATOM     10  O16 ETS d   1      16.598   6.760  15.324  0.00  0.00    -0.222 OA
ATOM     11  O17 ETS d   1      14.996   6.215  13.635  0.00  0.00    -0.222 OA
ATOM     12  H1  ETS d   1      18.226   1.467  15.249  0.00  0.00     0.087 H 
ATOM     13  H2  ETS d   1      19.602   3.637  14.527  0.00  0.00     0.092 H 
ATOM     14  H3  ETS d   1      19.667   5.542  12.903  0.00  0.00     0.038 H 
ATOM     15  H4  ETS d   1      19.015   5.950  14.527  0.00  0.00     0.038 H 
ATOM     16  H5  ETS d   1      17.293   5.341  12.094  0.00  0.00     0.064 H 
ENDROOT
BRANCH   5  17
ATOM     17  N14 ETS d   1      18.683   3.128  12.703  0.00  0.00    -0.067 N 
ATOM     18  H8  ETS d   1      17.952   3.499  12.116  0.00  0.00     0.277 HD
ATOM     19  H9  ETS d   1      18.463   2.176  12.953  0.00  0.00     0.277 HD
BRANCH  17  20
ATOM     20  C18 ETS d   1      19.907   3.118  11.939  0.00  0.00     0.079 C 
ATOM     21  H13 ETS d   1      20.735   2.961  12.645  0.00  0.00     0.075 H 
ATOM     22  H14 ETS d   1      20.010   4.107  11.468  0.00  0.00     0.075 H 
BRANCH  20  23
ATOM     23  C19 ETS d   1      20.038   2.084  10.852  0.00  0.00    -0.053 C 
ATOM     24  H15 ETS d   1      21.014   2.194  10.357  0.00  0.00     0.029 H 
ATOM     25  H16 ETS d   1      19.235   2.224  10.114  0.00  0.00     0.029 H 
ATOM     26  H17 ETS d   1      19.961   1.079  11.291  0.00  0.00     0.029 H 
ENDBRANCH  20  23
ENDBRANCH  17  20
ENDBRANCH   5  17
BRANCH   7  27
ATOM     27  C15 ETS d   1      17.873   7.356  12.502  0.00  0.00    -0.060 C 
ATOM     28  H10 ETS d   1      18.670   7.340  11.744  0.00  0.00     0.029 H 
ATOM     29  H11 ETS d   1      18.197   7.963  13.361  0.00  0.00     0.029 H 
ATOM     30  H12 ETS d   1      16.962   7.793  12.067  0.00  0.00     0.029 H 
ENDBRANCH   7  27
BRANCH   2  31
ATOM     31  S10 ETS d   1      15.447   0.820  16.830  0.00  0.00     0.263 S 
ATOM     32  O11 ETS d   1      15.934   0.922  18.204  0.00  0.00    -0.200 OA
ATOM     33  O12 ETS d   1      13.999   0.966  16.723  0.00  0.00    -0.200 OA
BRANCH  31  34
ATOM     34  N13 ETS d   1      16.070  -0.559  16.244  0.00  0.00    -0.324 N 
ATOM     35  H6  ETS d   1      15.806  -1.437  16.644  0.00  0.00     0.169 HD
ATOM     36  H7  ETS d   1      16.718  -0.531  15.483  0.00  0.00     0.169 HD
ENDBRANCH  31  34
ENDBRANCH   2  31
TORSDOF 6
