REMARK  10 active torsions:
REMARK  status: ('A' for Active; 'I' for Inactive)
REMARK    1  A    between atoms: C3_1  and  C4_7 
REMARK    2  A    between atoms: C2_21  and  C3_1 
REMARK    3  A    between atoms: C11_4  and  N1_20 
REMARK    4  A    between atoms: S1_6  and  N2_11 
REMARK    5  A    between atoms: C7_14  and  S1_6 
REMARK    6  A    between atoms: C4_7  and  O1_22 
REMARK    7  A    between atoms: C6_9  and  C5_8 
REMARK    8  A    between atoms: N1_20  and  C6_9 
REMARK    9  A    between atoms: N3_19  and  C2_21 
REMARK   10  A    between atoms: O1_22  and  C1_23 
ROOT
ATOM      1  C9  BZ1 d   1      -0.214   3.841  85.074  0.00  0.00     0.006 A 
ATOM      2  C10 BZ1 d   1      -1.287   4.557  85.455  0.00  0.00     0.130 A 
ATOM      3  C11 BZ1 d   1       0.949   4.096  84.163  0.00  0.00     0.145 C 
ATOM      4  C12 BZ1 d   1       0.535   5.389  83.414  0.00  0.00     0.036 C 
ATOM      5  S2  BZ1 d   1      -2.323   3.737  86.475  0.00  0.00    -0.062 SA
ATOM      6  C7  BZ1 d   1      -1.412   2.292  86.538  0.00  0.00     0.121 A 
ATOM      7  C8  BZ1 d   1      -0.167   2.415  85.670  0.00  0.00    -0.043 A 
ATOM      8  S3  BZ1 d   1      -1.512   6.168  84.907  0.00  0.00     0.268 S 
ATOM      9  O2  BZ1 d   1      -1.772   7.058  86.042  0.00  0.00    -0.200 OA
ATOM     10  O5  BZ1 d   1      -2.548   6.281  83.878  0.00  0.00    -0.200 OA
ATOM     11  N3  BZ1 d   1      -0.020   6.418  84.310  0.00  0.00    -0.304 N 
ATOM     12  H3  BZ1 d   1       1.897   4.212  84.710  0.00  0.00     0.094 H 
ATOM     13  H4  BZ1 d   1      -0.226   5.131  82.662  0.00  0.00     0.069 H 
ATOM     14  H5  BZ1 d   1       1.422   5.803  82.911  0.00  0.00     0.069 H 
ATOM     15  H15 BZ1 d   1       0.597   1.657  85.504  0.00  0.00     0.087 H 
ENDROOT
BRANCH  11  16
ATOM     16  C2  BZ1 d   1       1.161   6.993  84.881  0.00  0.00     0.007 C 
ATOM     17  H18 BZ1 d   1       0.969   7.131  85.955  0.00  0.00     0.065 H 
ATOM     18  H19 BZ1 d   1       1.976   6.267  84.744  0.00  0.00     0.065 H 
BRANCH  16  19
ATOM     19  C3  BZ1 d   1       1.640   8.300  84.346  0.00  0.00    -0.030 C 
ATOM     20  H1  BZ1 d   1       2.578   8.547  84.865  0.00  0.00     0.038 H 
ATOM     21  H2  BZ1 d   1       1.839   8.166  83.272  0.00  0.00     0.038 H 
BRANCH  19  22
ATOM     22  C4  BZ1 d   1       0.724   9.468  84.492  0.00  0.00     0.020 C 
ATOM     23  H6  BZ1 d   1       0.074   9.264  85.356  0.00  0.00     0.074 H 
ATOM     24  H7  BZ1 d   1       0.114   9.517  83.578  0.00  0.00     0.074 H 
BRANCH  22  25
ATOM     25  O1  BZ1 d   1       1.268  10.717  84.682  0.00  0.00    -0.396 OA
BRANCH  25  26
ATOM     26  C1  BZ1 d   1       0.664  11.823  84.120  0.00  0.00     0.004 C 
ATOM     27  H20 BZ1 d   1       1.238  12.725  84.379  0.00  0.00     0.066 H 
ATOM     28  H21 BZ1 d   1      -0.361  11.917  84.507  0.00  0.00     0.066 H 
ATOM     29  H22 BZ1 d   1       0.634  11.709  83.026  0.00  0.00     0.066 H 
ENDBRANCH  25  26
ENDBRANCH  22  25
ENDBRANCH  19  22
ENDBRANCH  16  19
ENDBRANCH  11  16
BRANCH   3  30
ATOM     30  N1  BZ1 d   1       1.017   3.007  83.204  0.00  0.00    -0.066 N 
ATOM     31  H16 BZ1 d   1       0.160   2.993  82.673  0.00  0.00     0.278 HD
ATOM     32  H17 BZ1 d   1       1.114   2.140  83.709  0.00  0.00     0.278 HD
BRANCH  30  33
ATOM     33  C6  BZ1 d   1       2.117   3.130  82.292  0.00  0.00     0.079 C 
ATOM     34  H11 BZ1 d   1       1.946   4.031  81.684  0.00  0.00     0.075 H 
ATOM     35  H12 BZ1 d   1       3.032   3.259  82.889  0.00  0.00     0.075 H 
BRANCH  33  36
ATOM     36  C5  BZ1 d   1       2.347   1.988  81.353  0.00  0.00    -0.053 C 
ATOM     37  H8  BZ1 d   1       3.214   2.208  80.713  0.00  0.00     0.029 H 
ATOM     38  H9  BZ1 d   1       1.455   1.844  80.725  0.00  0.00     0.029 H 
ATOM     39  H10 BZ1 d   1       2.541   1.072  81.930  0.00  0.00     0.029 H 
ENDBRANCH  33  36
ENDBRANCH  30  33
ENDBRANCH   3  30
BRANCH   6  40
ATOM     40  S1  BZ1 d   1      -1.947   0.964  87.510  0.00  0.00     0.263 S 
ATOM     41  O3  BZ1 d   1      -1.403   1.187  88.839  0.00  0.00    -0.200 OA
ATOM     42  O4  BZ1 d   1      -3.404   1.091  87.497  0.00  0.00    -0.200 OA
BRANCH  40  43
ATOM     43  N2  BZ1 d   1      -1.356  -0.386  86.872  0.00  0.00    -0.324 N 
ATOM     44  H13 BZ1 d   1      -0.368  -0.537  86.849  0.00  0.00     0.169 HD
ATOM     45  H14 BZ1 d   1      -1.976  -1.076  86.498  0.00  0.00     0.169 HD
ENDBRANCH  40  43
ENDBRANCH   6  40
TORSDOF 10
