REMARK  6 active torsions:
REMARK  status: ('A' for Active; 'I' for Inactive)
REMARK    1  A    between atoms: C2_2  and  S10_10 
REMARK    2  A    between atoms: C5_5  and  N14_14 
REMARK    3  A    between atoms: C7_7  and  C15_15 
REMARK    4  A    between atoms: S10_10  and  N13_13 
REMARK    5  A    between atoms: N14_14  and  C18_18 
REMARK    6  A    between atoms: C18_18  and  C19_19 
ROOT
ATOM      1  S1  ETS d   1      15.239   3.618  15.778  0.00  0.00    -0.064 SA
ATOM      2  C2  ETS d   1      16.256   2.260  15.968  0.00  0.00     0.121 A 
ATOM      3  C3  ETS d   1      17.572   2.447  15.365  0.00  0.00    -0.043 A 
ATOM      4  C4  ETS d   1      17.521   3.762  14.781  0.00  0.00     0.003 A 
ATOM      5  C5  ETS d   1      18.793   4.179  14.070  0.00  0.00     0.130 C 
ATOM      6  C6  ETS d   1      18.874   5.686  13.917  0.00  0.00    -0.018 C 
ATOM      7  C7  ETS d   1      17.635   6.313  13.356  0.00  0.00     0.048 C 
ATOM      8  S8  ETS d   1      16.188   6.067  14.338  0.00  0.00     0.186 S 
ATOM      9  C9  ETS d   1      16.372   4.457  14.951  0.00  0.00     0.110 A 
ATOM     10  O16 ETS d   1      16.233   6.990  15.464  0.00  0.00    -0.222 OA
ATOM     11  O17 ETS d   1      15.013   6.134  13.507  0.00  0.00    -0.222 OA
ATOM     12  H1  ETS d   1      18.407   1.748  15.358  0.00  0.00     0.087 H 
ATOM     13  H2  ETS d   1      19.662   3.872  14.670  0.00  0.00     0.092 H 
ATOM     14  H3  ETS d   1      19.713   5.920  13.246  0.00  0.00     0.038 H 
ATOM     15  H4  ETS d   1      19.064   6.124  14.908  0.00  0.00     0.038 H 
ATOM     16  H5  ETS d   1      17.804   7.394  13.246  0.00  0.00     0.064 H 
ENDROOT
BRANCH   5  17
ATOM     17  N14 ETS d   1      18.791   3.405  12.849  0.00  0.00    -0.067 N 
ATOM     18  H8  ETS d   1      18.044   3.750  12.268  0.00  0.00     0.277 HD
ATOM     19  H9  ETS d   1      18.610   2.444  13.094  0.00  0.00     0.277 HD
BRANCH  17  20
ATOM     20  C18 ETS d   1      19.995   3.438  12.077  0.00  0.00     0.079 C 
ATOM     21  H13 ETS d   1      20.846   3.352  12.769  0.00  0.00     0.075 H 
ATOM     22  H14 ETS d   1      20.041   4.407  11.559  0.00  0.00     0.075 H 
BRANCH  20  23
ATOM     23  C19 ETS d   1      20.123   2.359  11.051  0.00  0.00    -0.053 C 
ATOM     24  H15 ETS d   1      21.077   2.473  10.516  0.00  0.00     0.029 H 
ATOM     25  H16 ETS d   1      19.291   2.433  10.336  0.00  0.00     0.029 H 
ATOM     26  H17 ETS d   1      20.096   1.377  11.546  0.00  0.00     0.029 H 
ENDBRANCH  20  23
ENDBRANCH  17  20
ENDBRANCH   5  17
BRANCH   7  27
ATOM     27  C15 ETS d   1      17.397   5.696  12.024  0.00  0.00    -0.060 C 
ATOM     28  H10 ETS d   1      18.286   5.836  11.391  0.00  0.00     0.029 H 
ATOM     29  H11 ETS d   1      16.529   6.175  11.548  0.00  0.00     0.029 H 
ATOM     30  H12 ETS d   1      17.200   4.621  12.148  0.00  0.00     0.029 H 
ENDBRANCH   7  27
BRANCH   2  31
ATOM     31  S10 ETS d   1      15.659   0.892  16.904  0.00  0.00     0.263 S 
ATOM     32  O11 ETS d   1      16.195   1.065  18.234  0.00  0.00    -0.200 OA
ATOM     33  O12 ETS d   1      14.189   1.017  16.842  0.00  0.00    -0.200 OA
BRANCH  31  34
ATOM     34  N13 ETS d   1      16.220  -0.459  16.266  0.00  0.00    -0.324 N 
ATOM     35  H6  ETS d   1      15.980  -1.341  16.672  0.00  0.00     0.169 HD
ATOM     36  H7  ETS d   1      16.811  -0.424  15.460  0.00  0.00     0.169 HD
ENDBRANCH  31  34
ENDBRANCH   2  31
TORSDOF 6
