REMARK  5 active torsions:
REMARK  status: ('A' for Active; 'I' for Inactive)
REMARK    1  A    between atoms: N_1  and  CA_2 
REMARK    2  A    between atoms: CA_2  and  CB_3 
REMARK    3  A    between atoms: CA_2  and  C_6 
REMARK    4  A    between atoms: CB_3  and  CG_4 
REMARK    5  A    between atoms: CG_4  and  SD_5 
ROOT
ATOM      1  CA  HCS d   1      79.144   5.440 -37.867  0.00  0.00     0.183 C 
ATOM      2  H   HCS d   1      79.428   4.475 -38.313  0.00  0.00     0.101 H 
ENDROOT
BRANCH   1   3
ATOM      3  N   HCS d   1      79.790   6.517 -38.611  0.00  0.00    -0.065 N 
ATOM      4  H   HCS d   1      80.791   6.416 -38.547  0.00  0.00     0.275 HD
ATOM      5  H   HCS d   1      79.516   7.406 -38.222  0.00  0.00     0.275 HD
ATOM      6  H   HCS d   1      79.509   6.473 -39.578  0.00  0.00     0.275 HD
ENDBRANCH   1   3
BRANCH   1   7
ATOM      7  CB  HCS d   1      79.671   5.479 -36.360  0.00  0.00    -0.021 C 
ATOM      8  H   HCS d   1      79.468   6.472 -35.932  0.00  0.00     0.037 H 
ATOM      9  H   HCS d   1      80.755   5.291 -36.352  0.00  0.00     0.037 H 
BRANCH   7  10
ATOM     10  CG  HCS d   1      78.971   4.414 -35.511  0.00  0.00    -0.023 C 
ATOM     11  H   HCS d   1      78.852   3.493 -36.101  0.00  0.00     0.048 H 
ATOM     12  H   HCS d   1      77.981   4.782 -35.202  0.00  0.00     0.048 H 
BRANCH  10  13
ATOM     13  SD  HCS d   1      80.004   4.056 -33.997  0.00  0.00    -0.182 SA
ATOM     14  H   HCS d   1      79.545   3.355 -33.437  0.00  0.00     0.101 HD
ENDBRANCH  10  13
ENDBRANCH   7  10
ENDBRANCH   1   7
BRANCH   1  15
ATOM     15  C   HCS d   1      77.541   5.588 -37.961  0.00  0.00     0.204 C 
ATOM     16  OXT HCS d   1      76.848   4.616 -37.631  0.00  0.00    -0.646 OA
ATOM     17  O   HCS d   1      77.129   6.690 -38.414  0.00  0.00    -0.646 OA
ENDBRANCH   1  15
TORSDOF 5
