REMARK  26 active torsions:
REMARK  status: ('A' for Active; 'I' for Inactive)
REMARK    1  A    between atoms: C2_4  and  C1_1 
REMARK    2  A    between atoms: C2_4  and  O2_16 
REMARK    3  A    between atoms: O4_7  and  C4_6 
REMARK    4  A    between atoms: C2_23  and  O4_7 
REMARK    5  A    between atoms: C5_8  and  O5_9 
REMARK    6  A    between atoms: C6_10  and  C7_12 
REMARK    7  A    between atoms: C7_12  and  O7_13 
REMARK    8  A    between atoms: C7_12  and  C8_14 
REMARK    9  A    between atoms: C8_14  and  O8_15 
REMARK   10  A    between atoms: O2_16  and  C9_17 
REMARK   11  A    between atoms: C9_17  and  C10_18 
REMARK   12  A    between atoms: C2_23  and  C1_20 
REMARK   13  A    between atoms: C4_25  and  O4_26 
REMARK   14  A    between atoms: C5_27  and  O5_28 
REMARK   15  A    between atoms: C7_31  and  C6_29 
REMARK   16  A    between atoms: C7_31  and  O7_32 
REMARK   17  A    between atoms: C8_33  and  C7_31 
REMARK   18  A    between atoms: O8_34  and  C8_33 
REMARK   19  A    between atoms: C2_38  and  O8_34 
REMARK   20  A    between atoms: C1_35  and  C2_38 
REMARK   21  A    between atoms: C4_40  and  O4_41 
REMARK   22  A    between atoms: C5_42  and  O5_43 
REMARK   23  A    between atoms: C6_44  and  C7_46 
REMARK   24  A    between atoms: C7_46  and  O7_47 
REMARK   25  A    between atoms: C7_46  and  C8_48 
REMARK   26  A    between atoms: C8_48  and  O8_49 
ROOT
ATOM      1  H   KDA d   1      -5.627  39.597 -19.496  0.00  0.00     0.045 H 
ATOM      2  H   KDA d   1      -6.147  40.975 -18.468  0.00  0.00     0.045 H 
ATOM      3  H   KDA d   1      -4.700  40.230 -16.653  0.00  0.00     0.087 H 
ATOM      4  H   KDA d   1      -3.361  38.230 -16.748  0.00  0.00     0.091 H 
ATOM      5  H   KDA d   1      -2.367  40.373 -17.426  0.00  0.00     0.091 H 
ATOM      6  C2  KDO d   1      -4.140  41.148 -19.254  0.00  0.00     0.259 C 
ATOM      7  C3  KDO d   1      -5.311  40.304 -18.715  0.00  0.00     0.024 C 
ATOM      8  C4  KDO d   1      -4.923  39.510 -17.454  0.00  0.00     0.068 C 
ATOM      9  C5  KDO d   1      -3.679  38.678 -17.701  0.00  0.00     0.088 C 
ATOM     10  C6  KDO d   1      -2.555  39.624 -18.209  0.00  0.00     0.096 C 
ATOM     11  O6  KDO d   1      -2.949  40.278 -19.426  0.00  0.00    -0.336 OA
ENDROOT
BRANCH   6  12
ATOM     12  O4  KDA d   1      -3.893  42.238 -18.357  0.00  0.00    -0.338 OA
BRANCH  12  13
ATOM     13  C4  KDA d   1      -2.931  43.249 -18.816  0.00  0.00     0.075 C 
ATOM     14  C3  KDA d   1      -1.720  43.299 -17.907  0.00  0.00     0.024 C 
ATOM     15  C2  KDA d   1      -0.763  44.440 -18.322  0.00  0.00     0.259 C 
ATOM     16  H   KDA d   1      -2.054  43.468 -16.872  0.00  0.00     0.045 H 
ATOM     17  H   KDA d   1      -1.185  42.340 -17.968  0.00  0.00     0.045 H 
ATOM     18  O6  KDA d   1      -1.463  45.677 -18.460  0.00  0.00    -0.336 OA
ATOM     19  C6  KDA d   1      -2.578  45.646 -19.362  0.00  0.00     0.096 C 
ATOM     20  C5  KDA d   1      -3.587  44.603 -18.825  0.00  0.00     0.088 C 
ATOM     21  H   KDA d   1      -2.245  45.362 -20.371  0.00  0.00     0.091 H 
ATOM     22  H   KDA d   1      -4.488  44.579 -19.456  0.00  0.00     0.091 H 
ATOM     23  H   KDA d   1      -2.605  42.995 -19.835  0.00  0.00     0.087 H 
BRANCH  15  24
ATOM     24  C1  KDA d   1       0.316  44.590 -17.211  0.00  0.00     0.239 C 
ATOM     25  O1A KDA d   1       0.227  45.579 -16.439  0.00  0.00    -0.644 OA
ATOM     26  O1B KDA d   1       1.168  43.674 -17.119  0.00  0.00    -0.644 OA
ENDBRANCH  15  24
BRANCH  15  27
ATOM     27  O2  KDA d   1      -0.182  44.084 -19.578  0.00  0.00    -0.343 OA
BRANCH  27  28
ATOM     28  C9  KDA d   1       0.674  45.069 -20.176  0.00  0.00     0.038 C 
ATOM     29  H   KDA d   1       0.443  46.060 -19.759  0.00  0.00     0.080 H 
ATOM     30  H   KDA d   1       0.516  45.083 -21.265  0.00  0.00     0.080 H 
BRANCH  28  31
ATOM     31  C10 KDA d   1       2.124  44.713 -19.874  0.00  0.00    -0.089 C 
ATOM     32  C11 KDA d   1       2.943  45.647 -19.402  0.00  0.00    -0.123 C 
ATOM     33  H   KDA d   1       3.981  45.401 -19.183  0.00  0.00     0.066 H 
ATOM     34  H   KDA d   1       2.576  46.658 -19.234  0.00  0.00     0.066 H 
ATOM     35  H   KDA d   1       2.487  43.700 -20.044  0.00  0.00     0.078 H 
ENDBRANCH  28  31
ENDBRANCH  27  28
ENDBRANCH  15  27
BRANCH  19  36
ATOM     36  C7  KDA d   1      -3.218  47.045 -19.400  0.00  0.00     0.083 C 
ATOM     37  H   KDA d   1      -3.605  47.285 -18.399  0.00  0.00     0.090 H 
BRANCH  36  38
ATOM     38  O7  KDA d   1      -4.306  47.068 -20.341  0.00  0.00    -0.391 OA
ATOM     39  H   KDA d   1      -4.692  47.936 -20.355  0.00  0.00     0.210 HD
ENDBRANCH  36  38
BRANCH  36  40
ATOM     40  C8  KDA d   1      -2.183  48.095 -19.797  0.00  0.00     0.043 C 
ATOM     41  H   KDA d   1      -1.827  47.926 -20.824  0.00  0.00     0.078 H 
ATOM     42  H   KDA d   1      -1.327  48.083 -19.106  0.00  0.00     0.078 H 
BRANCH  40  43
ATOM     43  O8  KDA d   1      -2.905  49.346 -19.701  0.00  0.00    -0.398 OA
ATOM     44  H   KDA d   1      -3.646  49.329 -20.295  0.00  0.00     0.209 HD
ENDBRANCH  40  43
ENDBRANCH  36  40
ENDBRANCH  19  36
BRANCH  20  45
ATOM     45  O5  KDA d   1      -3.927  44.990 -17.494  0.00  0.00    -0.390 OA
ATOM     46  H   KDA d   1      -3.139  45.028 -16.965  0.00  0.00     0.210 HD
ENDBRANCH  20  45
ENDBRANCH  12  13
ENDBRANCH   6  12
BRANCH   6  47
ATOM     47  C1  KDO d   1      -4.559  41.705 -20.639  0.00  0.00     0.239 C 
ATOM     48  O1A KDO d   1      -5.446  42.594 -20.678  0.00  0.00    -0.644 OA
ATOM     49  O1B KDO d   1      -3.936  41.248 -21.615  0.00  0.00    -0.644 OA
ENDBRANCH   6  47
BRANCH   8  50
ATOM     50  O4  KDO d   1      -6.011  38.672 -17.013  0.00  0.00    -0.393 OA
ATOM     51  H   KDA d   1      -6.765  39.214 -16.812  0.00  0.00     0.210 HD
ENDBRANCH   8  50
BRANCH  10  52
ATOM     52  C7  KDO d   1      -1.233  38.927 -18.561  0.00  0.00     0.083 C 
ATOM     53  H   KDA d   1      -0.458  39.705 -18.629  0.00  0.00     0.090 H 
BRANCH  52  54
ATOM     54  O7  KDO d   1      -1.333  38.281 -19.823  0.00  0.00    -0.391 OA
ATOM     55  H   KDA d   1      -1.531  38.925 -20.492  0.00  0.00     0.210 HD
ENDBRANCH  52  54
BRANCH  52  56
ATOM     56  C8  KDO d   1      -0.786  37.922 -17.531  0.00  0.00     0.050 C 
ATOM     57  H   KDA d   1      -1.308  36.966 -17.685  0.00  0.00     0.078 H 
ATOM     58  H   KDA d   1      -0.999  38.298 -16.519  0.00  0.00     0.078 H 
BRANCH  56  59
ATOM     59  O8  KDO d   1       0.616  37.746 -17.701  0.00  0.00    -0.344 OA
BRANCH  59  60
ATOM     60  C2  KDO d   1       1.092  36.448 -17.310  0.00  0.00     0.258 C 
ATOM     61  C3  KDO d   1       2.601  36.442 -17.401  0.00  0.00     0.024 C 
ATOM     62  C4  KDO d   1       3.043  36.570 -18.844  0.00  0.00     0.068 C 
ATOM     63  H   KDA d   1       2.986  35.498 -16.986  0.00  0.00     0.045 H 
ATOM     64  H   KDA d   1       3.002  37.287 -16.823  0.00  0.00     0.045 H 
ATOM     65  C5  KDO d   1       2.428  35.445 -19.680  0.00  0.00     0.088 C 
ATOM     66  H   KDA d   1       2.715  37.541 -19.244  0.00  0.00     0.087 H 
ATOM     67  C6  KDO d   1       0.926  35.524 -19.557  0.00  0.00     0.096 C 
ATOM     68  H   KDA d   1       2.704  35.579 -20.736  0.00  0.00     0.091 H 
ATOM     69  O6  KDO d   1       0.544  35.412 -18.156  0.00  0.00    -0.336 OA
ATOM     70  H   KDA d   1       0.632  36.526 -19.902  0.00  0.00     0.091 H 
BRANCH  60  71
ATOM     71  C1  KDO d   1       0.729  36.200 -15.828  0.00  0.00     0.239 C 
ATOM     72  O1A KDO d   1       1.045  37.099 -15.003  0.00  0.00    -0.644 OA
ATOM     73  O1B KDO d   1       0.201  35.097 -15.537  0.00  0.00    -0.644 OA
ENDBRANCH  60  71
BRANCH  62  74
ATOM     74  O4  KDO d   1       4.524  36.488 -18.896  0.00  0.00    -0.393 OA
ATOM     75  H   KDA d   1       4.813  36.567 -19.798  0.00  0.00     0.210 HD
ENDBRANCH  62  74
BRANCH  65  76
ATOM     76  O5  KDO d   1       2.948  34.204 -19.227  0.00  0.00    -0.390 OA
ATOM     77  H   KDA d   1       3.893  34.202 -19.328  0.00  0.00     0.210 HD
ENDBRANCH  65  76
BRANCH  67  78
ATOM     78  C7  KDO d   1       0.133  34.500 -20.438  0.00  0.00     0.083 C 
ATOM     79  H   KDA d   1      -0.173  33.642 -19.822  0.00  0.00     0.090 H 
BRANCH  78  80
ATOM     80  O7  KDO d   1       0.870  34.073 -21.566  0.00  0.00    -0.391 OA
ATOM     81  H   KDA d   1       1.672  33.653 -21.278  0.00  0.00     0.210 HD
ENDBRANCH  78  80
BRANCH  78  82
ATOM     82  C8  KDO d   1      -1.057  35.193 -21.054  0.00  0.00     0.043 C 
ATOM     83  H   KDA d   1      -1.438  34.619 -21.912  0.00  0.00     0.078 H 
ATOM     84  H   KDA d   1      -0.786  36.207 -21.383  0.00  0.00     0.078 H 
BRANCH  82  85
ATOM     85  O8  KDO d   1      -1.990  35.244 -20.058  0.00  0.00    -0.398 OA
ATOM     86  H   KDA d   1      -2.203  34.361 -19.780  0.00  0.00     0.209 HD
ENDBRANCH  82  85
ENDBRANCH  78  82
ENDBRANCH  67  78
ENDBRANCH  59  60
ENDBRANCH  56  59
ENDBRANCH  52  56
ENDBRANCH  10  52
BRANCH   9  87
ATOM     87  O5  KDO d   1      -3.920  37.619 -18.631  0.00  0.00    -0.390 OA
ATOM     88  H   KDA d   1      -4.202  37.986 -19.461  0.00  0.00     0.210 HD
ENDBRANCH   9  87
TORSDOF 26
