REMARK  7 active torsions:
REMARK  status: ('A' for Active; 'I' for Inactive)
REMARK    1  A    between atoms: C18_9  and  C4'_1 
REMARK    2  A    between atoms: C8_4  and  C9_13 
REMARK    3  A    between atoms: C9_13  and  C19_14 
REMARK    4  A    between atoms: C10_15  and  C11_16 
REMARK    5  A    between atoms: C12_17  and  C13_18 
REMARK    6  A    between atoms: C13_18  and  C20_19 
REMARK    7  A    between atoms: C14_20  and  C15_21 
ROOT
ATOM      1  C1' 29V d   1      64.242  49.321  32.702  0.00  0.00    -0.054 C 
ATOM      2  C2' 29V d   1      64.047  48.856  31.252  0.00  0.00    -0.040 C 
ATOM      3  C8  29V d   1      65.407  47.709  29.424  0.00  0.00    -0.070 C 
ATOM      4  C5  29V d   1      65.908  47.465  33.063  0.00  0.00    -0.044 A 
ATOM      5  C6  29V d   1      66.138  47.328  31.710  0.00  0.00    -0.023 A 
ATOM      6  C4  29V d   1      66.863  46.960  33.959  0.00  0.00    -0.076 A 
ATOM      7  C2  29V d   1      68.237  46.228  32.122  0.00  0.00    -0.082 A 
ATOM      8  C18 29V d   1      64.650  48.159  33.607  0.00  0.00    -0.031 C 
ATOM      9  C3  29V d   1      68.013  46.350  33.485  0.00  0.00    -0.082 A 
ATOM     10  C1  29V d   1      67.286  46.712  31.220  0.00  0.00    -0.072 A 
ATOM     11  C7  29V d   1      65.196  47.966  30.784  0.00  0.00    -0.047 C 
ATOM     12  H   29V d   1      63.298  49.749  33.071  0.00  0.00     0.034 H 
ATOM     13  H   29V d   1      65.028  50.090  32.729  0.00  0.00     0.034 H 
ATOM     14  H   29V d   1      63.992  49.739  30.599  0.00  0.00     0.040 H 
ATOM     15  H   29V d   1      63.107  48.289  31.183  0.00  0.00     0.040 H 
ATOM     16  H   29V d   1      66.234  47.053  29.157  0.00  0.00     0.085 H 
ATOM     17  H   29V d   1      66.700  47.048  35.027  0.00  0.00     0.084 H 
ATOM     18  H   29V d   1      69.145  45.760  31.758  0.00  0.00     0.083 H 
ATOM     19  H   29V d   1      63.829  47.427  33.633  0.00  0.00     0.046 H 
ATOM     20  H   29V d   1      68.744  45.965  34.186  0.00  0.00     0.083 H 
ATOM     21  H   29V d   1      67.440  46.609  30.152  0.00  0.00     0.084 H 
ENDROOT
BRANCH   3  22
ATOM     22  C9  29V d   1      64.597  48.258  28.332  0.00  0.00    -0.061 C 
ATOM     23  C10 29V d   1      63.235  48.126  28.182  0.00  0.00    -0.077 C 
ATOM     24  H   29V d   1      62.809  48.610  27.304  0.00  0.00     0.084 H 
BRANCH  22  25
ATOM     25  C19 29V d   1      65.347  49.057  27.250  0.00  0.00    -0.051 C 
ATOM     26  H   29V d   1      64.631  49.412  26.494  0.00  0.00     0.033 H 
ATOM     27  H   29V d   1      66.097  48.410  26.770  0.00  0.00     0.033 H 
ATOM     28  H   29V d   1      65.849  49.919  27.713  0.00  0.00     0.033 H 
ENDBRANCH  22  25
BRANCH  23  29
ATOM     29  C11 29V d   1      62.273  47.418  29.049  0.00  0.00    -0.082 C 
ATOM     30  C12 29V d   1      60.934  47.498  28.637  0.00  0.00    -0.077 C 
ATOM     31  H   29V d   1      60.725  48.051  27.723  0.00  0.00     0.084 H 
ATOM     32  H   29V d   1      62.579  46.874  29.942  0.00  0.00     0.083 H 
BRANCH  30  33
ATOM     33  C13 29V d   1      59.814  46.909  29.324  0.00  0.00    -0.056 C 
ATOM     34  C14 29V d   1      58.514  47.260  28.895  0.00  0.00    -0.004 C 
ATOM     35  H   29V d   1      58.404  47.953  28.062  0.00  0.00     0.094 H 
BRANCH  33  36
ATOM     36  C20 29V d   1      60.014  45.903  30.459  0.00  0.00    -0.051 C 
ATOM     37  H   29V d   1      59.034  45.581  30.841  0.00  0.00     0.033 H 
ATOM     38  H   29V d   1      60.587  46.375  31.271  0.00  0.00     0.033 H 
ATOM     39  H   29V d   1      60.565  45.029  30.081  0.00  0.00     0.033 H 
ENDBRANCH  33  36
BRANCH  34  40
ATOM     40  C15 29V d   1      57.319  46.728  29.527  0.00  0.00     0.199 C 
ATOM     41  O1  29V d   1      56.274  47.434  29.481  0.00  0.00    -0.644 OA
ATOM     42  O2  29V d   1      57.355  45.601  30.051  0.00  0.00    -0.644 OA
ENDBRANCH  34  40
ENDBRANCH  30  33
ENDBRANCH  23  29
ENDBRANCH   3  22
BRANCH   8  43
ATOM     43  C4' 29V d   1      64.898  48.670  35.027  0.00  0.00    -0.069 C 
ATOM     44  H   29V d   1      63.990  49.164  35.403  0.00  0.00     0.028 H 
ATOM     45  H   29V d   1      65.730  49.390  35.018  0.00  0.00     0.028 H 
ATOM     46  H   29V d   1      65.153  47.824  35.682  0.00  0.00     0.028 H 
ENDBRANCH   8  43
TORSDOF 7
