REMARK  7 active torsions:
REMARK  status: ('A' for Active; 'I' for Inactive)
REMARK    1  A    between atoms: C18_3  and  C4'_4 
REMARK    2  A    between atoms: C8_12  and  C9_13 
REMARK    3  A    between atoms: C9_13  and  C19_14 
REMARK    4  A    between atoms: C10_15  and  C11_16 
REMARK    5  A    between atoms: C12_17  and  C13_18 
REMARK    6  A    between atoms: C13_18  and  C20_19 
REMARK    7  A    between atoms: C14_20  and  C15_21 
ROOT
ATOM      1  C2' R4M d   1      63.587  48.485  31.406  0.00  0.00    -0.040 C 
ATOM      2  C1' R4M d   1      63.468  48.289  32.922  0.00  0.00    -0.054 C 
ATOM      3  C18 R4M d   1      64.833  48.180  33.603  0.00  0.00    -0.031 C 
ATOM      4  C5  R4M d   1      65.707  47.124  32.938  0.00  0.00    -0.044 A 
ATOM      5  C4  R4M d   1      66.743  46.542  33.664  0.00  0.00    -0.076 A 
ATOM      6  C3  R4M d   1      67.571  45.592  33.091  0.00  0.00    -0.082 A 
ATOM      7  C2  R4M d   1      67.378  45.207  31.768  0.00  0.00    -0.082 A 
ATOM      8  C1  R4M d   1      66.358  45.790  31.029  0.00  0.00    -0.072 A 
ATOM      9  C6  R4M d   1      65.541  46.741  31.624  0.00  0.00    -0.023 A 
ATOM     10  C7  R4M d   1      64.596  47.508  30.804  0.00  0.00    -0.047 C 
ATOM     11  C8  R4M d   1      64.671  47.295  29.433  0.00  0.00    -0.070 C 
ATOM     12  H   R4M d   1      63.917  49.514  31.201  0.00  0.00     0.040 H 
ATOM     13  H   R4M d   1      62.603  48.316  30.943  0.00  0.00     0.040 H 
ATOM     14  H   R4M d   1      62.901  47.366  33.116  0.00  0.00     0.034 H 
ATOM     15  H   R4M d   1      62.928  49.147  33.348  0.00  0.00     0.034 H 
ATOM     16  H   R4M d   1      65.339  49.151  33.496  0.00  0.00     0.046 H 
ATOM     17  H   R4M d   1      66.904  46.838  34.694  0.00  0.00     0.084 H 
ATOM     18  H   R4M d   1      68.370  45.148  33.673  0.00  0.00     0.083 H 
ATOM     19  H   R4M d   1      68.019  44.458  31.318  0.00  0.00     0.083 H 
ATOM     20  H   R4M d   1      66.201  45.505  29.995  0.00  0.00     0.084 H 
ATOM     21  H   R4M d   1      65.401  46.569  29.078  0.00  0.00     0.085 H 
ENDROOT
BRANCH  11  22
ATOM     22  C9  R4M d   1      63.840  47.975  28.420  0.00  0.00    -0.061 C 
ATOM     23  C10 R4M d   1      62.463  47.847  28.309  0.00  0.00    -0.077 C 
ATOM     24  H   R4M d   1      61.988  48.420  27.514  0.00  0.00     0.084 H 
BRANCH  22  25
ATOM     25  C19 R4M d   1      64.550  48.913  27.434  0.00  0.00    -0.051 C 
ATOM     26  H   R4M d   1      63.812  49.346  26.743  0.00  0.00     0.033 H 
ATOM     27  H   R4M d   1      65.299  48.345  26.862  0.00  0.00     0.033 H 
ATOM     28  H   R4M d   1      65.049  49.720  27.990  0.00  0.00     0.033 H 
ENDBRANCH  22  25
BRANCH  23  29
ATOM     29  C11 R4M d   1      61.572  47.027  29.141  0.00  0.00    -0.082 C 
ATOM     30  C12 R4M d   1      60.224  47.175  28.813  0.00  0.00    -0.077 C 
ATOM     31  H   R4M d   1      59.981  47.847  27.992  0.00  0.00     0.084 H 
ATOM     32  H   R4M d   1      61.928  46.370  29.933  0.00  0.00     0.083 H 
BRANCH  30  33
ATOM     33  C13 R4M d   1      59.111  46.502  29.481  0.00  0.00    -0.056 C 
ATOM     34  C14 R4M d   1      57.831  46.946  29.154  0.00  0.00    -0.004 C 
ATOM     35  H   R4M d   1      57.717  47.750  28.428  0.00  0.00     0.094 H 
BRANCH  33  36
ATOM     36  C20 R4M d   1      59.366  45.365  30.484  0.00  0.00    -0.051 C 
ATOM     37  H   R4M d   1      58.405  44.995  30.871  0.00  0.00     0.033 H 
ATOM     38  H   R4M d   1      59.977  45.742  31.318  0.00  0.00     0.033 H 
ATOM     39  H   R4M d   1      59.898  44.544  29.981  0.00  0.00     0.033 H 
ENDBRANCH  33  36
BRANCH  34  40
ATOM     40  C15 R4M d   1      56.631  46.356  29.764  0.00  0.00     0.199 C 
ATOM     41  O1  R4M d   1      55.614  47.075  29.807  0.00  0.00    -0.644 OA
ATOM     42  O2  R4M d   1      56.689  45.189  30.222  0.00  0.00    -0.644 OA
ENDBRANCH  34  40
ENDBRANCH  30  33
ENDBRANCH  23  29
ENDBRANCH  11  22
BRANCH   3  43
ATOM     43  C4' R4M d   1      64.677  47.894  35.096  0.00  0.00    -0.069 C 
ATOM     44  H   R4M d   1      65.671  47.821  35.561  0.00  0.00     0.028 H 
ATOM     45  H   R4M d   1      64.137  46.946  35.233  0.00  0.00     0.028 H 
ATOM     46  H   R4M d   1      64.111  48.710  35.569  0.00  0.00     0.028 H 
ENDBRANCH   3  43
TORSDOF 7
