REMARK  26 active torsions:
REMARK  status: ('A' for Active; 'I' for Inactive)
REMARK    1  A    between atoms: N_1  and  C6_4 
REMARK       I    between atoms: C4_40  and  N_1 
REMARK    2  A    between atoms: C14_9  and  O_3 
REMARK    3  A    between atoms: O_3  and  C15_10 
REMARK    4  A    between atoms: C6_4  and  C8_5 
REMARK    5  A    between atoms: C6_4  and  C7_21 
REMARK    6  A    between atoms: C8_5  and  C9_6 
REMARK    7  A    between atoms: C15_10  and  P_11 
REMARK    8  A    between atoms: P_11  and  O3_12 
REMARK    9  A    between atoms: P_11  and  O1_16 
REMARK   10  A    between atoms: O3_12  and  C18_13 
REMARK   11  A    between atoms: C18_13  and  C19_14 
REMARK   12  A    between atoms: O1_16  and  C16_17 
REMARK   13  A    between atoms: C16_17  and  C17_18 
REMARK   14  A    between atoms: C7_21  and  O8_22 
REMARK   15  A    between atoms: C7_21  and  C20_23 
REMARK   16  A    between atoms: C20_23  and  N1_24 
REMARK   17  A    between atoms: N1_24  and  C21_25 
REMARK   18  A    between atoms: N1_24  and  S_29 
REMARK   19  A    between atoms: C21_25  and  C22_26 
REMARK   20  A    between atoms: C22_26  and  C30_27 
REMARK   21  A    between atoms: C22_26  and  C29_28 
REMARK   22  A    between atoms: S_29  and  C23_32 
REMARK   23  A    between atoms: C26_35  and  O5_36 
REMARK   24  A    between atoms: O5_36  and  C31_37 
REMARK   25  A    between atoms: O6_42  and  C4_40 
REMARK   26  A    between atoms: O6_42  and  C5_43 
ROOT
ATOM      1  C6  KGQ d   1     -11.946  52.551   3.802  0.00  0.00     0.044 C 
ATOM      2  H   KGQ d   1     -12.959  52.832   4.127  0.00  0.00     0.077 H 
ENDROOT
BRANCH   1   3
ATOM      3  N   KGQ d   1     -11.856  52.458   2.311  0.00  0.00    -0.329 N 
ATOM      4  C4  KGQ d   1     -12.753  52.858   1.386  0.00  0.00     0.361 C 
ATOM      5  O7  KGQ d   1     -13.875  53.364   1.596  0.00  0.00    -0.238 OA
ATOM      6  H   KGQ d   1     -11.019  52.044   1.952  0.00  0.00     0.165 HD
BRANCH   4   7
ATOM      7  O6  KGQ d   1     -12.354  52.603   0.088  0.00  0.00    -0.296 OA
BRANCH   7   8
ATOM      8  C5  KGQ d   1     -13.438  52.453  -0.874  0.00  0.00     0.078 C 
ATOM      9  C   KGQ d   1     -13.677  51.018  -1.399  0.00  0.00     0.023 C 
ATOM     10  C32 KGQ d   1     -12.593  50.815  -2.457  0.00  0.00     0.137 C 
ATOM     11  C1  KGQ d   1     -13.450  49.902  -0.365  0.00  0.00    -0.035 C 
ATOM     12  H   KGQ d   1     -14.689  50.935  -1.823  0.00  0.00     0.051 H 
ATOM     13  O4  KGQ d   1     -12.045  52.152  -2.724  0.00  0.00    -0.358 OA
ATOM     14  O11 KGQ d   1     -11.590  49.951  -1.831  0.00  0.00    -0.361 OA
ATOM     15  H   KGQ d   1     -12.989  50.359  -3.376  0.00  0.00     0.129 H 
ATOM     16  C3  KGQ d   1     -12.947  53.128  -2.136  0.00  0.00     0.048 C 
ATOM     17  H   KGQ d   1     -12.414  54.061  -1.899  0.00  0.00     0.078 H 
ATOM     18  H   KGQ d   1     -13.785  53.346  -2.815  0.00  0.00     0.078 H 
ATOM     19  C2  KGQ d   1     -12.275  49.099  -0.882  0.00  0.00     0.023 C 
ATOM     20  H   KGQ d   1     -11.602  48.832  -0.054  0.00  0.00     0.074 H 
ATOM     21  H   KGQ d   1     -12.628  48.183  -1.378  0.00  0.00     0.074 H 
ATOM     22  H   KGQ d   1     -14.344  49.266  -0.284  0.00  0.00     0.037 H 
ATOM     23  H   KGQ d   1     -13.217  50.333   0.620  0.00  0.00     0.037 H 
ATOM     24  H   KGQ d   1     -14.365  52.891  -0.475  0.00  0.00     0.088 H 
ENDBRANCH   7   8
ENDBRANCH   4   7
ENDBRANCH   1   3
BRANCH   1  25
ATOM     25  C8  KGQ d   1     -11.540  51.158   4.360  0.00  0.00    -0.020 C 
ATOM     26  H   KGQ d   1     -11.656  51.159   5.454  0.00  0.00     0.043 H 
ATOM     27  H   KGQ d   1     -10.489  50.958   4.103  0.00  0.00     0.043 H 
BRANCH  25  28
ATOM     28  C9  KGQ d   1     -12.427  50.051   3.758  0.00  0.00    -0.056 A 
ATOM     29  C11 KGQ d   1     -11.869  48.990   3.026  0.00  0.00    -0.074 A 
ATOM     30  C13 KGQ d   1     -12.679  48.005   2.467  0.00  0.00    -0.050 A 
ATOM     31  H   KGQ d   1     -10.794  48.937   2.895  0.00  0.00     0.084 H 
ATOM     32  C14 KGQ d   1     -14.062  48.088   2.633  0.00  0.00     0.069 A 
ATOM     33  H   KGQ d   1     -12.241  47.184   1.910  0.00  0.00     0.087 H 
ATOM     34  C12 KGQ d   1     -14.623  49.148   3.346  0.00  0.00    -0.050 A 
ATOM     35  C10 KGQ d   1     -13.808  50.121   3.922  0.00  0.00    -0.074 A 
ATOM     36  H   KGQ d   1     -15.700  49.215   3.453  0.00  0.00     0.087 H 
ATOM     37  H   KGQ d   1     -14.248  50.929   4.495  0.00  0.00     0.084 H 
BRANCH  32  38
ATOM     38  O   KGQ d   1     -14.872  47.144   2.077  0.00  0.00    -0.340 OA
BRANCH  38  39
ATOM     39  C15 KGQ d   1     -15.851  47.839   1.298  0.00  0.00     0.120 C 
ATOM     40  H   KGQ d   1     -15.359  48.609   0.686  0.00  0.00     0.093 H 
ATOM     41  H   KGQ d   1     -16.585  48.315   1.965  0.00  0.00     0.093 H 
BRANCH  39  42
ATOM     42  P   KGQ d   1     -16.700  46.630   0.205  0.00  0.00     0.352 P 
ATOM     43  O2  KGQ d   1     -16.217  47.106  -1.270  0.00  0.00    -0.256 OA
BRANCH  42  44
ATOM     44  O3  KGQ d   1     -18.327  46.804   0.277  0.00  0.00    -0.313 OA
BRANCH  44  45
ATOM     45  C18 KGQ d   1     -19.218  46.068   1.140  0.00  0.00     0.025 C 
ATOM     46  H   KGQ d   1     -18.628  45.450   1.833  0.00  0.00     0.074 H 
ATOM     47  H   KGQ d   1     -19.865  45.420   0.530  0.00  0.00     0.074 H 
BRANCH  45  48
ATOM     48  C19 KGQ d   1     -20.097  47.059   1.953  0.00  0.00    -0.056 C 
ATOM     49  H   KGQ d   1     -20.775  46.494   2.610  0.00  0.00     0.030 H 
ATOM     50  H   KGQ d   1     -20.688  47.678   1.261  0.00  0.00     0.030 H 
ATOM     51  H   KGQ d   1     -19.451  47.707   2.563  0.00  0.00     0.030 H 
ENDBRANCH  45  48
ENDBRANCH  44  45
ENDBRANCH  42  44
BRANCH  42  52
ATOM     52  O1  KGQ d   1     -16.084  45.144   0.405  0.00  0.00    -0.313 OA
BRANCH  52  53
ATOM     53  C16 KGQ d   1     -14.843  44.811  -0.245  0.00  0.00     0.025 C 
ATOM     54  H   KGQ d   1     -14.023  45.368   0.231  0.00  0.00     0.074 H 
ATOM     55  H   KGQ d   1     -14.904  45.086  -1.308  0.00  0.00     0.074 H 
BRANCH  53  56
ATOM     56  C17 KGQ d   1     -14.570  43.307  -0.126  0.00  0.00    -0.056 C 
ATOM     57  H   KGQ d   1     -13.620  43.066  -0.626  0.00  0.00     0.030 H 
ATOM     58  H   KGQ d   1     -15.388  42.747  -0.603  0.00  0.00     0.030 H 
ATOM     59  H   KGQ d   1     -14.506  43.029   0.936  0.00  0.00     0.030 H 
ENDBRANCH  53  56
ENDBRANCH  52  53
ENDBRANCH  42  52
ENDBRANCH  39  42
ENDBRANCH  38  39
ENDBRANCH  32  38
ENDBRANCH  25  28
ENDBRANCH   1  25
BRANCH   1  60
ATOM     60  C7  KGQ d   1     -10.919  53.574   4.266  0.00  0.00     0.067 C 
ATOM     61  H   KGQ d   1     -10.900  54.413   3.555  0.00  0.00     0.088 H 
BRANCH  60  62
ATOM     62  O8  KGQ d   1      -9.688  52.854   4.221  0.00  0.00    -0.392 OA
ATOM     63  H   KGQ d   1      -8.979  53.423   4.499  0.00  0.00     0.210 HD
ENDBRANCH  60  62
BRANCH  60  64
ATOM     64  C20 KGQ d   1     -11.129  54.159   5.694  0.00  0.00     0.019 C 
ATOM     65  H   KGQ d   1     -10.259  54.788   5.935  0.00  0.00     0.061 H 
ATOM     66  H   KGQ d   1     -11.181  53.318   6.401  0.00  0.00     0.061 H 
BRANCH  64  67
ATOM     67  N1  KGQ d   1     -12.362  54.988   5.871  0.00  0.00    -0.204 NA
BRANCH  67  68
ATOM     68  C21 KGQ d   1     -12.877  55.439   4.551  0.00  0.00    -0.004 C 
ATOM     69  H   KGQ d   1     -13.955  55.226   4.504  0.00  0.00     0.058 H 
ATOM     70  H   KGQ d   1     -12.357  54.877   3.761  0.00  0.00     0.058 H 
BRANCH  68  71
ATOM     71  C22 KGQ d   1     -12.664  56.936   4.305  0.00  0.00    -0.049 C 
ATOM     72  H   KGQ d   1     -13.147  57.203   3.354  0.00  0.00     0.040 H 
BRANCH  71  73
ATOM     73  C30 KGQ d   1     -11.173  57.240   4.188  0.00  0.00    -0.072 C 
ATOM     74  H   KGQ d   1     -11.031  58.316   4.012  0.00  0.00     0.028 H 
ATOM     75  H   KGQ d   1     -10.748  56.672   3.348  0.00  0.00     0.028 H 
ATOM     76  H   KGQ d   1     -10.666  56.951   5.120  0.00  0.00     0.028 H 
ENDBRANCH  71  73
BRANCH  71  77
ATOM     77  C29 KGQ d   1     -13.308  57.764   5.416  0.00  0.00    -0.072 C 
ATOM     78  H   KGQ d   1     -14.380  57.525   5.477  0.00  0.00     0.028 H 
ATOM     79  H   KGQ d   1     -13.183  58.834   5.195  0.00  0.00     0.028 H 
ATOM     80  H   KGQ d   1     -12.825  57.529   6.376  0.00  0.00     0.028 H 
ENDBRANCH  71  77
ENDBRANCH  68  71
ENDBRANCH  67  68
BRANCH  67  81
ATOM     81  S   KGQ d   1     -13.538  54.111   6.767  0.00  0.00     0.243 S 
ATOM     82  O10 KGQ d   1     -14.937  54.479   6.346  0.00  0.00    -0.206 OA
ATOM     83  O9  KGQ d   1     -13.350  52.605   6.682  0.00  0.00    -0.206 OA
BRANCH  81  84
ATOM     84  C23 KGQ d   1     -13.309  54.419   8.519  0.00  0.00     0.074 A 
ATOM     85  C28 KGQ d   1     -12.394  53.636   9.243  0.00  0.00    -0.058 A 
ATOM     86  C27 KGQ d   1     -12.199  53.887  10.600  0.00  0.00    -0.049 A 
ATOM     87  H   KGQ d   1     -11.844  52.843   8.750  0.00  0.00     0.086 H 
ATOM     88  C26 KGQ d   1     -12.928  54.905  11.237  0.00  0.00     0.068 A 
ATOM     89  H   KGQ d   1     -11.485  53.297  11.164  0.00  0.00     0.087 H 
ATOM     90  C25 KGQ d   1     -13.834  55.667  10.519  0.00  0.00    -0.049 A 
ATOM     91  C24 KGQ d   1     -14.027  55.429   9.158  0.00  0.00    -0.058 A 
ATOM     92  H   KGQ d   1     -14.395  56.450  11.016  0.00  0.00     0.087 H 
ATOM     93  H   KGQ d   1     -14.735  56.029   8.598  0.00  0.00     0.086 H 
BRANCH  88  94
ATOM     94  O5  KGQ d   1     -12.768  55.163  12.572  0.00  0.00    -0.356 OA
BRANCH  94  95
ATOM     95  C31 KGQ d   1     -12.976  56.549  12.854  0.00  0.00     0.010 C 
ATOM     96  H   KGQ d   1     -12.842  56.728  13.931  0.00  0.00     0.066 H 
ATOM     97  H   KGQ d   1     -13.997  56.834  12.559  0.00  0.00     0.066 H 
ATOM     98  H   KGQ d   1     -12.250  57.151  12.289  0.00  0.00     0.066 H 
ENDBRANCH  94  95
ENDBRANCH  88  94
ENDBRANCH  81  84
ENDBRANCH  67  81
ENDBRANCH  64  67
ENDBRANCH  60  64
ENDBRANCH   1  60
TORSDOF 26
