REMARK  26 active torsions:
REMARK  status: ('A' for Active; 'I' for Inactive)
REMARK    1  A    between atoms: N_1  and  C6_4 
REMARK       I    between atoms: C4_40  and  N_1 
REMARK    2  A    between atoms: C14_9  and  O_3 
REMARK    3  A    between atoms: O_3  and  C15_10 
REMARK    4  A    between atoms: C6_4  and  C8_5 
REMARK    5  A    between atoms: C6_4  and  C7_21 
REMARK    6  A    between atoms: C8_5  and  C9_6 
REMARK    7  A    between atoms: C15_10  and  P_11 
REMARK    8  A    between atoms: P_11  and  O3_12 
REMARK    9  A    between atoms: P_11  and  O1_16 
REMARK   10  A    between atoms: O3_12  and  C18_13 
REMARK   11  A    between atoms: C18_13  and  C19_14 
REMARK   12  A    between atoms: O1_16  and  C16_17 
REMARK   13  A    between atoms: C16_17  and  C17_18 
REMARK   14  A    between atoms: C7_21  and  O8_22 
REMARK   15  A    between atoms: C7_21  and  C20_23 
REMARK   16  A    between atoms: C20_23  and  N1_24 
REMARK   17  A    between atoms: N1_24  and  C21_25 
REMARK   18  A    between atoms: N1_24  and  S_29 
REMARK   19  A    between atoms: C21_25  and  C22_26 
REMARK   20  A    between atoms: C22_26  and  C30_27 
REMARK   21  A    between atoms: C22_26  and  C29_28 
REMARK   22  A    between atoms: S_29  and  C23_32 
REMARK   23  A    between atoms: C26_35  and  O5_36 
REMARK   24  A    between atoms: O5_36  and  C31_37 
REMARK   25  A    between atoms: O6_42  and  C4_40 
REMARK   26  A    between atoms: O6_42  and  C5_43 
ROOT
ATOM      1  C6  KGQ d   1     -11.898  52.667   3.596  0.00  0.00     0.044 C 
ATOM      2  H   KGQ d   1     -12.941  52.934   3.824  0.00  0.00     0.077 H 
ENDROOT
BRANCH   1   3
ATOM      3  N   KGQ d   1     -11.713  52.548   2.153  0.00  0.00    -0.329 N 
ATOM      4  C4  KGQ d   1     -12.653  52.853   1.267  0.00  0.00     0.361 C 
ATOM      5  O7  KGQ d   1     -13.769  53.271   1.573  0.00  0.00    -0.238 OA
ATOM      6  H   KGQ d   1     -10.832  52.219   1.814  0.00  0.00     0.165 HD
BRANCH   4   7
ATOM      7  O6  KGQ d   1     -12.296  52.711  -0.036  0.00  0.00    -0.296 OA
BRANCH   7   8
ATOM      8  C5  KGQ d   1     -13.347  52.740  -1.002  0.00  0.00     0.078 C 
ATOM      9  C   KGQ d   1     -13.642  51.328  -1.499  0.00  0.00     0.023 C 
ATOM     10  C32 KGQ d   1     -12.592  51.077  -2.600  0.00  0.00     0.137 C 
ATOM     11  C1  KGQ d   1     -13.335  50.278  -0.429  0.00  0.00    -0.035 C 
ATOM     12  H   KGQ d   1     -14.675  51.239  -1.865  0.00  0.00     0.051 H 
ATOM     13  O4  KGQ d   1     -11.902  52.346  -2.811  0.00  0.00    -0.358 OA
ATOM     14  O11 KGQ d   1     -11.660  50.107  -2.038  0.00  0.00    -0.361 OA
ATOM     15  H   KGQ d   1     -13.047  50.708  -3.531  0.00  0.00     0.129 H 
ATOM     16  C3  KGQ d   1     -12.723  53.377  -2.213  0.00  0.00     0.048 C 
ATOM     17  H   KGQ d   1     -12.105  54.238  -1.919  0.00  0.00     0.078 H 
ATOM     18  H   KGQ d   1     -13.500  53.707  -2.918  0.00  0.00     0.078 H 
ATOM     19  C2  KGQ d   1     -12.454  49.276  -1.161  0.00  0.00     0.023 C 
ATOM     20  H   KGQ d   1     -11.815  48.725  -0.456  0.00  0.00     0.074 H 
ATOM     21  H   KGQ d   1     -13.063  48.564  -1.738  0.00  0.00     0.074 H 
ATOM     22  H   KGQ d   1     -14.258  49.801  -0.069  0.00  0.00     0.037 H 
ATOM     23  H   KGQ d   1     -12.799  50.727   0.420  0.00  0.00     0.037 H 
ATOM     24  H   KGQ d   1     -14.243  53.260  -0.632  0.00  0.00     0.088 H 
ENDBRANCH   7   8
ENDBRANCH   4   7
ENDBRANCH   1   3
BRANCH   1  25
ATOM     25  C8  KGQ d   1     -11.578  51.302   4.225  0.00  0.00    -0.020 C 
ATOM     26  H   KGQ d   1     -11.813  51.341   5.299  0.00  0.00     0.043 H 
ATOM     27  H   KGQ d   1     -10.507  51.091   4.092  0.00  0.00     0.043 H 
BRANCH  25  28
ATOM     28  C9  KGQ d   1     -12.392  50.171   3.578  0.00  0.00    -0.056 A 
ATOM     29  C11 KGQ d   1     -13.775  50.159   3.667  0.00  0.00    -0.074 A 
ATOM     30  C13 KGQ d   1     -14.498  49.122   3.076  0.00  0.00    -0.050 A 
ATOM     31  H   KGQ d   1     -14.293  50.952   4.194  0.00  0.00     0.084 H 
ATOM     32  C14 KGQ d   1     -13.853  48.092   2.401  0.00  0.00     0.069 A 
ATOM     33  H   KGQ d   1     -15.580  49.120   3.144  0.00  0.00     0.087 H 
ATOM     34  C12 KGQ d   1     -12.466  48.104   2.323  0.00  0.00    -0.050 A 
ATOM     35  C10 KGQ d   1     -11.745  49.137   2.908  0.00  0.00    -0.074 A 
ATOM     36  H   KGQ d   1     -11.946  47.306   1.805  0.00  0.00     0.087 H 
ATOM     37  H   KGQ d   1     -10.663  49.138   2.842  0.00  0.00     0.084 H 
BRANCH  32  38
ATOM     38  O   KGQ d   1     -14.573  47.095   1.815  0.00  0.00    -0.340 OA
BRANCH  38  39
ATOM     39  C15 KGQ d   1     -15.490  47.675   0.855  0.00  0.00     0.120 C 
ATOM     40  H   KGQ d   1     -14.919  48.350   0.200  0.00  0.00     0.093 H 
ATOM     41  H   KGQ d   1     -16.245  48.253   1.408  0.00  0.00     0.093 H 
BRANCH  39  42
ATOM     42  P   KGQ d   1     -16.372  46.448  -0.211  0.00  0.00     0.352 P 
ATOM     43  O2  KGQ d   1     -15.851  46.633  -1.754  0.00  0.00    -0.256 OA
BRANCH  42  44
ATOM     44  O3  KGQ d   1     -17.958  46.805  -0.249  0.00  0.00    -0.313 OA
BRANCH  44  45
ATOM     45  C18 KGQ d   1     -18.874  46.272   0.679  0.00  0.00     0.025 C 
ATOM     46  H   KGQ d   1     -18.421  46.258   1.681  0.00  0.00     0.074 H 
ATOM     47  H   KGQ d   1     -19.146  45.247   0.385  0.00  0.00     0.074 H 
BRANCH  45  48
ATOM     48  C19 KGQ d   1     -20.122  47.154   0.689  0.00  0.00    -0.056 C 
ATOM     49  H   KGQ d   1     -20.849  46.752   1.409  0.00  0.00     0.030 H 
ATOM     50  H   KGQ d   1     -20.570  47.167  -0.316  0.00  0.00     0.030 H 
ATOM     51  H   KGQ d   1     -19.845  48.178   0.980  0.00  0.00     0.030 H 
ENDBRANCH  45  48
ENDBRANCH  44  45
ENDBRANCH  42  44
BRANCH  42  52
ATOM     52  O1  KGQ d   1     -16.011  44.961   0.242  0.00  0.00    -0.313 OA
BRANCH  52  53
ATOM     53  C16 KGQ d   1     -14.742  44.431  -0.165  0.00  0.00     0.025 C 
ATOM     54  H   KGQ d   1     -13.940  44.988   0.341  0.00  0.00     0.074 H 
ATOM     55  H   KGQ d   1     -14.636  44.544  -1.254  0.00  0.00     0.074 H 
BRANCH  53  56
ATOM     56  C17 KGQ d   1     -14.630  42.950   0.198  0.00  0.00    -0.056 C 
ATOM     57  H   KGQ d   1     -13.650  42.567  -0.123  0.00  0.00     0.030 H 
ATOM     58  H   KGQ d   1     -15.428  42.387  -0.308  0.00  0.00     0.030 H 
ATOM     59  H   KGQ d   1     -14.731  42.831   1.287  0.00  0.00     0.030 H 
ENDBRANCH  53  56
ENDBRANCH  52  53
ENDBRANCH  42  52
ENDBRANCH  39  42
ENDBRANCH  38  39
ENDBRANCH  32  38
ENDBRANCH  25  28
ENDBRANCH   1  25
BRANCH   1  60
ATOM     60  C7  KGQ d   1     -10.973  53.783   4.093  0.00  0.00     0.067 C 
ATOM     61  H   KGQ d   1     -11.170  54.692   3.506  0.00  0.00     0.088 H 
BRANCH  60  62
ATOM     62  O8  KGQ d   1      -9.622  53.368   3.899  0.00  0.00    -0.392 OA
ATOM     63  H   KGQ d   1      -9.463  52.571   4.390  0.00  0.00     0.210 HD
ENDBRANCH  60  62
BRANCH  60  64
ATOM     64  C20 KGQ d   1     -11.164  54.104   5.571  0.00  0.00     0.019 C 
ATOM     65  H   KGQ d   1     -10.263  54.618   5.938  0.00  0.00     0.061 H 
ATOM     66  H   KGQ d   1     -11.298  53.161   6.121  0.00  0.00     0.061 H 
BRANCH  64  67
ATOM     67  N1  KGQ d   1     -12.333  54.966   5.825  0.00  0.00    -0.204 NA
BRANCH  67  68
ATOM     68  C21 KGQ d   1     -12.979  55.403   4.581  0.00  0.00    -0.004 C 
ATOM     69  H   KGQ d   1     -14.069  55.297   4.680  0.00  0.00     0.058 H 
ATOM     70  H   KGQ d   1     -12.624  54.779   3.748  0.00  0.00     0.058 H 
BRANCH  68  71
ATOM     71  C22 KGQ d   1     -12.638  56.856   4.302  0.00  0.00    -0.049 C 
ATOM     72  H   KGQ d   1     -13.018  57.122   3.304  0.00  0.00     0.040 H 
BRANCH  71  73
ATOM     73  C30 KGQ d   1     -13.268  57.788   5.323  0.00  0.00    -0.072 C 
ATOM     74  H   KGQ d   1     -12.998  58.828   5.086  0.00  0.00     0.028 H 
ATOM     75  H   KGQ d   1     -12.900  57.533   6.328  0.00  0.00     0.028 H 
ATOM     76  H   KGQ d   1     -14.362  57.678   5.294  0.00  0.00     0.028 H 
ENDBRANCH  71  73
BRANCH  71  77
ATOM     77  C29 KGQ d   1     -11.131  57.023   4.320  0.00  0.00    -0.072 C 
ATOM     78  H   KGQ d   1     -10.678  56.347   3.580  0.00  0.00     0.028 H 
ATOM     79  H   KGQ d   1     -10.747  56.780   5.322  0.00  0.00     0.028 H 
ATOM     80  H   KGQ d   1     -10.874  58.063   4.072  0.00  0.00     0.028 H 
ENDBRANCH  71  77
ENDBRANCH  68  71
ENDBRANCH  67  68
BRANCH  67  81
ATOM     81  S   KGQ d   1     -13.403  54.119   6.710  0.00  0.00     0.243 S 
ATOM     82  O10 KGQ d   1     -13.239  52.651   6.436  0.00  0.00    -0.206 OA
ATOM     83  O9  KGQ d   1     -14.802  54.548   6.350  0.00  0.00    -0.206 OA
BRANCH  81  84
ATOM     84  C23 KGQ d   1     -13.110  54.466   8.418  0.00  0.00     0.074 A 
ATOM     85  C28 KGQ d   1     -13.692  55.588   9.009  0.00  0.00    -0.058 A 
ATOM     86  C27 KGQ d   1     -13.457  55.888  10.346  0.00  0.00    -0.049 A 
ATOM     87  H   KGQ d   1     -14.334  56.233   8.419  0.00  0.00     0.086 H 
ATOM     88  C26 KGQ d   1     -12.631  55.058  11.098  0.00  0.00     0.068 A 
ATOM     89  H   KGQ d   1     -13.913  56.761  10.799  0.00  0.00     0.087 H 
ATOM     90  C25 KGQ d   1     -12.045  53.940  10.514  0.00  0.00    -0.049 A 
ATOM     91  C24 KGQ d   1     -12.285  53.643   9.178  0.00  0.00    -0.058 A 
ATOM     92  H   KGQ d   1     -11.399  53.299  11.103  0.00  0.00     0.087 H 
ATOM     93  H   KGQ d   1     -11.829  52.769   8.727  0.00  0.00     0.086 H 
BRANCH  88  94
ATOM     94  O5  KGQ d   1     -12.392  55.332  12.405  0.00  0.00    -0.356 OA
BRANCH  94  95
ATOM     95  C31 KGQ d   1     -13.480  56.031  13.012  0.00  0.00     0.010 C 
ATOM     96  H   KGQ d   1     -13.244  56.232  14.067  0.00  0.00     0.066 H 
ATOM     97  H   KGQ d   1     -14.390  55.417  12.950  0.00  0.00     0.066 H 
ATOM     98  H   KGQ d   1     -13.644  56.983  12.486  0.00  0.00     0.066 H 
ENDBRANCH  94  95
ENDBRANCH  88  94
ENDBRANCH  81  84
ENDBRANCH  67  81
ENDBRANCH  64  67
ENDBRANCH  60  64
ENDBRANCH   1  60
TORSDOF 26
