REMARK  13 active torsions:
REMARK  status: ('A' for Active; 'I' for Inactive)
REMARK    1  A    between atoms: C8_8  and  C29_29 
REMARK    2  A    between atoms: N10_10  and  C12_12 
REMARK    3  A    between atoms: C12_12  and  C13_13 
REMARK    4  A    between atoms: C13_13  and  C14_14 
REMARK    5  A    between atoms: C13_13  and  O15_15 
REMARK    6  A    between atoms: C14_14  and  C16_16 
REMARK    7  A    between atoms: C14_14  and  N17_17 
REMARK    8  A    between atoms: C16_16  and  C21_21 
REMARK       I    between atoms: N17_17  and  C18_18 
REMARK    9  A    between atoms: C18_18  and  O19_19 
REMARK   10  A    between atoms: O19_19  and  C34_34 
REMARK   11  A    between atoms: C29_29  and  C30_30 
REMARK   12  A    between atoms: C29_29  and  C31_31 
REMARK   13  A    between atoms: C29_29  and  C32_32 
ROOT
ATOM      1  C12 526 d   1      12.885  24.884   5.496  0.00  0.00     0.031 C 
ATOM      2  H   526 d   1      13.140  25.331   6.468  0.00  0.00     0.069 H 
ATOM      3  H   526 d   1      12.771  25.679   4.745  0.00  0.00     0.069 H 
ENDROOT
BRANCH   1   4
ATOM      4  N10 526 d   1      11.621  24.146   5.618  0.00  0.00    -0.304 N 
ATOM      5  C9  526 d   1      10.928  23.684   4.401  0.00  0.00     0.010 C 
ATOM      6  C8  526 d   1       9.477  24.144   4.299  0.00  0.00    -0.028 C 
ATOM      7  H   526 d   1      11.474  24.066   3.526  0.00  0.00     0.066 H 
ATOM      8  H   526 d   1      10.943  22.584   4.391  0.00  0.00     0.066 H 
ATOM      9  C7  526 d   1       9.310  25.623   4.647  0.00  0.00    -0.034 C 
ATOM     10  H   526 d   1       8.900  23.573   5.041  0.00  0.00     0.044 H 
ATOM     11  C4  526 d   1       9.224  26.083   6.073  0.00  0.00    -0.032 A 
ATOM     12  H   526 d   1      10.169  26.146   4.202  0.00  0.00     0.040 H 
ATOM     13  H   526 d   1       8.384  25.956   4.156  0.00  0.00     0.040 H 
ATOM     14  C3  526 d   1       8.449  27.210   6.279  0.00  0.00    -0.038 A 
ATOM     15  C5  526 d   1       9.861  25.550   7.187  0.00  0.00     0.086 A 
ATOM     16  C2  526 d   1       8.316  27.764   7.535  0.00  0.00     0.117 A 
ATOM     17  H   526 d   1       7.937  27.666   5.439  0.00  0.00     0.089 H 
ATOM     18  C1  526 d   1       8.959  27.233   8.630  0.00  0.00    -0.044 A 
ATOM     19  F33 526 d   1       7.566  28.867   7.695  0.00  0.00    -0.206 F 
ATOM     20  C6  526 d   1       9.731  26.101   8.449  0.00  0.00    -0.057 A 
ATOM     21  H   526 d   1       8.863  27.690   9.608  0.00  0.00     0.088 H 
ATOM     22  H   526 d   1      10.234  25.646   9.295  0.00  0.00     0.086 H 
ATOM     23  S11 526 d   1      10.880  24.101   7.128  0.00  0.00     0.261 S 
ATOM     24  O27 526 d   1      11.884  24.222   8.145  0.00  0.00    -0.200 OA
ATOM     25  O28 526 d   1       9.963  22.974   7.125  0.00  0.00    -0.200 OA
BRANCH   6  26
ATOM     26  C29 526 d   1       8.901  23.808   2.915  0.00  0.00    -0.046 C 
BRANCH  26  27
ATOM     27  C30 526 d   1       7.399  23.955   2.906  0.00  0.00    -0.069 C 
ATOM     28  H   526 d   1       7.013  23.709   1.906  0.00  0.00     0.028 H 
ATOM     29  H   526 d   1       7.130  24.991   3.158  0.00  0.00     0.028 H 
ATOM     30  H   526 d   1       6.959  23.271   3.647  0.00  0.00     0.028 H 
ENDBRANCH  26  27
BRANCH  26  31
ATOM     31  C31 526 d   1       9.153  22.358   2.528  0.00  0.00    -0.069 C 
ATOM     32  H   526 d   1      10.236  22.166   2.511  0.00  0.00     0.028 H 
ATOM     33  H   526 d   1       8.731  22.166   1.530  0.00  0.00     0.028 H 
ATOM     34  H   526 d   1       8.674  21.694   3.263  0.00  0.00     0.028 H 
ENDBRANCH  26  31
BRANCH  26  35
ATOM     35  C32 526 d   1       9.461  24.681   1.809  0.00  0.00    -0.069 C 
ATOM     36  H   526 d   1       9.295  25.739   2.058  0.00  0.00     0.028 H 
ATOM     37  H   526 d   1       8.954  24.443   0.862  0.00  0.00     0.028 H 
ATOM     38  H   526 d   1      10.540  24.494   1.705  0.00  0.00     0.028 H 
ENDBRANCH  26  35
ENDBRANCH   6  26
ENDBRANCH   1   4
BRANCH   1  39
ATOM     39  C13 526 d   1      13.995  23.947   5.069  0.00  0.00     0.071 C 
ATOM     40  H   526 d   1      13.635  23.414   4.177  0.00  0.00     0.088 H 
BRANCH  39  41
ATOM     41  C14 526 d   1      14.406  22.875   6.074  0.00  0.00     0.044 C 
ATOM     42  H   526 d   1      13.496  22.352   6.403  0.00  0.00     0.077 H 
BRANCH  41  43
ATOM     43  C16 526 d   1      15.118  23.378   7.329  0.00  0.00    -0.020 C 
ATOM     44  H   526 d   1      14.477  24.110   7.841  0.00  0.00     0.043 H 
ATOM     45  H   526 d   1      16.065  23.858   7.041  0.00  0.00     0.043 H 
BRANCH  43  46
ATOM     46  C21 526 d   1      15.403  22.240   8.254  0.00  0.00    -0.056 A 
ATOM     47  C22 526 d   1      14.396  21.724   9.053  0.00  0.00    -0.077 A 
ATOM     48  C23 526 d   1      14.662  20.650   9.882  0.00  0.00    -0.082 A 
ATOM     49  H   526 d   1      13.404  22.160   9.028  0.00  0.00     0.084 H 
ATOM     50  C24 526 d   1      15.926  20.097   9.907  0.00  0.00    -0.083 A 
ATOM     51  H   526 d   1      13.879  20.243  10.511  0.00  0.00     0.083 H 
ATOM     52  C25 526 d   1      16.936  20.610   9.113  0.00  0.00    -0.082 A 
ATOM     53  H   526 d   1      16.130  19.252  10.555  0.00  0.00     0.083 H 
ATOM     54  C26 526 d   1      16.672  21.688   8.290  0.00  0.00    -0.077 A 
ATOM     55  H   526 d   1      17.926  20.170   9.136  0.00  0.00     0.083 H 
ATOM     56  H   526 d   1      17.460  22.102   7.671  0.00  0.00     0.084 H 
ENDBRANCH  43  46
ENDBRANCH  41  43
BRANCH  41  57
ATOM     57  N17 526 d   1      15.253  21.945   5.360  0.00  0.00    -0.329 N 
ATOM     58  C18 526 d   1      14.829  20.693   4.970  0.00  0.00     0.361 C 
ATOM     59  O20 526 d   1      13.704  20.224   5.098  0.00  0.00    -0.238 OA
ATOM     60  H   526 d   1      16.188  22.223   5.139  0.00  0.00     0.165 HD
BRANCH  58  61
ATOM     61  O19 526 d   1      15.915  20.053   4.432  0.00  0.00    -0.296 OA
BRANCH  61  62
ATOM     62  C34 526 d   1      15.657  18.788   3.826  0.00  0.00     0.072 C 
ATOM     63  C35 526 d   1      17.017  18.199   3.522  0.00  0.00     0.044 C 
ATOM     64  O37 526 d   1      17.308  18.627   2.194  0.00  0.00    -0.389 OA
ATOM     65  H   526 d   1      16.985  17.101   3.577  0.00  0.00     0.078 H 
ATOM     66  H   526 d   1      17.771  18.580   4.226  0.00  0.00     0.078 H 
ATOM     67  C38 526 d   1      16.077  18.567   1.503  0.00  0.00     0.022 C 
ATOM     68  C36 526 d   1      15.024  19.019   2.477  0.00  0.00    -0.018 C 
ATOM     69  H   526 d   1      16.098  19.234   0.628  0.00  0.00     0.074 H 
ATOM     70  H   526 d   1      15.875  17.537   1.174  0.00  0.00     0.074 H 
ATOM     71  H   526 d   1      14.788  20.084   2.332  0.00  0.00     0.040 H 
ATOM     72  H   526 d   1      14.107  18.422   2.367  0.00  0.00     0.040 H 
ATOM     73  H   526 d   1      15.043  18.139   4.468  0.00  0.00     0.087 H 
ENDBRANCH  61  62
ENDBRANCH  58  61
ENDBRANCH  41  57
ENDBRANCH  39  41
BRANCH  39  74
ATOM     74  O15 526 d   1      15.122  24.727   4.690  0.00  0.00    -0.392 OA
ATOM     75  H   526 d   1      15.488  25.147   5.459  0.00  0.00     0.210 HD
ENDBRANCH  39  74
ENDBRANCH   1  39
TORSDOF 13
