REMARK  13 active torsions:
REMARK  status: ('A' for Active; 'I' for Inactive)
REMARK    1  A    between atoms: C8_8  and  C29_29 
REMARK    2  A    between atoms: N10_10  and  C12_12 
REMARK    3  A    between atoms: C12_12  and  C13_13 
REMARK    4  A    between atoms: C13_13  and  C14_14 
REMARK    5  A    between atoms: C13_13  and  O15_15 
REMARK    6  A    between atoms: C14_14  and  C16_16 
REMARK    7  A    between atoms: C14_14  and  N17_17 
REMARK    8  A    between atoms: C16_16  and  C21_21 
REMARK       I    between atoms: N17_17  and  C18_18 
REMARK    9  A    between atoms: C18_18  and  O19_19 
REMARK   10  A    between atoms: O19_19  and  C34_34 
REMARK   11  A    between atoms: C29_29  and  C30_30 
REMARK   12  A    between atoms: C29_29  and  C31_31 
REMARK   13  A    between atoms: C29_29  and  C32_32 
ROOT
ATOM      1  C12 525 d   1      12.861  24.831   5.604  0.00  0.00     0.031 C 
ATOM      2  H   525 d   1      13.153  25.293   6.559  0.00  0.00     0.069 H 
ATOM      3  H   525 d   1      12.704  25.616   4.850  0.00  0.00     0.069 H 
ENDROOT
BRANCH   1   4
ATOM      4  N10 525 d   1      11.606  24.095   5.795  0.00  0.00    -0.304 N 
ATOM      5  C9  525 d   1      10.806  23.697   4.620  0.00  0.00     0.010 C 
ATOM      6  C8  525 d   1       9.787  24.758   4.208  0.00  0.00    -0.028 C 
ATOM      7  H   525 d   1      11.488  23.518   3.775  0.00  0.00     0.066 H 
ATOM      8  H   525 d   1      10.268  22.768   4.860  0.00  0.00     0.066 H 
ATOM      9  C7  525 d   1       8.702  24.925   5.269  0.00  0.00    -0.034 C 
ATOM     10  H   525 d   1      10.318  25.719   4.140  0.00  0.00     0.044 H 
ATOM     11  C4  525 d   1       9.037  25.841   6.412  0.00  0.00    -0.032 A 
ATOM     12  H   525 d   1       7.803  25.320   4.773  0.00  0.00     0.040 H 
ATOM     13  H   525 d   1       8.483  23.931   5.687  0.00  0.00     0.040 H 
ATOM     14  C3  525 d   1       8.316  27.018   6.529  0.00  0.00    -0.038 A 
ATOM     15  C5  525 d   1       9.980  25.550   7.392  0.00  0.00     0.086 A 
ATOM     16  C2  525 d   1       8.560  27.884   7.576  0.00  0.00     0.117 A 
ATOM     17  H   525 d   1       7.556  27.260   5.795  0.00  0.00     0.089 H 
ATOM     18  C1  525 d   1       9.507  27.587   8.536  0.00  0.00    -0.044 A 
ATOM     19  F33 525 d   1       7.881  29.041   7.675  0.00  0.00    -0.206 F 
ATOM     20  C6  525 d   1      10.218  26.407   8.447  0.00  0.00    -0.057 A 
ATOM     21  H   525 d   1       9.691  28.275   9.353  0.00  0.00     0.088 H 
ATOM     22  H   525 d   1      10.957  26.156   9.199  0.00  0.00     0.086 H 
ATOM     23  S11 525 d   1      10.925  24.039   7.345  0.00  0.00     0.261 S 
ATOM     24  O27 525 d   1      11.958  24.067   8.353  0.00  0.00    -0.200 OA
ATOM     25  O28 525 d   1       9.928  22.984   7.341  0.00  0.00    -0.200 OA
BRANCH   6  26
ATOM     26  C29 525 d   1       9.233  24.449   2.811  0.00  0.00    -0.046 C 
BRANCH  26  27
ATOM     27  C30 525 d   1       8.463  25.610   2.229  0.00  0.00    -0.069 C 
ATOM     28  H   525 d   1       8.089  25.338   1.231  0.00  0.00     0.028 H 
ATOM     29  H   525 d   1       9.125  26.485   2.147  0.00  0.00     0.028 H 
ATOM     30  H   525 d   1       7.614  25.853   2.885  0.00  0.00     0.028 H 
ENDBRANCH  26  27
BRANCH  26  31
ATOM     31  C31 525 d   1       8.305  23.245   2.800  0.00  0.00    -0.069 C 
ATOM     32  H   525 d   1       8.830  22.373   3.218  0.00  0.00     0.028 H 
ATOM     33  H   525 d   1       7.999  23.027   1.766  0.00  0.00     0.028 H 
ATOM     34  H   525 d   1       7.415  23.463   3.408  0.00  0.00     0.028 H 
ENDBRANCH  26  31
BRANCH  26  35
ATOM     35  C32 525 d   1      10.375  24.195   1.850  0.00  0.00    -0.069 C 
ATOM     36  H   525 d   1      11.053  25.061   1.850  0.00  0.00     0.028 H 
ATOM     37  H   525 d   1       9.975  24.043   0.837  0.00  0.00     0.028 H 
ATOM     38  H   525 d   1      10.927  23.297   2.165  0.00  0.00     0.028 H 
ENDBRANCH  26  35
ENDBRANCH   6  26
ENDBRANCH   1   4
BRANCH   1  39
ATOM     39  C13 525 d   1      13.975  23.917   5.138  0.00  0.00     0.071 C 
ATOM     40  H   525 d   1      13.608  23.394   4.243  0.00  0.00     0.088 H 
BRANCH  39  41
ATOM     41  C14 525 d   1      14.429  22.841   6.114  0.00  0.00     0.044 C 
ATOM     42  H   525 d   1      13.536  22.283   6.432  0.00  0.00     0.077 H 
BRANCH  41  43
ATOM     43  C16 525 d   1      15.106  23.354   7.381  0.00  0.00    -0.020 C 
ATOM     44  H   525 d   1      14.425  24.047   7.897  0.00  0.00     0.043 H 
ATOM     45  H   525 d   1      16.029  23.884   7.106  0.00  0.00     0.043 H 
BRANCH  43  46
ATOM     46  C21 525 d   1      15.446  22.229   8.301  0.00  0.00    -0.056 A 
ATOM     47  C22 525 d   1      16.736  21.733   8.329  0.00  0.00    -0.077 A 
ATOM     48  C23 525 d   1      17.056  20.679   9.164  0.00  0.00    -0.082 A 
ATOM     49  H   525 d   1      17.498  22.172   7.695  0.00  0.00     0.084 H 
ATOM     50  C24 525 d   1      16.083  20.113   9.963  0.00  0.00    -0.083 A 
ATOM     51  H   525 d   1      18.070  20.297   9.191  0.00  0.00     0.083 H 
ATOM     52  C25 525 d   1      14.795  20.610   9.940  0.00  0.00    -0.082 A 
ATOM     53  H   525 d   1      16.330  19.278  10.609  0.00  0.00     0.083 H 
ATOM     54  C26 525 d   1      14.475  21.671   9.114  0.00  0.00    -0.077 A 
ATOM     55  H   525 d   1      14.033  20.167  10.571  0.00  0.00     0.083 H 
ATOM     56  H   525 d   1      13.465  22.065   9.103  0.00  0.00     0.084 H 
ENDBRANCH  43  46
ENDBRANCH  41  43
BRANCH  41  57
ATOM     57  N17 525 d   1      15.298  21.941   5.394  0.00  0.00    -0.329 N 
ATOM     58  C18 525 d   1      14.886  20.687   5.005  0.00  0.00     0.361 C 
ATOM     59  O20 525 d   1      13.763  20.224   5.185  0.00  0.00    -0.238 OA
ATOM     60  H   525 d   1      16.227  22.238   5.171  0.00  0.00     0.165 HD
BRANCH  58  61
ATOM     61  O19 525 d   1      15.954  20.043   4.426  0.00  0.00    -0.296 OA
BRANCH  61  62
ATOM     62  C34 525 d   1      15.685  18.783   3.816  0.00  0.00     0.072 C 
ATOM     63  C35 525 d   1      17.047  18.192   3.521  0.00  0.00     0.044 C 
ATOM     64  O37 525 d   1      17.379  18.652   2.216  0.00  0.00    -0.389 OA
ATOM     65  H   525 d   1      17.004  17.093   3.543  0.00  0.00     0.078 H 
ATOM     66  H   525 d   1      17.787  18.545   4.254  0.00  0.00     0.078 H 
ATOM     67  C38 525 d   1      16.160  18.653   1.490  0.00  0.00     0.022 C 
ATOM     68  C36 525 d   1      15.074  19.036   2.459  0.00  0.00    -0.018 C 
ATOM     69  H   525 d   1      16.209  19.384   0.669  0.00  0.00     0.074 H 
ATOM     70  H   525 d   1      15.964  17.652   1.079  0.00  0.00     0.074 H 
ATOM     71  H   525 d   1      14.804  20.096   2.344  0.00  0.00     0.040 H 
ATOM     72  H   525 d   1      14.181  18.412   2.311  0.00  0.00     0.040 H 
ATOM     73  H   525 d   1      15.058  18.135   4.447  0.00  0.00     0.087 H 
ENDBRANCH  61  62
ENDBRANCH  58  61
ENDBRANCH  41  57
ENDBRANCH  39  41
BRANCH  39  74
ATOM     74  O15 525 d   1      15.069  24.723   4.762  0.00  0.00    -0.392 OA
ATOM     75  H   525 d   1      15.436  25.137   5.534  0.00  0.00     0.210 HD
ENDBRANCH  39  74
ENDBRANCH   1  39
TORSDOF 13
