REMARK  14 active torsions:
REMARK  status: ('A' for Active; 'I' for Inactive)
REMARK    1  A    between atoms: N10_10  and  C13_13 
REMARK    2  A    between atoms: C13_13  and  C17_17 
REMARK    3  A    between atoms: C15_15  and  C16_16 
REMARK    4  A    between atoms: C16_16  and  C34_34 
REMARK    5  A    between atoms: C16_16  and  C35_35 
REMARK    6  A    between atoms: C17_17  and  C18_18 
REMARK    7  A    between atoms: C17_17  and  O19_19 
REMARK    8  A    between atoms: C18_18  and  N20_20 
REMARK    9  A    between atoms: C18_18  and  C21_21 
REMARK       I    between atoms: N20_20  and  C28_28 
REMARK   10  A    between atoms: C21_21  and  C22_22 
REMARK       I    between atoms: C28_28  and  N29_29 
REMARK   11  A    between atoms: N29_29  and  C31_31 
REMARK   12  A    between atoms: C31_31  and  C32_32 
REMARK   13  A    between atoms: C31_31  and  C33_33 
REMARK   14  A    between atoms: C31_31  and  C36_36 
ROOT
ATOM      1  C17 23K d   1      13.570  23.935   4.704  0.00  0.00     0.071 C 
ATOM      2  H   23K d   1      13.640  24.097   5.790  0.00  0.00     0.088 H 
ENDROOT
BRANCH   1   3
ATOM      3  C13 23K d   1      14.546  22.817   4.392  0.00  0.00     0.031 C 
ATOM      4  H   23K d   1      14.445  22.533   3.334  0.00  0.00     0.069 H 
ATOM      5  H   23K d   1      15.571  23.169   4.581  0.00  0.00     0.069 H 
BRANCH   3   6
ATOM      6  N10 23K d   1      14.275  21.648   5.232  0.00  0.00    -0.304 N 
ATOM      7  S9  23K d   1      13.805  20.225   4.486  0.00  0.00     0.261 S 
ATOM      8  C5  23K d   1      15.311  19.501   3.886  0.00  0.00     0.086 A 
ATOM      9  O11 23K d   1      12.965  20.514   3.348  0.00  0.00    -0.200 OA
ATOM     10  O12 23K d   1      13.304  19.357   5.535  0.00  0.00    -0.200 OA
ATOM     11  C4  23K d   1      16.348  19.252   4.769  0.00  0.00    -0.032 A 
ATOM     12  C6  23K d   1      15.355  19.193   2.541  0.00  0.00    -0.057 A 
ATOM     13  C3  23K d   1      17.478  18.646   4.253  0.00  0.00    -0.038 A 
ATOM     14  C8  23K d   1      16.324  19.554   6.236  0.00  0.00    -0.034 C 
ATOM     15  C2  23K d   1      17.533  18.337   2.913  0.00  0.00     0.117 A 
ATOM     16  H   23K d   1      18.316  18.415   4.900  0.00  0.00     0.089 H 
ATOM     17  C1  23K d   1      16.492  18.595   2.050  0.00  0.00    -0.044 A 
ATOM     18  F7  23K d   1      18.633  17.745   2.437  0.00  0.00    -0.206 F 
ATOM     19  H   23K d   1      16.567  18.331   1.001  0.00  0.00     0.088 H 
ATOM     20  C15 23K d   1      16.297  21.029   6.578  0.00  0.00    -0.031 C 
ATOM     21  H   23K d   1      17.223  19.113   6.691  0.00  0.00     0.040 H 
ATOM     22  H   23K d   1      15.427  19.086   6.668  0.00  0.00     0.040 H 
ATOM     23  C14 23K d   1      14.873  21.570   6.571  0.00  0.00     0.009 C 
ATOM     24  H   23K d   1      16.918  21.592   5.866  0.00  0.00     0.043 H 
ATOM     25  H   23K d   1      14.249  20.911   7.192  0.00  0.00     0.066 H 
ATOM     26  H   23K d   1      14.884  22.581   7.005  0.00  0.00     0.066 H 
ATOM     27  H   23K d   1      14.517  19.416   1.890  0.00  0.00     0.086 H 
BRANCH  20  28
ATOM     28  C16 23K d   1      16.830  21.179   7.996  0.00  0.00    -0.056 C 
ATOM     29  H   23K d   1      16.406  20.356   8.589  0.00  0.00     0.039 H 
BRANCH  28  30
ATOM     30  C34 23K d   1      18.334  21.122   8.112  0.00  0.00    -0.073 C 
ATOM     31  H   23K d   1      18.625  21.238   9.166  0.00  0.00     0.028 H 
ATOM     32  H   23K d   1      18.779  21.933   7.517  0.00  0.00     0.028 H 
ATOM     33  H   23K d   1      18.694  20.153   7.737  0.00  0.00     0.028 H 
ENDBRANCH  28  30
BRANCH  28  34
ATOM     34  C35 23K d   1      16.426  22.482   8.618  0.00  0.00    -0.073 C 
ATOM     35  H   23K d   1      15.332  22.589   8.567  0.00  0.00     0.028 H 
ATOM     36  H   23K d   1      16.901  23.311   8.074  0.00  0.00     0.028 H 
ATOM     37  H   23K d   1      16.748  22.502   9.670  0.00  0.00     0.028 H 
ENDBRANCH  28  34
ENDBRANCH  20  28
ENDBRANCH   3   6
ENDBRANCH   1   3
BRANCH   1  38
ATOM     38  C18 23K d   1      12.078  23.678   4.425  0.00  0.00     0.044 C 
ATOM     39  H   23K d   1      11.844  22.690   4.849  0.00  0.00     0.077 H 
BRANCH  38  40
ATOM     40  N20 23K d   1      11.280  24.664   5.142  0.00  0.00    -0.336 N 
ATOM     41  C28 23K d   1      10.871  24.450   6.444  0.00  0.00     0.317 C 
ATOM     42  N29 23K d   1      10.104  25.483   6.959  0.00  0.00    -0.335 N 
ATOM     43  O30 23K d   1      11.206  23.473   7.093  0.00  0.00    -0.247 OA
ATOM     44  H   23K d   1       9.833  26.212   6.330  0.00  0.00     0.165 HD
ATOM     45  H   23K d   1      11.023  25.514   4.682  0.00  0.00     0.164 HD
BRANCH  42  46
ATOM     46  C31 23K d   1       9.665  25.592   8.330  0.00  0.00     0.023 C 
BRANCH  46  47
ATOM     47  C32 23K d   1       8.678  24.501   8.699  0.00  0.00    -0.054 C 
ATOM     48  H   23K d   1       8.372  24.623   9.748  0.00  0.00     0.030 H 
ATOM     49  H   23K d   1       9.153  23.517   8.568  0.00  0.00     0.030 H 
ATOM     50  H   23K d   1       7.794  24.571   8.049  0.00  0.00     0.030 H 
ENDBRANCH  46  47
BRANCH  46  51
ATOM     51  C33 23K d   1      10.837  25.544   9.286  0.00  0.00    -0.054 C 
ATOM     52  H   23K d   1      10.471  25.629  10.320  0.00  0.00     0.030 H 
ATOM     53  H   23K d   1      11.521  26.378   9.070  0.00  0.00     0.030 H 
ATOM     54  H   23K d   1      11.371  24.590   9.164  0.00  0.00     0.030 H 
ENDBRANCH  46  51
BRANCH  46  55
ATOM     55  C36 23K d   1       9.015  26.957   8.469  0.00  0.00    -0.054 C 
ATOM     56  H   23K d   1       8.661  27.091   9.502  0.00  0.00     0.030 H 
ATOM     57  H   23K d   1       8.163  27.030   7.777  0.00  0.00     0.030 H 
ATOM     58  H   23K d   1       9.750  27.739   8.229  0.00  0.00     0.030 H 
ENDBRANCH  46  55
ENDBRANCH  42  46
ENDBRANCH  38  40
BRANCH  38  59
ATOM     59  C21 23K d   1      11.682  23.616   2.949  0.00  0.00    -0.020 C 
ATOM     60  H   23K d   1      12.252  22.816   2.455  0.00  0.00     0.043 H 
ATOM     61  H   23K d   1      11.913  24.579   2.471  0.00  0.00     0.043 H 
BRANCH  59  62
ATOM     62  C22 23K d   1      10.222  23.337   2.810  0.00  0.00    -0.056 A 
ATOM     63  C23 23K d   1       9.763  22.047   3.002  0.00  0.00    -0.077 A 
ATOM     64  C24 23K d   1       8.413  21.779   2.920  0.00  0.00    -0.082 A 
ATOM     65  H   23K d   1      10.463  21.248   3.217  0.00  0.00     0.084 H 
ATOM     66  C25 23K d   1       7.533  22.803   2.641  0.00  0.00    -0.083 A 
ATOM     67  H   23K d   1       8.046  20.771   3.074  0.00  0.00     0.083 H 
ATOM     68  C26 23K d   1       7.989  24.083   2.431  0.00  0.00    -0.082 A 
ATOM     69  H   23K d   1       6.470  22.597   2.587  0.00  0.00     0.083 H 
ATOM     70  C27 23K d   1       9.338  24.357   2.503  0.00  0.00    -0.077 A 
ATOM     71  H   23K d   1       7.287  24.878   2.208  0.00  0.00     0.083 H 
ATOM     72  H   23K d   1       9.703  25.361   2.321  0.00  0.00     0.084 H 
ENDBRANCH  59  62
ENDBRANCH  38  59
ENDBRANCH   1  38
BRANCH   1  73
ATOM     73  O19 23K d   1      14.011  25.131   4.076  0.00  0.00    -0.392 OA
ATOM     74  H   23K d   1      13.886  25.059   3.137  0.00  0.00     0.210 HD
ENDBRANCH   1  73
TORSDOF 14
