REMARK  12 active torsions:
REMARK  status: ('A' for Active; 'I' for Inactive)
REMARK    1  A    between atoms: N10_10  and  C13_13 
REMARK    2  A    between atoms: C13_13  and  C17_17 
REMARK    3  A    between atoms: C15_15  and  C16_16 
REMARK    4  A    between atoms: C16_16  and  C36_36 
REMARK    5  A    between atoms: C16_16  and  C37_37 
REMARK    6  A    between atoms: C17_17  and  C18_18 
REMARK    7  A    between atoms: C17_17  and  O19_19 
REMARK    8  A    between atoms: C18_18  and  N20_20 
REMARK    9  A    between atoms: C18_18  and  C21_21 
REMARK       I    between atoms: N20_20  and  C28_28 
REMARK   10  A    between atoms: C21_21  and  C22_22 
REMARK   11  A    between atoms: C28_28  and  O29_29 
REMARK   12  A    between atoms: O29_29  and  C31_31 
ROOT
ATOM      1  C17 23L d   1      13.881  23.757   5.102  0.00  0.00     0.071 C 
ATOM      2  H   23L d   1      13.548  23.250   4.184  0.00  0.00     0.088 H 
ENDROOT
BRANCH   1   3
ATOM      3  C13 23L d   1      12.725  24.630   5.554  0.00  0.00     0.031 C 
ATOM      4  H   23L d   1      12.971  25.089   6.523  0.00  0.00     0.069 H 
ATOM      5  H   23L d   1      12.550  25.419   4.808  0.00  0.00     0.069 H 
BRANCH   3   6
ATOM      6  N10 23L d   1      11.511  23.815   5.695  0.00  0.00    -0.304 N 
ATOM      7  S9  23L d   1      10.783  23.773   7.205  0.00  0.00     0.261 S 
ATOM      8  C5  23L d   1       9.860  25.280   7.335  0.00  0.00     0.086 A 
ATOM      9  O11 23L d   1      11.816  23.747   8.204  0.00  0.00    -0.200 OA
ATOM     10  O12 23L d   1       9.838  22.676   7.168  0.00  0.00    -0.200 OA
ATOM     11  C4  23L d   1       8.899  25.592   6.393  0.00  0.00    -0.032 A 
ATOM     12  C6  23L d   1      10.123  26.076   8.430  0.00  0.00    -0.057 A 
ATOM     13  C3  23L d   1       8.187  26.758   6.604  0.00  0.00    -0.038 A 
ATOM     14  C8  23L d   1       8.568  24.733   5.202  0.00  0.00    -0.034 C 
ATOM     15  C2  23L d   1       8.473  27.579   7.674  0.00  0.00     0.117 A 
ATOM     16  H   23L d   1       7.393  27.031   5.919  0.00  0.00     0.089 H 
ATOM     17  C1  23L d   1       9.436  27.254   8.598  0.00  0.00    -0.044 A 
ATOM     18  F7  23L d   1       7.803  28.726   7.844  0.00  0.00    -0.206 F 
ATOM     19  H   23L d   1       9.648  27.908   9.436  0.00  0.00     0.088 H 
ATOM     20  C15 23L d   1       9.671  24.626   4.165  0.00  0.00    -0.031 C 
ATOM     21  H   23L d   1       7.678  25.156   4.712  0.00  0.00     0.040 H 
ATOM     22  H   23L d   1       8.340  23.720   5.564  0.00  0.00     0.040 H 
ATOM     23  C14 23L d   1      10.659  23.527   4.528  0.00  0.00     0.009 C 
ATOM     24  H   23L d   1      10.193  25.593   4.105  0.00  0.00     0.043 H 
ATOM     25  H   23L d   1      10.088  22.611   4.740  0.00  0.00     0.066 H 
ATOM     26  H   23L d   1      11.314  23.358   3.661  0.00  0.00     0.066 H 
ATOM     27  H   23L d   1      10.869  25.773   9.156  0.00  0.00     0.086 H 
BRANCH  20  28
ATOM     28  C16 23L d   1       9.122  24.252   2.795  0.00  0.00    -0.056 C 
ATOM     29  H   23L d   1       8.658  23.259   2.884  0.00  0.00     0.039 H 
BRANCH  28  30
ATOM     30  C36 23L d   1       8.103  25.189   2.191  0.00  0.00    -0.073 C 
ATOM     31  H   23L d   1       7.790  24.806   1.208  0.00  0.00     0.028 H 
ATOM     32  H   23L d   1       8.549  26.187   2.071  0.00  0.00     0.028 H 
ATOM     33  H   23L d   1       7.228  25.256   2.854  0.00  0.00     0.028 H 
ENDBRANCH  28  30
BRANCH  28  34
ATOM     34  C37 23L d   1      10.266  24.189   1.822  0.00  0.00    -0.073 C 
ATOM     35  H   23L d   1      11.043  23.516   2.213  0.00  0.00     0.028 H 
ATOM     36  H   23L d   1      10.688  25.196   1.686  0.00  0.00     0.028 H 
ATOM     37  H   23L d   1       9.905  23.809   0.855  0.00  0.00     0.028 H 
ENDBRANCH  28  34
ENDBRANCH  20  28
ENDBRANCH   3   6
ENDBRANCH   1   3
BRANCH   1  38
ATOM     38  C18 23L d   1      14.323  22.662   6.065  0.00  0.00     0.044 C 
ATOM     39  H   23L d   1      13.421  22.123   6.389  0.00  0.00     0.077 H 
BRANCH  38  40
ATOM     40  N20 23L d   1      15.164  21.742   5.326  0.00  0.00    -0.329 N 
ATOM     41  C28 23L d   1      14.741  20.507   4.899  0.00  0.00     0.361 C 
ATOM     42  O30 23L d   1      13.628  20.023   5.055  0.00  0.00    -0.238 OA
ATOM     43  H   23L d   1      16.101  22.021   5.116  0.00  0.00     0.165 HD
BRANCH  41  44
ATOM     44  O29 23L d   1      15.801  19.910   4.264  0.00  0.00    -0.296 OA
BRANCH  44  45
ATOM     45  C31 23L d   1      15.536  18.653   3.646  0.00  0.00     0.072 C 
ATOM     46  C32 23L d   1      16.890  18.050   3.394  0.00  0.00     0.044 C 
ATOM     47  O33 23L d   1      17.247  18.476   2.087  0.00  0.00    -0.389 OA
ATOM     48  H   23L d   1      16.839  16.952   3.442  0.00  0.00     0.078 H 
ATOM     49  H   23L d   1      17.619  18.416   4.132  0.00  0.00     0.078 H 
ATOM     50  C34 23L d   1      16.060  18.431   1.319  0.00  0.00     0.022 C 
ATOM     51  C35 23L d   1      14.982  18.900   2.263  0.00  0.00    -0.018 C 
ATOM     52  H   23L d   1      15.857  17.406   0.976  0.00  0.00     0.074 H 
ATOM     53  H   23L d   1      16.134  19.101   0.450  0.00  0.00     0.074 H 
ATOM     54  H   23L d   1      14.777  19.971   2.114  0.00  0.00     0.040 H 
ATOM     55  H   23L d   1      14.057  18.325   2.109  0.00  0.00     0.040 H 
ATOM     56  H   23L d   1      14.880  18.015   4.257  0.00  0.00     0.087 H 
ENDBRANCH  44  45
ENDBRANCH  41  44
ENDBRANCH  38  40
BRANCH  38  57
ATOM     57  C21 23L d   1      15.024  23.150   7.329  0.00  0.00    -0.020 C 
ATOM     58  H   23L d   1      14.364  23.849   7.863  0.00  0.00     0.043 H 
ATOM     59  H   23L d   1      15.956  23.665   7.051  0.00  0.00     0.043 H 
BRANCH  57  60
ATOM     60  C22 23L d   1      15.344  22.002   8.218  0.00  0.00    -0.056 A 
ATOM     61  C23 23L d   1      14.376  21.451   9.040  0.00  0.00    -0.077 A 
ATOM     62  C24 23L d   1      14.687  20.366   9.832  0.00  0.00    -0.082 A 
ATOM     63  H   23L d   1      13.377  21.871   9.061  0.00  0.00     0.084 H 
ATOM     64  C25 23L d   1      15.950  19.823   9.788  0.00  0.00    -0.083 A 
ATOM     65  H   23L d   1      13.937  19.941  10.489  0.00  0.00     0.083 H 
ATOM     66  C26 23L d   1      16.918  20.376   8.980  0.00  0.00    -0.082 A 
ATOM     67  H   23L d   1      16.185  18.955  10.393  0.00  0.00     0.083 H 
ATOM     68  C27 23L d   1      16.624  21.478   8.197  0.00  0.00    -0.077 A 
ATOM     69  H   23L d   1      17.913  19.947   8.957  0.00  0.00     0.083 H 
ATOM     70  H   23L d   1      17.389  21.926   7.573  0.00  0.00     0.084 H 
ENDBRANCH  57  60
ENDBRANCH  38  57
ENDBRANCH   1  38
BRANCH   1  71
ATOM     71  O19 23L d   1      14.990  24.570   4.770  0.00  0.00    -0.392 OA
ATOM     72  H   23L d   1      15.339  24.965   5.560  0.00  0.00     0.210 HD
ENDBRANCH   1  71
TORSDOF 12
