REMARK  11 active torsions:
REMARK  status: ('A' for Active; 'I' for Inactive)
REMARK    1  A    between atoms: CBA_2  and  CBH_4 
REMARK    2  A    between atoms: CBI_13  and  CA_14 
REMARK    3  A    between atoms: CA_14  and  C_15 
REMARK       I    between atoms: C_15  and  NAX_16 
REMARK    4  A    between atoms: NAX_16  and  CBN_17 
REMARK    5  A    between atoms: CBN_17  and  CAA_18 
REMARK    6  A    between atoms: CBN_17  and  CAC_19 
REMARK    7  A    between atoms: CBN_17  and  CAB_20 
REMARK    8  A    between atoms: CAW_25  and  CBF_26 
REMARK    9  A    between atoms: CBG_31  and  OAZ_32 
REMARK   10  A    between atoms: OAZ_32  and  CAV_33 
REMARK   11  A    between atoms: CAV_33  and  CBE_34 
ROOT
ATOM      1  CA  Y30 d   1     -16.983  -5.189   4.273  0.00  0.00     0.168 A 
ATOM      2  N   Y30 d   1     -16.879  -6.663   4.283  0.00  0.00    -0.201 NA
ATOM      3  CAJ Y30 d   1     -18.033  -7.427   4.364  0.00  0.00     0.234 A 
ATOM      4  OAD Y30 d   1     -18.431  -8.557   4.422  0.00  0.00    -0.277 OA
ATOM      5  CAW Y30 d   1     -18.214  -6.067   3.822  0.00  0.00     0.160 A 
ENDROOT
BRANCH   1   6
ATOM      6  CBI Y30 d   1     -16.225  -4.642   3.108  0.00  0.00     0.024 A 
ATOM      7  CBH Y30 d   1     -15.095  -5.013   2.369  0.00  0.00     0.120 A 
ATOM      8  NAY Y30 d   1     -14.996  -4.177   1.329  0.00  0.00    -0.349 N 
ATOM      9  CBJ Y30 d   1     -16.033  -3.319   1.350  0.00  0.00     0.045 A 
ATOM     10  H1  Y30 d   1     -14.245  -4.188   0.624  0.00  0.00     0.166 HD
ATOM     11  CAU Y30 d   1     -16.362  -2.297   0.499  0.00  0.00    -0.035 A 
ATOM     12  CBK Y30 d   1     -16.836  -3.594   2.447  0.00  0.00     0.002 A 
ATOM     13  CBD Y30 d   1     -17.497  -1.564   0.740  0.00  0.00     0.036 A 
ATOM     14  H2  Y30 d   1     -15.733  -2.070  -0.354  0.00  0.00     0.089 H 
ATOM     15 CLI  Y30 d   1     -17.863  -0.283  -0.423  0.00  0.00    -0.084 Cl
ATOM     16  CAQ Y30 d   1     -18.313  -1.820   1.837  0.00  0.00    -0.061 A 
ATOM     17  CAT Y30 d   1     -17.977  -2.850   2.707  0.00  0.00    -0.069 A 
ATOM     18  H3  Y30 d   1     -19.201  -1.223   2.011  0.00  0.00     0.086 H 
ATOM     19  H4  Y30 d   1     -18.594  -3.067   3.571  0.00  0.00     0.085 H 
BRANCH   7  20
ATOM     20  CBA Y30 d   1     -14.110  -6.090   2.645  0.00  0.00     0.227 C 
ATOM     21  OAE Y30 d   1     -13.188  -6.228   1.805  0.00  0.00    -0.643 OA
ATOM     22  OAG Y30 d   1     -14.220  -6.824   3.644  0.00  0.00    -0.643 OA
ENDBRANCH   7  20
ENDBRANCH   1   6
BRANCH   1  23
ATOM     23  C   Y30 d   1     -17.288  -4.325   5.483  0.00  0.00     0.249 C 
ATOM     24  NAX Y30 d   1     -16.353  -3.471   5.930  0.00  0.00    -0.351 N 
ATOM     25  H5  Y30 d   1     -15.468  -3.467   5.464  0.00  0.00     0.163 HD
ATOM     26  O   Y30 d   1     -18.397  -4.416   5.959  0.00  0.00    -0.271 OA
BRANCH  24  27
ATOM     27  CBN Y30 d   1     -16.534  -2.543   7.052  0.00  0.00     0.022 C 
BRANCH  27  28
ATOM     28  CAA Y30 d   1     -17.719  -1.616   6.813  0.00  0.00    -0.054 C 
ATOM     29  H6  Y30 d   1     -17.829  -0.934   7.669  0.00  0.00     0.030 H 
ATOM     30  H7  Y30 d   1     -18.635  -2.214   6.700  0.00  0.00     0.030 H 
ATOM     31  H8  Y30 d   1     -17.548  -1.031   5.897  0.00  0.00     0.030 H 
ENDBRANCH  27  28
BRANCH  27  32
ATOM     32  CAC Y30 d   1     -15.326  -1.626   7.119  0.00  0.00    -0.054 C 
ATOM     33  H9  Y30 d   1     -15.446  -0.923   7.956  0.00  0.00     0.030 H 
ATOM     34  H10 Y30 d   1     -15.240  -1.064   6.177  0.00  0.00     0.030 H 
ATOM     35  H11 Y30 d   1     -14.418  -2.227   7.272  0.00  0.00     0.030 H 
ENDBRANCH  27  32
BRANCH  27  36
ATOM     36  CAB Y30 d   1     -16.719  -3.236   8.399  0.00  0.00    -0.054 C 
ATOM     37  H12 Y30 d   1     -16.848  -2.479   9.186  0.00  0.00     0.030 H 
ATOM     38  H13 Y30 d   1     -15.833  -3.849   8.621  0.00  0.00     0.030 H 
ATOM     39  H14 Y30 d   1     -17.610  -3.880   8.361  0.00  0.00     0.030 H 
ENDBRANCH  27  36
ENDBRANCH  24  27
ENDBRANCH   1  23
BRANCH   5  40
ATOM     40  CBF Y30 d   1     -18.558  -6.219   2.309  0.00  0.00    -0.023 A 
ATOM     41  CAP Y30 d   1     -17.660  -6.737   1.375  0.00  0.00    -0.072 A 
ATOM     42  CAS Y30 d   1     -17.962  -6.875   0.011  0.00  0.00    -0.050 A 
ATOM     43  H15 Y30 d   1     -16.681  -7.048   1.720  0.00  0.00     0.084 H 
ATOM     44  CBG Y30 d   1     -19.195  -6.512  -0.525  0.00  0.00     0.069 A 
ATOM     45  H16 Y30 d   1     -17.206  -7.280  -0.651  0.00  0.00     0.087 H 
ATOM     46  CAR Y30 d   1     -20.134  -6.020   0.395  0.00  0.00    -0.050 A 
ATOM     47  CAO Y30 d   1     -19.816  -5.891   1.772  0.00  0.00    -0.072 A 
ATOM     48  H18 Y30 d   1     -21.120  -5.733   0.047  0.00  0.00     0.087 H 
ATOM     49  H17 Y30 d   1     -20.582  -5.521   2.444  0.00  0.00     0.084 H 
BRANCH  44  50
ATOM     50  OAZ Y30 d   1     -19.382  -6.724  -1.900  0.00  0.00    -0.347 OA
BRANCH  50  51
ATOM     51  CAV Y30 d   1     -20.500  -6.339  -2.744  0.00  0.00     0.050 C 
ATOM     52  H19 Y30 d   1     -20.726  -5.271  -2.609  0.00  0.00     0.082 H 
ATOM     53  H20 Y30 d   1     -21.388  -6.937  -2.492  0.00  0.00     0.082 H 
BRANCH  51  54
ATOM     54  CBE Y30 d   1     -20.078  -6.608  -4.180  0.00  0.00    -0.034 A 
ATOM     55  CAM Y30 d   1     -19.918  -7.922  -4.625  0.00  0.00    -0.073 A 
ATOM     56  CAK Y30 d   1     -19.499  -8.191  -5.925  0.00  0.00    -0.061 A 
ATOM     57  H21 Y30 d   1     -20.123  -8.744  -3.949  0.00  0.00     0.084 H 
ATOM     58  CBC Y30 d   1     -19.250  -7.122  -6.780  0.00  0.00     0.034 A 
ATOM     59  H24 Y30 d   1     -19.369  -9.212  -6.264  0.00  0.00     0.086 H 
ATOM     60  CAL Y30 d   1     -19.417  -5.803  -6.357  0.00  0.00    -0.061 A 
ATOM     61 CLH  Y30 d   1     -18.703  -7.432  -8.452  0.00  0.00    -0.084 Cl
ATOM     62  CAN Y30 d   1     -19.831  -5.555  -5.053  0.00  0.00    -0.073 A 
ATOM     63  H23 Y30 d   1     -19.226  -4.981  -7.037  0.00  0.00     0.086 H 
ATOM     64  H22 Y30 d   1     -19.962  -4.533  -4.715  0.00  0.00     0.084 H 
ENDBRANCH  51  54
ENDBRANCH  50  51
ENDBRANCH  44  50
ENDBRANCH   5  40
TORSDOF 11
