REMARK  5 active torsions:
REMARK  status: ('A' for Active; 'I' for Inactive)
REMARK    1  A    between atoms: CAN_3  and  OAA_4 
REMARK    2  A    between atoms: CAP_7  and  CAR_8 
REMARK    3  A    between atoms: CAR_8  and  CAS_9 
REMARK    4  A    between atoms: CAR_8  and  CAQ_13 
REMARK    5  A    between atoms: CAO_16  and  OAB_17 
ROOT
ATOM      1  CAR 27N d   1      -4.612  -3.911  22.012  0.00  0.00     0.044 C 
ATOM      2  H   27N d   1      -4.341  -4.368  22.975  0.00  0.00     0.061 H 
ENDROOT
BRANCH   1   3
ATOM      3  CAP 27N d   1      -3.348  -3.567  21.440  0.00  0.00    -0.045 A 
ATOM      4  CAJ 27N d   1      -3.063  -3.732  20.077  0.00  0.00    -0.073 A 
ATOM      5  CAF 27N d   1      -1.789  -3.424  19.582  0.00  0.00    -0.051 A 
ATOM      6  H   27N d   1      -3.830  -4.099  19.405  0.00  0.00     0.084 H 
ATOM      7  CAN 27N d   1      -0.800  -2.962  20.449  0.00  0.00     0.065 A 
ATOM      8  H   27N d   1      -1.573  -3.545  18.527  0.00  0.00     0.087 H 
ATOM      9  CAG 27N d   1      -1.071  -2.795  21.798  0.00  0.00    -0.051 A 
ATOM     10  CAK 27N d   1      -2.332  -3.115  22.287  0.00  0.00    -0.073 A 
ATOM     11  H   27N d   1      -0.305  -2.418  22.466  0.00  0.00     0.087 H 
ATOM     12  H   27N d   1      -2.532  -3.012  23.347  0.00  0.00     0.084 H 
BRANCH   7  13
ATOM     13  OAA 27N d   1       0.431  -2.652  19.984  0.00  0.00    -0.361 OA
ATOM     14  H   27N d   1       0.821  -3.421  19.586  0.00  0.00     0.217 HD
ENDBRANCH   7  13
ENDBRANCH   1   3
BRANCH   1  15
ATOM     15  CAS 27N d   1      -5.563  -2.746  22.424  0.00  0.00     0.200 C 
ATOM     16 CLD  27N d   1      -6.042  -1.747  21.065  0.00  0.00    -0.083 Cl
ATOM     17 CLE  27N d   1      -7.019  -3.494  23.179  0.00  0.00    -0.083 Cl
ATOM     18 CLC  27N d   1      -4.816  -1.689  23.626  0.00  0.00    -0.083 Cl
ENDBRANCH   1  15
BRANCH   1  19
ATOM     19  CAQ 27N d   1      -5.274  -4.961  21.297  0.00  0.00    -0.045 A 
ATOM     20  CAL 27N d   1      -4.828  -6.273  21.475  0.00  0.00    -0.073 A 
ATOM     21  CAH 27N d   1      -5.457  -7.320  20.798  0.00  0.00    -0.051 A 
ATOM     22  H   27N d   1      -3.995  -6.478  22.138  0.00  0.00     0.084 H 
ATOM     23  CAO 27N d   1      -6.532  -7.072  19.941  0.00  0.00     0.065 A 
ATOM     24  H   27N d   1      -5.107  -8.336  20.939  0.00  0.00     0.087 H 
ATOM     25  CAI 27N d   1      -6.988  -5.768  19.762  0.00  0.00    -0.051 A 
ATOM     26  CAM 27N d   1      -6.356  -4.721  20.434  0.00  0.00    -0.073 A 
ATOM     27  H   27N d   1      -7.827  -5.568  19.106  0.00  0.00     0.087 H 
ATOM     28  H   27N d   1      -6.706  -3.705  20.288  0.00  0.00     0.084 H 
BRANCH  23  29
ATOM     29  OAB 27N d   1      -7.141  -8.106  19.284  0.00  0.00    -0.361 OA
ATOM     30  H   27N d   1      -7.847  -7.766  18.747  0.00  0.00     0.217 HD
ENDBRANCH  23  29
ENDBRANCH   1  19
TORSDOF 5
