REMARK  11 active torsions:
REMARK  status: ('A' for Active; 'I' for Inactive)
REMARK    1  A    between atoms: OAP_16  and  CAA_1 
REMARK    2  A    between atoms: OAQ_17  and  CAB_2 
REMARK    3  A    between atoms: CAR_18  and  SAC_3 
REMARK    4  A    between atoms: CAK_11  and  CAJ_10 
REMARK    5  A    between atoms: CAJ_10  and  CAL_12 
REMARK    6  A    between atoms: NAN_14  and  CAK_11 
REMARK    7  A    between atoms: CAL_12  and  NAV_22 
REMARK    8  A    between atoms: NAO_15  and  CAR_18 
REMARK    9  A    between atoms: CAS_19  and  NAO_15 
REMARK   10  A    between atoms: CAT_20  and  OAP_16 
REMARK   11  A    between atoms: OAQ_17  and  CAU_21 
ROOT
ATOM      1  NAO PBD d   1     -22.821  22.258  -5.087  0.00  0.00    -0.336 N 
ATOM      2  H   PBD d   1     -23.651  22.861  -5.178  0.00  0.00     0.168 HD
ENDROOT
BRANCH   1   3
ATOM      3  CAR PBD d   1     -21.721  22.546  -5.822  0.00  0.00     0.159 C 
ATOM      4  NAN PBD d   1     -20.623  21.776  -5.688  0.00  0.00    -0.267 NA
BRANCH   3   5
ATOM      5  SAC PBD d   1     -21.751  23.931  -6.902  0.00  0.00    -0.105 SA
ATOM      6  H   PBD d   1     -22.657  24.370  -6.858  0.00  0.00     0.110 HD
ENDBRANCH   3   5
BRANCH   4   7
ATOM      7  CAK PBD d   1     -19.362  21.993  -6.427  0.00  0.00     0.019 C 
ATOM      8  H   PBD d   1     -19.580  22.147  -7.494  0.00  0.00     0.067 H 
ATOM      9  H   PBD d   1     -18.845  22.878  -6.026  0.00  0.00     0.067 H 
BRANCH   7  10
ATOM     10  CAJ PBD d   1     -18.477  20.757  -6.255  0.00  0.00    -0.033 C 
ATOM     11  H   PBD d   1     -18.954  19.902  -6.756  0.00  0.00     0.037 H 
ATOM     12  H   PBD d   1     -18.369  20.540  -5.182  0.00  0.00     0.037 H 
BRANCH  10  13
ATOM     13  CAL PBD d   1     -17.087  20.981  -6.863  0.00  0.00     0.002 C 
ATOM     14  H   PBD d   1     -16.640  21.891  -6.436  0.00  0.00     0.065 H 
ATOM     15  H   PBD d   1     -17.175  21.093  -7.954  0.00  0.00     0.065 H 
BRANCH  13  16
ATOM     16  NAV PBD d   1     -16.241  19.829  -6.556  0.00  0.00    -0.350 N 
ATOM     17  CAG PBD d   1     -16.135  18.700  -7.261  0.00  0.00    -0.003 A 
ATOM     18  CAD PBD d   1     -15.272  17.905  -6.626  0.00  0.00     0.018 A 
ATOM     19  H   PBD d   1     -16.659  18.470  -8.188  0.00  0.00     0.113 H 
ATOM     20  NAM PBD d   1     -14.857  18.536  -5.522  0.00  0.00    -0.255 NA
ATOM     21  H   PBD d   1     -14.959  16.914  -6.950  0.00  0.00     0.117 H 
ATOM     22  CAH PBD d   1     -15.456  19.732  -5.488  0.00  0.00     0.065 A 
ATOM     23  H   PBD d   1     -15.323  20.492  -4.720  0.00  0.00     0.143 H 
ENDBRANCH  13  16
ENDBRANCH  10  13
ENDBRANCH   7  10
ENDBRANCH   4   7
ENDBRANCH   1   3
BRANCH   1  24
ATOM     24  CAS PBD d   1     -22.868  21.215  -4.244  0.00  0.00     0.036 A 
ATOM     25  CAE PBD d   1     -22.081  21.170  -3.085  0.00  0.00    -0.054 A 
ATOM     26  CAF PBD d   1     -22.164  20.080  -2.216  0.00  0.00    -0.046 A 
ATOM     27  H   PBD d   1     -21.404  21.986  -2.862  0.00  0.00     0.087 H 
ATOM     28  CAT PBD d   1     -23.051  19.038  -2.510  0.00  0.00     0.101 A 
ATOM     29  H   PBD d   1     -21.549  20.041  -1.324  0.00  0.00     0.087 H 
ATOM     30  CAU PBD d   1     -23.843  19.083  -3.657  0.00  0.00     0.103 A 
ATOM     31  CAI PBD d   1     -23.760  20.176  -4.524  0.00  0.00    -0.022 A 
ATOM     32  H   PBD d   1     -24.384  20.218  -5.409  0.00  0.00     0.091 H 
BRANCH  28  33
ATOM     33  OAP PBD d   1     -23.218  17.928  -1.734  0.00  0.00    -0.353 OA
BRANCH  33  34
ATOM     34  CAA PBD d   1     -22.359  17.823  -0.595  0.00  0.00     0.010 C 
ATOM     35  H   PBD d   1     -22.584  16.894  -0.050  0.00  0.00     0.066 H 
ATOM     36  H   PBD d   1     -22.522  18.686   0.068  0.00  0.00     0.066 H 
ATOM     37  H   PBD d   1     -21.310  17.808  -0.927  0.00  0.00     0.066 H 
ENDBRANCH  33  34
ENDBRANCH  28  33
BRANCH  30  38
ATOM     38  OAQ PBD d   1     -24.678  18.014  -3.848  0.00  0.00    -0.353 OA
BRANCH  38  39
ATOM     39  CAB PBD d   1     -25.326  17.957  -5.125  0.00  0.00     0.010 C 
ATOM     40  H   PBD d   1     -25.968  17.065  -5.171  0.00  0.00     0.066 H 
ATOM     41  H   PBD d   1     -24.567  17.903  -5.919  0.00  0.00     0.066 H 
ATOM     42  H   PBD d   1     -25.940  18.859  -5.265  0.00  0.00     0.066 H 
ENDBRANCH  38  39
ENDBRANCH  30  38
ENDBRANCH   1  24
TORSDOF 11
