REMARK  11 active torsions:
REMARK  status: ('A' for Active; 'I' for Inactive)
REMARK    1  A    between atoms: OAP_16  and  CAA_1 
REMARK    2  A    between atoms: OAQ_17  and  CAB_2 
REMARK    3  A    between atoms: CAR_18  and  SAC_3 
REMARK    4  A    between atoms: CAK_11  and  CAJ_10 
REMARK    5  A    between atoms: CAJ_10  and  CAL_12 
REMARK    6  A    between atoms: NAN_14  and  CAK_11 
REMARK    7  A    between atoms: CAL_12  and  NAV_22 
REMARK    8  A    between atoms: CAR_18  and  NAN_14 
REMARK    9  A    between atoms: CAS_19  and  NAO_15 
REMARK   10  A    between atoms: CAT_20  and  OAP_16 
REMARK   11  A    between atoms: OAQ_17  and  CAU_21 
ROOT
ATOM      1  NAO PBD d   1     -23.087  22.078  -5.054  0.00  0.00    -0.225 NA
ATOM      2  CAR PBD d   1     -21.935  22.336  -5.706  0.00  0.00     0.160 C 
ENDROOT
BRANCH   2   3
ATOM      3  SAC PBD d   1     -21.985  23.484  -7.030  0.00  0.00    -0.105 SA
ATOM      4  H   PBD d   1     -22.939  23.766  -7.193  0.00  0.00     0.110 HD
ENDBRANCH   2   3
BRANCH   2   5
ATOM      5  NAN PBD d   1     -20.791  21.766  -5.242  0.00  0.00    -0.369 N 
ATOM      6  H   PBD d   1     -20.867  21.145  -4.424  0.00  0.00     0.161 HD
BRANCH   5   7
ATOM      7  CAK PBD d   1     -19.457  21.969  -5.818  0.00  0.00    -0.004 C 
ATOM      8  H   PBD d   1     -19.466  22.832  -6.500  0.00  0.00     0.064 H 
ATOM      9  H   PBD d   1     -18.721  22.141  -5.019  0.00  0.00     0.064 H 
BRANCH   7  10
ATOM     10  CAJ PBD d   1     -19.116  20.707  -6.578  0.00  0.00    -0.035 C 
ATOM     11  H   PBD d   1     -19.781  20.612  -7.449  0.00  0.00     0.037 H 
ATOM     12  H   PBD d   1     -19.247  19.835  -5.920  0.00  0.00     0.037 H 
BRANCH  10  13
ATOM     13  CAL PBD d   1     -17.686  20.775  -7.043  0.00  0.00     0.002 C 
ATOM     14  H   PBD d   1     -17.204  21.650  -6.582  0.00  0.00     0.065 H 
ATOM     15  H   PBD d   1     -17.673  20.883  -8.138  0.00  0.00     0.065 H 
BRANCH  13  16
ATOM     16  NAV PBD d   1     -16.934  19.576  -6.679  0.00  0.00    -0.350 N 
ATOM     17  CAG PBD d   1     -16.097  18.910  -7.462  0.00  0.00    -0.003 A 
ATOM     18  CAD PBD d   1     -15.587  17.892  -6.772  0.00  0.00     0.018 A 
ATOM     19  H   PBD d   1     -15.865  19.155  -8.498  0.00  0.00     0.113 H 
ATOM     20  NAM PBD d   1     -16.114  17.949  -5.558  0.00  0.00    -0.255 NA
ATOM     21  H   PBD d   1     -14.873  17.154  -7.136  0.00  0.00     0.117 H 
ATOM     22  CAH PBD d   1     -16.940  18.968  -5.501  0.00  0.00     0.065 A 
ATOM     23  H   PBD d   1     -17.529  19.263  -4.634  0.00  0.00     0.143 H 
ENDBRANCH  13  16
ENDBRANCH  10  13
ENDBRANCH   7  10
ENDBRANCH   5   7
ENDBRANCH   2   5
BRANCH   1  24
ATOM     24  CAS PBD d   1     -23.141  21.156  -4.082  0.00  0.00     0.062 A 
ATOM     25  CAE PBD d   1     -22.473  21.260  -2.849  0.00  0.00    -0.052 A 
ATOM     26  CAF PBD d   1     -22.608  20.219  -1.914  0.00  0.00    -0.046 A 
ATOM     27  H   PBD d   1     -21.864  22.128  -2.623  0.00  0.00     0.087 H 
ATOM     28  CAT PBD d   1     -23.399  19.087  -2.216  0.00  0.00     0.101 A 
ATOM     29  H   PBD d   1     -22.103  20.285  -0.957  0.00  0.00     0.087 H 
ATOM     30  CAU PBD d   1     -24.057  19.000  -3.458  0.00  0.00     0.103 A 
ATOM     31  CAI PBD d   1     -23.922  20.030  -4.382  0.00  0.00    -0.020 A 
ATOM     32  H   PBD d   1     -24.424  19.962  -5.341  0.00  0.00     0.091 H 
BRANCH  28  33
ATOM     33  OAP PBD d   1     -23.582  18.019  -1.358  0.00  0.00    -0.353 OA
BRANCH  33  34
ATOM     34  CAA PBD d   1     -22.720  17.947  -0.208  0.00  0.00     0.010 C 
ATOM     35  H   PBD d   1     -22.973  17.055   0.384  0.00  0.00     0.066 H 
ATOM     36  H   PBD d   1     -22.856  18.847   0.409  0.00  0.00     0.066 H 
ATOM     37  H   PBD d   1     -21.673  17.884  -0.538  0.00  0.00     0.066 H 
ENDBRANCH  33  34
ENDBRANCH  28  33
BRANCH  30  38
ATOM     38  OAQ PBD d   1     -24.814  17.886  -3.713  0.00  0.00    -0.353 OA
BRANCH  38  39
ATOM     39  CAB PBD d   1     -25.505  17.864  -4.983  0.00  0.00     0.010 C 
ATOM     40  H   PBD d   1     -26.075  16.928  -5.074  0.00  0.00     0.066 H 
ATOM     41  H   PBD d   1     -24.772  17.928  -5.801  0.00  0.00     0.066 H 
ATOM     42  H   PBD d   1     -26.194  18.720  -5.041  0.00  0.00     0.066 H 
ENDBRANCH  38  39
ENDBRANCH  30  38
ENDBRANCH   1  24
TORSDOF 11
