REMARK  4 active torsions:
REMARK  status: ('A' for Active; 'I' for Inactive)
REMARK    1  A    between atoms: C6_3  and  C7_4 
REMARK    2  A    between atoms: C1_13  and  C2_11 
REMARK    3  A    between atoms: C1_13  and  C_14 
REMARK    4  A    between atoms: C1_13  and  C3_15 
ROOT
ATOM      1  C4  27O d   1     -19.122 -18.237  45.969  0.00  0.00    -0.075 A 
ATOM      2  C5  27O d   1     -18.232 -17.216  45.592  0.00  0.00    -0.075 A 
ATOM      3  C6  27O d   1     -17.535 -17.210  44.370  0.00  0.00    -0.043 A 
ATOM      4  C13 27O d   1     -17.751 -18.366  43.441  0.00  0.00    -0.019 A 
ATOM      5  C15 27O d   1     -17.332 -19.559  41.373  0.00  0.00    -0.082 A 
ATOM      6  C17 27O d   1     -18.878 -20.534  42.958  0.00  0.00    -0.072 A 
ATOM      7  C3  27O d   1     -19.385 -19.360  45.156  0.00  0.00    -0.033 A 
ATOM      8  C18 27O d   1     -18.679 -19.463  43.838  0.00  0.00    -0.018 A 
ATOM      9  C16 27O d   1     -18.213 -20.575  41.734  0.00  0.00    -0.082 A 
ATOM     10  C14 27O d   1     -17.101 -18.469  42.212  0.00  0.00    -0.072 A 
ATOM     11  H   27O d   1     -19.628 -18.158  46.925  0.00  0.00     0.084 H 
ATOM     12  H   27O d   1     -18.075 -16.391  46.278  0.00  0.00     0.084 H 
ATOM     13  H   27O d   1     -16.816 -19.616  40.422  0.00  0.00     0.083 H 
ATOM     14  H   27O d   1     -19.554 -21.337  43.231  0.00  0.00     0.084 H 
ATOM     15  H   27O d   1     -18.383 -21.405  41.057  0.00  0.00     0.083 H 
ATOM     16  H   27O d   1     -16.409 -17.694  41.905  0.00  0.00     0.084 H 
ENDROOT
BRANCH   3  17
ATOM     17  C7  27O d   1     -16.574 -16.117  43.983  0.00  0.00    -0.028 C 
ATOM     18  C8  27O d   1     -15.145 -16.642  44.173  0.00  0.00    -0.058 C 
ATOM     19  C9  27O d   1     -14.029 -15.609  44.361  0.00  0.00    -0.064 C 
ATOM     20  H   27O d   1     -14.893 -17.240  43.285  0.00  0.00     0.034 H 
ATOM     21  H   27O d   1     -15.148 -17.289  45.062  0.00  0.00     0.034 H 
ATOM     22  C10 27O d   1     -14.353 -14.136  44.098  0.00  0.00    -0.065 C 
ATOM     23  H   27O d   1     -13.209 -15.888  43.683  0.00  0.00     0.033 H 
ATOM     24  H   27O d   1     -13.686 -15.686  45.403  0.00  0.00     0.033 H 
ATOM     25  C11 27O d   1     -15.821 -13.739  44.249  0.00  0.00    -0.064 C 
ATOM     26  H   27O d   1     -13.766 -13.530  44.804  0.00  0.00     0.033 H 
ATOM     27  H   27O d   1     -14.044 -13.902  43.069  0.00  0.00     0.033 H 
ATOM     28  C12 27O d   1     -16.719 -14.838  44.794  0.00  0.00    -0.058 C 
ATOM     29  H   27O d   1     -16.201 -13.444  43.260  0.00  0.00     0.033 H 
ATOM     30  H   27O d   1     -15.876 -12.880  44.934  0.00  0.00     0.033 H 
ATOM     31  H   27O d   1     -16.443 -15.042  45.839  0.00  0.00     0.034 H 
ATOM     32  H   27O d   1     -17.765 -14.502  44.750  0.00  0.00     0.034 H 
ATOM     33  H   27O d   1     -16.738 -15.874  42.923  0.00  0.00     0.047 H 
ENDBRANCH   3  17
BRANCH   7  34
ATOM     34  C1  27O d   1     -20.333 -20.447  45.577  0.00  0.00     0.053 C 
ATOM     35  H   27O d   1     -19.899 -21.400  45.240  0.00  0.00     0.063 H 
BRANCH  34  36
ATOM     36  C2  27O d   1     -21.702 -20.317  44.942  0.00  0.00     0.181 C 
ATOM     37  O1  27O d   1     -22.092 -21.116  44.095  0.00  0.00    -0.647 OA
ATOM     38  O   27O d   1     -22.538 -19.350  45.300  0.00  0.00    -0.647 OA
ENDBRANCH  34  36
BRANCH  34  39
ATOM     39  C   27O d   1     -20.494 -20.519  47.095  0.00  0.00    -0.060 C 
ATOM     40  H   27O d   1     -21.195 -21.327  47.351  0.00  0.00     0.029 H 
ATOM     41  H   27O d   1     -20.886 -19.561  47.468  0.00  0.00     0.029 H 
ATOM     42  H   27O d   1     -19.517 -20.721  47.558  0.00  0.00     0.029 H 
ENDBRANCH  34  39
ENDBRANCH   7  34
TORSDOF 4
