REMARK  2 active torsions:
REMARK  status: ('A' for Active; 'I' for Inactive)
REMARK    1  A    between atoms: C10_7  and  C_8 
REMARK    2  A    between atoms: C_8  and  O_9 
ROOT
ATOM      1  C   29Q d   1     103.510  22.459  35.262  0.00  0.00     0.194 A 
ATOM      2  C5  29Q d   1     102.635  23.489  35.967  0.00  0.00     0.016 A 
ATOM      3  C6  29Q d   1     101.745  24.401  35.400  0.00  0.00    -0.071 A 
ATOM      4  C7  29Q d   1     101.029  25.316  36.199  0.00  0.00    -0.082 A 
ATOM      5  C8  29Q d   1     101.209  25.322  37.583  0.00  0.00    -0.082 A 
ATOM      6  C9  29Q d   1     102.123  24.415  38.184  0.00  0.00    -0.069 A 
ATOM      7  C4  29Q d   1     102.801  23.526  37.355  0.00  0.00     0.019 A 
ATOM      8  C1  29Q d   1     103.800  22.438  37.539  0.00  0.00     0.113 A 
ATOM      9  N   29Q d   1     104.154  21.827  36.434  0.00  0.00    -0.325 N 
ATOM     10  C3  29Q d   1     105.135  20.793  36.488  0.00  0.00     0.015 A 
ATOM     11  C2  29Q d   1     105.303  20.765  38.034  0.00  0.00     0.009 A 
ATOM     12  N1  29Q d   1     104.469  21.859  38.579  0.00  0.00    -0.374 N 
ATOM     13  H6  29Q d   1     101.601  24.407  34.326  0.00  0.00     0.084 H 
ATOM     14  H7  29Q d   1     100.339  26.014  35.739  0.00  0.00     0.083 H 
ATOM     15  H8  29Q d   1     100.652  26.018  38.199  0.00  0.00     0.083 H 
ATOM     16  H9  29Q d   1     102.287  24.416  39.255  0.00  0.00     0.085 H 
ATOM     17  H10 29Q d   1     106.065  21.069  35.969  0.00  0.00     0.067 H 
ATOM     18  H11 29Q d   1     104.762  19.838  36.089  0.00  0.00     0.067 H 
ATOM     19  H12 29Q d   1     106.358  20.924  38.303  0.00  0.00     0.066 H 
ATOM     20  H13 29Q d   1     104.965  19.797  38.433  0.00  0.00     0.066 H 
ATOM     21  H14 29Q d   1     104.404  22.135  39.569  0.00  0.00     0.161 HD
ENDROOT
BRANCH   1  22
ATOM     22  C10 29Q d   1     102.695  21.683  34.258  0.00  0.00     0.002 A 
ATOM     23  C11 29Q d   1     101.527  20.988  34.556  0.00  0.00    -0.070 A 
ATOM     24  C12 29Q d   1     100.819  20.351  33.513  0.00  0.00    -0.061 A 
ATOM     25  H2  29Q d   1     101.165  20.936  35.576  0.00  0.00     0.084 H 
ATOM     26  C13 29Q d   1     101.271  20.426  32.185  0.00  0.00     0.034 A 
ATOM     27  H1  29Q d   1      99.915  19.797  33.740  0.00  0.00     0.086 H 
ATOM     28 CL   29Q d   1     100.379  19.642  30.816  0.00  0.00    -0.084 Cl
ATOM     29  C14 29Q d   1     102.403  21.129  31.896  0.00  0.00    -0.061 A 
ATOM     30  C15 29Q d   1     103.101  21.759  32.933  0.00  0.00    -0.070 A 
ATOM     31  H3  29Q d   1     102.758  21.199  30.874  0.00  0.00     0.086 H 
ATOM     32  H4  29Q d   1     103.992  22.328  32.692  0.00  0.00     0.084 H 
ENDBRANCH   1  22
BRANCH   1  33
ATOM     33  O   29Q d   1     104.573  23.117  34.547  0.00  0.00    -0.362 OA
ATOM     34  H5  29Q d   1     104.979  23.764  35.111  0.00  0.00     0.213 HD
ENDBRANCH   1  33
TORSDOF 2
