REMARK  11 active torsions:
REMARK  status: ('A' for Active; 'I' for Inactive)
REMARK    1  A    between atoms: C2_2  and  C1_1 
REMARK    2  A    between atoms: C2_2  and  O2_15 
REMARK    3  A    between atoms: C4_4  and  O4_16 
REMARK    4  A    between atoms: N5_12  and  C5_5 
REMARK    5  A    between atoms: C6_6  and  C7_7 
REMARK    6  A    between atoms: C7_7  and  C8_8 
REMARK    7  A    between atoms: C7_7  and  O7_18 
REMARK    8  A    between atoms: C8_8  and  C9_9 
REMARK    9  A    between atoms: C8_8  and  O8_19 
REMARK   10  A    between atoms: C9_9  and  O9_20 
REMARK   11  A    between atoms: C10_10  and  C11_11 
REMARK       I    between atoms: C10_10  and  N5_12 
ROOT
ATOM      1  C2  SLB d   1      19.955  30.127  12.904  0.00  0.00     0.256 C 
ATOM      2  C3  SLB d   1      19.560  28.894  13.707  0.00  0.00     0.023 C 
ATOM      3  C4  SLB d   1      18.056  28.714  13.589  0.00  0.00     0.063 C 
ATOM      4  C5  SLB d   1      17.629  28.585  12.134  0.00  0.00     0.064 C 
ATOM      5  C6  SLB d   1      18.126  29.915  11.411  0.00  0.00     0.091 C 
ATOM      6  O6  SLB d   1      19.587  30.053  11.538  0.00  0.00    -0.336 OA
ATOM      7  H   SLB d   1      19.837  29.032  14.762  0.00  0.00     0.045 H 
ATOM      8  H   SLB d   1      20.074  28.008  13.306  0.00  0.00     0.045 H 
ATOM      9  H   SLB d   1      17.567  29.597  14.026  0.00  0.00     0.086 H 
ATOM     10  H   SLB d   1      18.133  27.712  11.693  0.00  0.00     0.080 H 
ATOM     11  H   SLB d   1      17.616  30.768  11.883  0.00  0.00     0.090 H 
ENDROOT
BRANCH   5  12
ATOM     12  C7  SLB d   1      17.916  29.969   9.915  0.00  0.00     0.089 C 
ATOM     13  H   SLB d   1      16.833  29.896   9.735  0.00  0.00     0.091 H 
BRANCH  12  14
ATOM     14  C8  SLB d   1      18.412  31.288   9.266  0.00  0.00     0.083 C 
ATOM     15  H   SLB d   1      19.505  31.328   9.382  0.00  0.00     0.090 H 
BRANCH  14  16
ATOM     16  C9  SLB d   1      18.115  31.429   7.782  0.00  0.00     0.043 C 
ATOM     17  H   SLB d   1      18.706  30.686   7.226  0.00  0.00     0.078 H 
ATOM     18  H   SLB d   1      18.396  32.441   7.454  0.00  0.00     0.078 H 
BRANCH  16  19
ATOM     19  O9  SLB d   1      16.659  31.209   7.497  0.00  0.00    -0.398 OA
ATOM     20  H   SLB d   1      16.144  31.851   7.972  0.00  0.00     0.209 HD
ENDBRANCH  16  19
ENDBRANCH  14  16
BRANCH  14  21
ATOM     21  O8  SLB d   1      17.839  32.361   9.995  0.00  0.00    -0.391 OA
ATOM     22  H   SLB d   1      16.898  32.361   9.868  0.00  0.00     0.210 HD
ENDBRANCH  14  21
ENDBRANCH  12  14
BRANCH  12  23
ATOM     23  O7  SLB d   1      18.565  28.834   9.254  0.00  0.00    -0.390 OA
ATOM     24  H   SLB d   1      19.507  28.906   9.356  0.00  0.00     0.210 HD
ENDBRANCH  12  23
ENDBRANCH   5  12
BRANCH   4  25
ATOM     25  N5  SLB d   1      16.191  28.422  11.939  0.00  0.00    -0.352 N 
ATOM     26  C10 SLB d   1      15.676  27.248  11.538  0.00  0.00     0.214 C 
ATOM     27  O10 SLB d   1      16.419  26.259  11.327  0.00  0.00    -0.274 OA
ATOM     28  H   SLB d   1      15.580  29.196  12.107  0.00  0.00     0.163 HD
BRANCH  26  29
ATOM     29  C11 SLB d   1      14.161  27.253  11.367  0.00  0.00    -0.003 C 
ATOM     30  H   SLB d   1      13.826  26.258  11.039  0.00  0.00     0.040 H 
ATOM     31  H   SLB d   1      13.880  28.002  10.612  0.00  0.00     0.040 H 
ATOM     32  H   SLB d   1      13.684  27.502  12.327  0.00  0.00     0.040 H 
ENDBRANCH  26  29
ENDBRANCH   4  25
BRANCH   3  33
ATOM     33  O4  SLB d   1      17.618  27.550  14.290  0.00  0.00    -0.393 OA
ATOM     34  H   SLB d   1      16.672  27.484  14.232  0.00  0.00     0.210 HD
ENDBRANCH   3  33
BRANCH   1  35
ATOM     35  C1  SLB d   1      21.450  30.264  12.801  0.00  0.00     0.238 C 
ATOM     36  O1A SLB d   1      22.006  31.239  13.354  0.00  0.00    -0.644 OA
ATOM     37  O1B SLB d   1      22.109  29.401  12.161  0.00  0.00    -0.644 OA
ENDBRANCH   1  35
BRANCH   1  38
ATOM     38  O2  SLB d   1      19.422  31.376  13.487  0.00  0.00    -0.357 OA
ATOM     39  H   SLB d   1      19.668  31.427  14.403  0.00  0.00     0.213 HD
ENDBRANCH   1  38
TORSDOF 11
