REMARK  11 active torsions:
REMARK  status: ('A' for Active; 'I' for Inactive)
REMARK    1  A    between atoms: C2_2  and  C1_1 
REMARK    2  A    between atoms: C2_2  and  O2_15 
REMARK    3  A    between atoms: C4_4  and  O4_16 
REMARK    4  A    between atoms: N5_12  and  C5_5 
REMARK    5  A    between atoms: C6_6  and  C7_7 
REMARK    6  A    between atoms: C7_7  and  C8_8 
REMARK    7  A    between atoms: C7_7  and  O7_18 
REMARK    8  A    between atoms: C8_8  and  C9_9 
REMARK    9  A    between atoms: C8_8  and  O8_19 
REMARK   10  A    between atoms: C9_9  and  O9_20 
REMARK   11  A    between atoms: C10_10  and  C11_11 
REMARK       I    between atoms: C10_10  and  N5_12 
ROOT
ATOM      1  C2  SLB d   1      21.866  26.958  41.013  0.00  0.00     0.256 C 
ATOM      2  C3  SLB d   1      22.849  25.946  41.272  0.00  0.00     0.023 C 
ATOM      3  C4  SLB d   1      22.347  24.609  41.337  0.00  0.00     0.063 C 
ATOM      4  C5  SLB d   1      21.515  24.259  40.207  0.00  0.00     0.064 C 
ATOM      5  C6  SLB d   1      20.370  25.227  39.950  0.00  0.00     0.091 C 
ATOM      6  O6  SLB d   1      20.908  26.623  39.981  0.00  0.00    -0.336 OA
ATOM      7  H   SLB d   1      23.328  26.176  42.235  0.00  0.00     0.045 H 
ATOM      8  H   SLB d   1      23.600  25.988  40.469  0.00  0.00     0.045 H 
ATOM      9  H   SLB d   1      21.717  24.540  42.236  0.00  0.00     0.086 H 
ATOM     10  H   SLB d   1      22.152  24.235  39.311  0.00  0.00     0.080 H 
ATOM     11  H   SLB d   1      19.639  25.115  40.764  0.00  0.00     0.090 H 
ENDROOT
BRANCH   5  12
ATOM     12  C7  SLB d   1      19.702  24.979  38.740  0.00  0.00     0.089 C 
ATOM     13  H   SLB d   1      19.209  23.996  38.778  0.00  0.00     0.091 H 
BRANCH  12  14
ATOM     14  C8  SLB d   1      18.659  26.086  38.518  0.00  0.00     0.083 C 
ATOM     15  H   SLB d   1      19.171  27.032  38.285  0.00  0.00     0.090 H 
BRANCH  14  16
ATOM     16  C9  SLB d   1      17.758  25.719  37.387  0.00  0.00     0.043 C 
ATOM     17  H   SLB d   1      18.392  25.528  36.508  0.00  0.00     0.078 H 
ATOM     18  H   SLB d   1      17.107  26.584  37.189  0.00  0.00     0.078 H 
BRANCH  16  19
ATOM     19  O9  SLB d   1      16.942  24.616  37.558  0.00  0.00    -0.398 OA
ATOM     20  H   SLB d   1      16.369  24.760  38.302  0.00  0.00     0.209 HD
ENDBRANCH  16  19
ENDBRANCH  14  16
BRANCH  14  21
ATOM     21  O8  SLB d   1      17.927  26.231  39.650  0.00  0.00    -0.391 OA
ATOM     22  H   SLB d   1      17.486  25.413  39.848  0.00  0.00     0.210 HD
ENDBRANCH  14  21
ENDBRANCH  12  14
BRANCH  12  23
ATOM     23  O7  SLB d   1      20.621  25.013  37.679  0.00  0.00    -0.390 OA
ATOM     24  H   SLB d   1      21.048  25.862  37.658  0.00  0.00     0.210 HD
ENDBRANCH  12  23
ENDBRANCH   5  12
BRANCH   4  25
ATOM     25  N5  SLB d   1      20.940  22.922  40.428  0.00  0.00    -0.352 N 
ATOM     26  C10 SLB d   1      21.407  21.777  39.641  0.00  0.00     0.214 C 
ATOM     27  O10 SLB d   1      22.294  21.920  38.778  0.00  0.00    -0.274 OA
ATOM     28  H   SLB d   1      20.228  22.794  41.118  0.00  0.00     0.163 HD
BRANCH  26  29
ATOM     29  C11 SLB d   1      20.816  20.446  39.882  0.00  0.00    -0.003 C 
ATOM     30  H   SLB d   1      21.281  19.711  39.209  0.00  0.00     0.040 H 
ATOM     31  H   SLB d   1      19.733  20.485  39.691  0.00  0.00     0.040 H 
ATOM     32  H   SLB d   1      20.993  20.150  40.926  0.00  0.00     0.040 H 
ENDBRANCH  26  29
ENDBRANCH   4  25
BRANCH   3  33
ATOM     33  O4  SLB d   1      23.440  23.669  41.494  0.00  0.00    -0.393 OA
ATOM     34  H   SLB d   1      23.089  22.797  41.634  0.00  0.00     0.210 HD
ENDBRANCH   3  33
BRANCH   1  35
ATOM     35  C1  SLB d   1      22.483  28.263  40.716  0.00  0.00     0.238 C 
ATOM     36  O1A SLB d   1      23.150  28.415  39.664  0.00  0.00    -0.644 OA
ATOM     37  O1B SLB d   1      22.341  29.236  41.510  0.00  0.00    -0.644 OA
ENDBRANCH   1  35
BRANCH   1  38
ATOM     38  O2  SLB d   1      21.147  27.126  42.185  0.00  0.00    -0.357 OA
ATOM     39  H   SLB d   1      21.742  27.348  42.891  0.00  0.00     0.213 HD
ENDBRANCH   1  38
TORSDOF 11
