REMARK  10 active torsions:
REMARK  status: ('A' for Active; 'I' for Inactive)
REMARK    1  A    between atoms: PB_1  and  C3B_4 
REMARK    2  A    between atoms: O3A_8  and  PB_1 
REMARK    3  A    between atoms: PA_5  and  O3A_8 
REMARK    4  A    between atoms: PA_5  and  O5'_9 
REMARK    5  A    between atoms: O5'_9  and  C5'_10 
REMARK    6  A    between atoms: C5'_10  and  C4'_11 
REMARK    7  A    between atoms: C3'_13  and  O3'_14 
REMARK    8  A    between atoms: C2'_15  and  O2'_16 
REMARK    9  A    between atoms: C1'_17  and  N9_18 
REMARK   10  A    between atoms: C6_22  and  N6_23 
ROOT
ATOM      1  C4' ACP d   1      -6.163 -43.045  31.930  0.00  0.00     0.089 C 
ATOM      2  O4' ACP d   1      -7.325 -42.202  32.060  0.00  0.00    -0.353 OA
ATOM      3  C3' ACP d   1      -6.555 -44.326  32.653  0.00  0.00     0.091 C 
ATOM      4  C2' ACP d   1      -7.356 -43.780  33.840  0.00  0.00     0.105 C 
ATOM      5  C1' ACP d   1      -8.041 -42.549  33.232  0.00  0.00     0.139 C 
ATOM      6  H   ACP d   1      -5.297 -42.594  32.436  0.00  0.00     0.090 H 
ATOM      7  H   ACP d   1      -7.187 -44.961  32.015  0.00  0.00     0.091 H 
ATOM      8  H   ACP d   1      -8.093 -44.516  34.194  0.00  0.00     0.093 H 
ATOM      9  H   ACP d   1      -7.985 -41.722  33.955  0.00  0.00     0.122 H 
ENDROOT
BRANCH   1  10
ATOM     10  C5' ACP d   1      -5.834 -43.192  30.468  0.00  0.00     0.058 C 
ATOM     11  H   ACP d   1      -4.842 -43.652  30.345  0.00  0.00     0.079 H 
ATOM     12  H   ACP d   1      -6.591 -43.813  29.967  0.00  0.00     0.079 H 
BRANCH  10  13
ATOM     13  O5' ACP d   1      -5.839 -41.859  29.920  0.00  0.00    -0.287 OA
BRANCH  13  14
ATOM     14  PA  ACP d   1      -4.488 -41.210  29.335  0.00  0.00     0.416 P 
ATOM     15  O1A ACP d   1      -4.601 -39.740  29.161  0.00  0.00    -0.624 OA
ATOM     16  O2A ACP d   1      -3.338 -41.484  30.315  0.00  0.00    -0.624 OA
BRANCH  14  17
ATOM     17  O3A ACP d   1      -4.211 -42.061  28.028  0.00  0.00    -0.204 OA
BRANCH  17  18
ATOM     18  PB  ACP d   1      -2.914 -42.740  27.400  0.00  0.00     0.255 P 
ATOM     19  O1B ACP d   1      -1.849 -41.679  27.347  0.00  0.00    -0.646 OA
ATOM     20  O2B ACP d   1      -2.550 -43.954  28.314  0.00  0.00    -0.646 OA
BRANCH  18  21
ATOM     21  C3B ACP d   1      -3.391 -43.372  25.776  0.00  0.00     0.019 C 
ATOM     22  H   ACP d   1      -2.523 -43.853  25.300  0.00  0.00     0.045 H 
ATOM     23  H   ACP d   1      -3.740 -42.540  25.147  0.00  0.00     0.045 H 
ATOM     24  H   ACP d   1      -4.200 -44.108  25.892  0.00  0.00     0.045 H 
ENDBRANCH  18  21
ENDBRANCH  17  18
ENDBRANCH  14  17
ENDBRANCH  13  14
ENDBRANCH  10  13
ENDBRANCH   1  10
BRANCH   3  25
ATOM     25  O3' ACP d   1      -5.412 -45.076  33.058  0.00  0.00    -0.390 OA
ATOM     26  H   ACP d   1      -4.882 -44.551  33.646  0.00  0.00     0.210 HD
ENDBRANCH   3  25
BRANCH   5  27
ATOM     27  N9  ACP d   1      -9.440 -42.766  32.896  0.00  0.00    -0.294 N 
ATOM     28  C8  ACP d   1      -9.983 -43.038  31.656  0.00  0.00     0.071 A 
ATOM     29  N7  ACP d   1     -11.273 -43.237  31.673  0.00  0.00    -0.236 NA
ATOM     30  H   ACP d   1      -9.388 -43.083  30.745  0.00  0.00     0.144 H 
ATOM     31  C5  ACP d   1     -11.625 -43.085  33.017  0.00  0.00     0.149 A 
ATOM     32  C6  ACP d   1     -12.849 -43.176  33.693  0.00  0.00     0.155 A 
ATOM     33  C4  ACP d   1     -10.498 -42.788  33.761  0.00  0.00     0.167 A 
ATOM     34  N1  ACP d   1     -12.841 -42.963  35.031  0.00  0.00    -0.222 NA
ATOM     35  C2  ACP d   1     -11.682 -42.673  35.630  0.00  0.00     0.091 A 
ATOM     36  N3  ACP d   1     -10.463 -42.565  35.093  0.00  0.00    -0.222 NA
ATOM     37  H   ACP d   1     -11.739 -42.502  36.699  0.00  0.00     0.146 H 
BRANCH  32  38
ATOM     38  N6  ACP d   1     -14.015 -43.443  33.098  0.00  0.00    -0.382 N 
ATOM     39  H   ACP d   1     -14.878 -43.495  33.657  0.00  0.00     0.157 HD
ATOM     40  H   ACP d   1     -14.050 -43.597  32.080  0.00  0.00     0.157 HD
ENDBRANCH  32  38
ENDBRANCH   5  27
BRANCH   4  41
ATOM     41  O2' ACP d   1      -6.511 -43.398  34.918  0.00  0.00    -0.388 OA
ATOM     42  H   ACP d   1      -6.016 -44.153  35.214  0.00  0.00     0.210 HD
ENDBRANCH   4  41
TORSDOF 10
