REMARK  7 active torsions:
REMARK  status: ('A' for Active; 'I' for Inactive)
REMARK    1  A    between atoms: N5_4  and  S1_1 
REMARK    2  A    between atoms: S1_1  and  N1_16 
REMARK    3  A    between atoms: C1_5  and  N5_4 
REMARK    4  A    between atoms: C2_6  and  C1_5 
REMARK    5  A    between atoms: N2_13  and  C2_6 
REMARK    6  A    between atoms: C3_9  and  N4_8 
REMARK    7  A    between atoms: C5_11  and  C6_12 
ROOT
ATOM      1  C2  2VQ d   1      -4.762   2.643  13.159  0.00  0.00     0.018 C 
ATOM      2  H4  2VQ d   1      -5.771   2.952  13.470  0.00  0.00     0.067 H 
ATOM      3  H5  2VQ d   1      -4.767   2.401  12.086  0.00  0.00     0.067 H 
ENDROOT
BRANCH   1   4
ATOM      4  C1  2VQ d   1      -4.377   1.424  13.924  0.00  0.00     0.019 C 
ATOM      5  H2  2VQ d   1      -5.144   0.647  13.785  0.00  0.00     0.067 H 
ATOM      6  H3  2VQ d   1      -3.408   1.053  13.558  0.00  0.00     0.067 H 
BRANCH   4   7
ATOM      7  N5  2VQ d   1      -4.266   1.755  15.361  0.00  0.00    -0.301 N 
ATOM      8  H1  2VQ d   1      -3.590   2.416  15.686  0.00  0.00     0.173 HD
BRANCH   7   9
ATOM      9  S1  2VQ d   1      -5.272   1.016  16.392  0.00  0.00     0.312 S 
ATOM     10  O1  2VQ d   1      -4.695   1.319  17.664  0.00  0.00    -0.183 OA
ATOM     11  O2  2VQ d   1      -6.616   1.420  16.117  0.00  0.00    -0.183 OA
BRANCH   9  12
ATOM     12  N1  2VQ d   1      -5.164  -0.558  16.140  0.00  0.00    -0.312 N 
ATOM     13  H10 2VQ d   1      -4.293  -1.028  16.281  0.00  0.00     0.170 HD
ATOM     14  H11 2VQ d   1      -5.968  -1.073  15.841  0.00  0.00     0.170 HD
ENDBRANCH   9  12
ENDBRANCH   7   9
ENDBRANCH   4   7
ENDBRANCH   1   4
BRANCH   1  15
ATOM     15  N2  2VQ d   1      -3.833   3.760  13.388  0.00  0.00    -0.314 N 
ATOM     16  C3  2VQ d   1      -2.517   3.889  12.995  0.00  0.00     0.195 A 
ATOM     17  C4  2VQ d   1      -2.046   5.046  13.556  0.00  0.00     0.053 A 
ATOM     18  N3  2VQ d   1      -3.037   5.636  14.258  0.00  0.00    -0.244 NA
ATOM     19  H6  2VQ d   1      -1.032   5.430  13.452  0.00  0.00     0.121 H 
ATOM     20  C5  2VQ d   1      -4.096   4.855  14.147  0.00  0.00     0.103 A 
BRANCH  16  21
ATOM     21  N4  2VQ d   1      -1.843   3.040  12.091  0.00  0.00    -0.096 N 
ATOM     22  O4  2VQ d   1      -0.644   3.261  11.903  0.00  0.00    -0.530 OA
ATOM     23  O5  2VQ d   1      -2.465   2.162  11.494  0.00  0.00    -0.530 OA
ENDBRANCH  16  21
BRANCH  20  24
ATOM     24  C6  2VQ d   1      -5.378   5.087  14.830  0.00  0.00    -0.021 C 
ATOM     25  H7  2VQ d   1      -5.335   6.041  15.376  0.00  0.00     0.037 H 
ATOM     26  H8  2VQ d   1      -5.569   4.268  15.539  0.00  0.00     0.037 H 
ATOM     27  H9  2VQ d   1      -6.188   5.126  14.087  0.00  0.00     0.037 H 
ENDBRANCH  20  24
ENDBRANCH   1  15
TORSDOF 7
