REMARK  6 active torsions:
REMARK  status: ('A' for Active; 'I' for Inactive)
REMARK    1  A    between atoms: C02_4  and  O01_3 
REMARK    2  A    between atoms: C04_6  and  O05_7 
REMARK    3  A    between atoms: S09_11  and  C08_10 
REMARK    4  A    between atoms: N10_12  and  S09_11 
REMARK    5  A    between atoms: C16_16  and  O20_20 
REMARK    6  A    between atoms: C18_18  and  O19_19 
ROOT
ATOM      1  C12 PV0 d   1      16.475   1.824 -37.584  0.00  0.00     0.025 A 
ATOM      2  C13 PV0 d   1      16.312   0.558 -38.137  0.00  0.00    -0.003 A 
ATOM      3  N10 PV0 d   1      14.241   1.339 -37.399  0.00  0.00    -0.256 N 
ATOM      4  C11 PV0 d   1      15.210   2.295 -37.004  0.00  0.00     0.009 C 
ATOM      5  C14 PV0 d   1      14.871   0.155 -37.928  0.00  0.00     0.007 C 
ATOM      6  C15 PV0 d   1      17.418  -0.086 -38.755  0.00  0.00    -0.039 A 
ATOM      7  C16 PV0 d   1      18.645   0.586 -38.787  0.00  0.00     0.069 A 
ATOM      8  C17 PV0 d   1      18.785   1.859 -38.225  0.00  0.00    -0.018 A 
ATOM      9  C18 PV0 d   1      17.712   2.478 -37.622  0.00  0.00     0.080 A 
ATOM     10  H   PV0 d   1      15.051   3.187 -36.400  0.00  0.00     0.114 H 
ATOM     11  H   PV0 d   1      14.412  -0.811 -38.131  0.00  0.00     0.114 H 
ATOM     12  H   PV0 d   1      17.314  -1.073 -39.191  0.00  0.00     0.089 H 
ATOM     13  H   PV0 d   1      19.744   2.362 -38.264  0.00  0.00     0.092 H 
ENDROOT
BRANCH   3  14
ATOM     14  S09 PV0 d   1      12.876   0.953 -36.619  0.00  0.00     0.271 S 
ATOM     15  O21 PV0 d   1      13.187   0.540 -35.258  0.00  0.00    -0.200 OA
ATOM     16  O22 PV0 d   1      12.193  -0.129 -37.297  0.00  0.00    -0.200 OA
BRANCH  14  17
ATOM     17  C08 PV0 d   1      12.011   2.465 -36.528  0.00  0.00     0.113 A 
ATOM     18  C02 PV0 d   1      11.478   3.025 -37.678  0.00  0.00     0.091 A 
ATOM     19  C03 PV0 d   1      10.798   4.232 -37.603  0.00  0.00    -0.018 A 
ATOM     20  C04 PV0 d   1      10.646   4.854 -36.367  0.00  0.00     0.068 A 
ATOM     21  H   PV0 d   1      10.389   4.686 -38.498  0.00  0.00     0.092 H 
ATOM     22  C06 PV0 d   1      11.178   4.287 -35.225  0.00  0.00    -0.049 A 
ATOM     23  C07 PV0 d   1      11.867   3.098 -35.299  0.00  0.00    -0.055 A 
ATOM     24  H   PV0 d   1      11.052   4.780 -34.268  0.00  0.00     0.087 H 
ATOM     25  H   PV0 d   1      12.294   2.658 -34.405  0.00  0.00     0.086 H 
BRANCH  18  26
ATOM     26  O01 PV0 d   1      11.647   2.379 -38.884  0.00  0.00    -0.359 OA
ATOM     27  H   PV0 d   1      12.132   1.574 -38.745  0.00  0.00     0.217 HD
ENDBRANCH  18  26
BRANCH  20  28
ATOM     28  O05 PV0 d   1       9.980   6.052 -36.264  0.00  0.00    -0.361 OA
ATOM     29  H   PV0 d   1       9.088   5.945 -36.573  0.00  0.00     0.217 HD
ENDBRANCH  20  28
ENDBRANCH  14  17
ENDBRANCH   3  14
BRANCH   9  30
ATOM     30  O19 PV0 d   1      17.805   3.722 -37.062  0.00  0.00    -0.360 OA
ATOM     31  H   PV0 d   1      16.962   3.969 -36.701  0.00  0.00     0.217 HD
ENDBRANCH   9  30
BRANCH   7  32
ATOM     32  O20 PV0 d   1      19.741   0.004 -39.378  0.00  0.00    -0.361 OA
ATOM     33  H   PV0 d   1      19.501  -0.852 -39.714  0.00  0.00     0.217 HD
ENDBRANCH   7  32
TORSDOF 6
