REMARK  8 active torsions:
REMARK  status: ('A' for Active; 'I' for Inactive)
REMARK    1  A    between atoms: C_2  and  CA_4 
REMARK    2  A    between atoms: CA_4  and  N_5 
REMARK    3  A    between atoms: CAV_9  and  OAR_10 
REMARK    4  A    between atoms: OAR_10  and  CAA_11 
REMARK    5  A    between atoms: CAX_15  and  CAT_16 
REMARK       I    between atoms: CAT_16  and  NAQ_18 
REMARK    6  A    between atoms: NAQ_18  and  SBB_19 
REMARK    7  A    between atoms: SBB_19  and  CAW_22 
REMARK    8  A    between atoms: CAU_25  and  CAB_26 
ROOT
ATOM      1  N   29W d   1      16.102  10.411  -1.338  0.00  0.00    -0.332 N 
ATOM      2  CAZ 29W d   1      15.298  10.316  -2.433  0.00  0.00     0.046 A 
ATOM      3  CAM 29W d   1      15.642  10.054  -3.754  0.00  0.00    -0.053 A 
ATOM      4  CAL 29W d   1      14.631  10.019  -4.711  0.00  0.00    -0.049 A 
ATOM      5  CAV 29W d   1      13.293  10.196  -4.326  0.00  0.00     0.069 A 
ATOM      6  CAN 29W d   1      12.984  10.489  -2.960  0.00  0.00    -0.039 A 
ATOM      7  CAY 29W d   1      14.007  10.509  -2.032  0.00  0.00    -0.004 A 
ATOM      8  CAO 29W d   1      14.046  10.725  -0.669  0.00  0.00    -0.039 A 
ATOM      9  CAX 29W d   1      15.353  10.626  -0.246  0.00  0.00     0.105 A 
ATOM     10  H3  29W d   1      16.675   9.881  -4.033  0.00  0.00     0.087 H 
ATOM     11  H4  29W d   1      14.877   9.855  -5.754  0.00  0.00     0.087 H 
ATOM     12  H8  29W d   1      11.963  10.692  -2.658  0.00  0.00     0.089 H 
ATOM     13  H9  29W d   1      13.187  10.938  -0.034  0.00  0.00     0.088 H 
ENDROOT
BRANCH   9  14
ATOM     14  CAT 29W d   1      15.872  10.783   1.031  0.00  0.00     0.281 C 
ATOM     15  OAD 29W d   1      16.957  10.345   1.409  0.00  0.00    -0.265 OA
ATOM     16  NAQ 29W d   1      15.177  11.481   1.857  0.00  0.00    -0.245 N 
ATOM     17  H10 29W d   1      14.329  11.909   1.545  0.00  0.00     0.182 HD
BRANCH  16  18
ATOM     18  SBB 29W d   1      15.661  11.686   3.436  0.00  0.00     0.265 S 
ATOM     19  OAE 29W d   1      15.240  12.938   3.911  0.00  0.00    -0.200 OA
ATOM     20  OAF 29W d   1      17.145  11.929   3.735  0.00  0.00    -0.200 OA
BRANCH  18  21
ATOM     21  CAW 29W d   1      15.152  10.492   4.277  0.00  0.00     0.080 A 
ATOM     22  CAJ 29W d   1      13.809  10.319   4.357  0.00  0.00    -0.060 A 
ATOM     23  CAH 29W d   1      13.324   9.254   5.194  0.00  0.00    -0.076 A 
ATOM     24  H11 29W d   1      13.126  10.960   3.811  0.00  0.00     0.085 H 
ATOM     25  CAU 29W d   1      14.212   8.453   5.945  0.00  0.00    -0.062 A 
ATOM     26  H12 29W d   1      12.258   9.063   5.249  0.00  0.00     0.084 H 
ATOM     27  CAI 29W d   1      15.611   8.671   5.803  0.00  0.00    -0.076 A 
ATOM     28  CAK 29W d   1      16.090   9.720   4.998  0.00  0.00    -0.060 A 
ATOM     29  H16 29W d   1      16.312   8.024   6.319  0.00  0.00     0.084 H 
ATOM     30  H17 29W d   1      17.151   9.931   4.933  0.00  0.00     0.085 H 
BRANCH  25  31
ATOM     31  CAB 29W d   1      13.741   7.402   6.747  0.00  0.00    -0.051 C 
ATOM     32  H13 29W d   1      14.591   6.910   7.243  0.00  0.00     0.033 H 
ATOM     33  H14 29W d   1      13.209   6.672   6.119  0.00  0.00     0.033 H 
ATOM     34  H15 29W d   1      13.054   7.801   7.508  0.00  0.00     0.033 H 
ENDBRANCH  25  31
ENDBRANCH  18  21
ENDBRANCH  16  18
ENDBRANCH   9  14
BRANCH   1  35
ATOM     35  CA  29W d   1      17.561  10.099  -1.375  0.00  0.00     0.080 C 
ATOM     36  H1  29W d   1      17.705   9.216  -0.735  0.00  0.00     0.081 H 
ATOM     37  H2  29W d   1      17.796   9.838  -2.417  0.00  0.00     0.081 H 
BRANCH  35  38
ATOM     38  C   29W d   1      18.562  11.076  -0.960  0.00  0.00     0.191 C 
ATOM     39  O   29W d   1      18.221  12.251  -0.804  0.00  0.00    -0.647 OA
ATOM     40  OXT 29W d   1      19.714  10.600  -0.915  0.00  0.00    -0.647 OA
ENDBRANCH  35  38
ENDBRANCH   1  35
BRANCH   5  41
ATOM     41  OAR 29W d   1      12.383  10.116  -5.373  0.00  0.00    -0.356 OA
BRANCH  41  42
ATOM     42  CAA 29W d   1      11.078   9.718  -4.983  0.00  0.00     0.010 C 
ATOM     43  H5  29W d   1      10.426   9.681  -5.868  0.00  0.00     0.066 H 
ATOM     44  H6  29W d   1      10.674  10.443  -4.260  0.00  0.00     0.066 H 
ATOM     45  H7  29W d   1      11.122   8.722  -4.518  0.00  0.00     0.066 H 
ENDBRANCH  41  42
ENDBRANCH   5  41
TORSDOF 8
