REMARK  8 active torsions:
REMARK  status: ('A' for Active; 'I' for Inactive)
REMARK    1  A    between atoms: O1_1  and  C1_2 
REMARK    2  A    between atoms: C2_3  and  O1_1 
REMARK    3  A    between atoms: C4_5  and  O2_8 
REMARK    4  A    between atoms: O2_8  and  C5_7 
REMARK    5  A    between atoms: C13_19  and  O3_10 
REMARK    6  A    between atoms: C9_15  and  C8_13 
REMARK    7  A    between atoms: C16_17  and  C17_18 
REMARK    8  A    between atoms: C11_20  and  C12_21 
ROOT
ATOM      1  C2  1K0 d   1      22.454  32.755  21.197  0.00  0.00     0.073 A 
ATOM      2  C3  1K0 d   1      21.571  33.020  22.256  0.00  0.00    -0.018 A 
ATOM      3  C4  1K0 d   1      21.497  34.235  22.846  0.00  0.00     0.088 A 
ATOM      4  N1  1K0 d   1      23.088  37.620  22.437  0.00  0.00    -0.306 N 
ATOM      5  C6  1K0 d   1      22.290  35.311  22.413  0.00  0.00     0.094 A 
ATOM      6  N2  1K0 d   1      23.962  36.070  20.836  0.00  0.00    -0.229 NA
ATOM      7  C7  1K0 d   1      22.246  36.624  22.988  0.00  0.00     0.262 A 
ATOM      8  C8  1K0 d   1      23.898  37.306  21.389  0.00  0.00     0.141 A 
ATOM      9  O5  1K0 d   1      21.494  36.973  23.922  0.00  0.00    -0.267 OA
ATOM     10  C19 1K0 d   1      23.172  35.013  21.333  0.00  0.00     0.080 A 
ATOM     11  C20 1K0 d   1      23.272  33.771  20.729  0.00  0.00    -0.022 A 
ATOM     12  H4  1K0 d   1      20.927  32.224  22.613  0.00  0.00     0.092 H 
ATOM     13  H5  1K0 d   1      23.088  38.546  22.814  0.00  0.00     0.170 HD
ATOM     14  H18 1K0 d   1      23.968  33.599  19.916  0.00  0.00     0.091 H 
ENDROOT
BRANCH   8  15
ATOM     15  C9  1K0 d   1      24.759  38.367  20.842  0.00  0.00     0.011 A 
ATOM     16  C18 1K0 d   1      26.022  38.143  20.254  0.00  0.00    -0.061 A 
ATOM     17  C16 1K0 d   1      26.827  39.215  19.892  0.00  0.00    -0.027 A 
ATOM     18  H10 1K0 d   1      26.366  37.129  20.084  0.00  0.00     0.085 H 
ATOM     19  C13 1K0 d   1      26.372  40.550  20.064  0.00  0.00     0.077 A 
ATOM     20  C11 1K0 d   1      25.108  40.788  20.586  0.00  0.00    -0.027 A 
ATOM     21  C10 1K0 d   1      24.318  39.729  20.973  0.00  0.00    -0.061 A 
ATOM     22  H17 1K0 d   1      23.336  39.928  21.388  0.00  0.00     0.085 H 
BRANCH  17  23
ATOM     23  C17 1K0 d   1      28.180  38.878  19.352  0.00  0.00    -0.049 C 
ATOM     24  H11 1K0 d   1      28.297  37.785  19.313  0.00  0.00     0.033 H 
ATOM     25  H12 1K0 d   1      28.953  39.307  20.006  0.00  0.00     0.033 H 
ATOM     26  H13 1K0 d   1      28.285  39.294  18.339  0.00  0.00     0.033 H 
ENDBRANCH  17  23
BRANCH  19  27
ATOM     27  O3  1K0 d   1      27.196  41.570  19.783  0.00  0.00    -0.360 OA
ATOM     28  H9  1K0 d   1      27.453  41.526  18.869  0.00  0.00     0.217 HD
ENDBRANCH  19  27
BRANCH  20  29
ATOM     29  C12 1K0 d   1      24.635  42.203  20.739  0.00  0.00    -0.049 C 
ATOM     30  H14 1K0 d   1      23.620  42.206  21.164  0.00  0.00     0.033 H 
ATOM     31  H15 1K0 d   1      24.622  42.694  19.755  0.00  0.00     0.033 H 
ATOM     32  H16 1K0 d   1      25.316  42.747  21.411  0.00  0.00     0.033 H 
ENDBRANCH  20  29
ENDBRANCH   8  15
BRANCH   3  33
ATOM     33  O2  1K0 d   1      20.661  34.493  23.926  0.00  0.00    -0.355 OA
BRANCH  33  34
ATOM     34  C5  1K0 d   1      19.864  33.404  24.447  0.00  0.00     0.010 C 
ATOM     35  H6  1K0 d   1      19.260  33.764  25.293  0.00  0.00     0.066 H 
ATOM     36  H7  1K0 d   1      20.527  32.595  24.787  0.00  0.00     0.066 H 
ATOM     37  H8  1K0 d   1      19.199  33.026  23.657  0.00  0.00     0.066 H 
ENDBRANCH  33  34
ENDBRANCH   3  33
BRANCH   1  38
ATOM     38  O1  1K0 d   1      22.469  31.507  20.627  0.00  0.00    -0.356 OA
BRANCH  38  39
ATOM     39  C1  1K0 d   1      23.239  31.221  19.479  0.00  0.00     0.010 C 
ATOM     40  H1  1K0 d   1      23.101  30.167  19.198  0.00  0.00     0.066 H 
ATOM     41  H2  1K0 d   1      24.302  31.407  19.695  0.00  0.00     0.066 H 
ATOM     42  H3  1K0 d   1      22.915  31.867  18.650  0.00  0.00     0.066 H 
ENDBRANCH  38  39
ENDBRANCH   1  38
TORSDOF 8
