REMARK  11 active torsions:
REMARK  status: ('A' for Active; 'I' for Inactive)
REMARK    1  A    between atoms: O1_1  and  C1_2 
REMARK    2  A    between atoms: C2_3  and  O1_1 
REMARK    3  A    between atoms: C4_5  and  O2_8 
REMARK    4  A    between atoms: O2_8  and  C5_7 
REMARK    5  A    between atoms: O3_10  and  C13_20 
REMARK    6  A    between atoms: C14_21  and  O3_10 
REMARK    7  A    between atoms: C9_16  and  C8_13 
REMARK    8  A    between atoms: C15_22  and  O4_14 
REMARK    9  A    between atoms: C16_18  and  C17_19 
REMARK   10  A    between atoms: C14_21  and  C15_22 
REMARK   11  A    between atoms: C11_23  and  C12_24 
ROOT
ATOM      1  C9  1K0 d   1      -9.667  44.017  45.348  0.00  0.00     0.011 A 
ATOM      2  C18 1K0 d   1      -9.875  43.064  46.351  0.00  0.00    -0.061 A 
ATOM      3  C16 1K0 d   1     -10.551  43.382  47.548  0.00  0.00    -0.027 A 
ATOM      4  C13 1K0 d   1     -11.010  44.678  47.719  0.00  0.00     0.080 A 
ATOM      5  C11 1K0 d   1     -10.816  45.635  46.745  0.00  0.00    -0.027 A 
ATOM      6  C10 1K0 d   1     -10.145  45.317  45.549  0.00  0.00    -0.061 A 
ATOM      7  H10 1K0 d   1      -9.507  42.055  46.205  0.00  0.00     0.085 H 
ATOM      8  H21 1K0 d   1      -9.999  46.075  44.788  0.00  0.00     0.085 H 
ENDROOT
BRANCH   1   9
ATOM      9  C8  1K0 d   1      -8.896  43.727  44.095  0.00  0.00     0.141 A 
ATOM     10  N1  1K0 d   1      -8.100  42.638  44.123  0.00  0.00    -0.306 N 
ATOM     11  C7  1K0 d   1      -7.284  42.263  43.075  0.00  0.00     0.262 A 
ATOM     12  H5  1K0 d   1      -8.101  42.072  44.947  0.00  0.00     0.170 HD
ATOM     13  C6  1K0 d   1      -7.383  43.106  41.893  0.00  0.00     0.094 A 
ATOM     14  O5  1K0 d   1      -6.536  41.303  43.284  0.00  0.00    -0.267 OA
ATOM     15  C4  1K0 d   1      -6.687  42.818  40.708  0.00  0.00     0.088 A 
ATOM     16  C19 1K0 d   1      -8.197  44.264  41.958  0.00  0.00     0.080 A 
ATOM     17  C3  1K0 d   1      -6.787  43.701  39.600  0.00  0.00    -0.018 A 
ATOM     18  C2  1K0 d   1      -7.556  44.838  39.721  0.00  0.00     0.073 A 
ATOM     19  H4  1K0 d   1      -6.267  43.484  38.674  0.00  0.00     0.092 H 
ATOM     20  C20 1K0 d   1      -8.279  45.154  40.875  0.00  0.00    -0.022 A 
ATOM     21  H22 1K0 d   1      -8.881  46.054  40.932  0.00  0.00     0.091 H 
ATOM     22  N2  1K0 d   1      -8.976  44.532  43.078  0.00  0.00    -0.229 NA
BRANCH  15  23
ATOM     23  O2  1K0 d   1      -5.936  41.701  40.611  0.00  0.00    -0.355 OA
BRANCH  23  24
ATOM     24  C5  1K0 d   1      -5.415  41.253  39.321  0.00  0.00     0.010 C 
ATOM     25  H6  1K0 d   1      -4.833  40.330  39.461  0.00  0.00     0.066 H 
ATOM     26  H7  1K0 d   1      -4.767  42.034  38.896  0.00  0.00     0.066 H 
ATOM     27  H8  1K0 d   1      -6.253  41.058  38.635  0.00  0.00     0.066 H 
ENDBRANCH  23  24
ENDBRANCH  15  23
BRANCH  18  28
ATOM     28  O1  1K0 d   1      -7.597  45.738  38.664  0.00  0.00    -0.356 OA
BRANCH  28  29
ATOM     29  C1  1K0 d   1      -8.379  46.934  38.758  0.00  0.00     0.010 C 
ATOM     30  H1  1K0 d   1      -8.281  47.510  37.826  0.00  0.00     0.066 H 
ATOM     31  H2  1K0 d   1      -8.021  47.541  39.603  0.00  0.00     0.066 H 
ATOM     32  H3  1K0 d   1      -9.435  46.670  38.917  0.00  0.00     0.066 H 
ENDBRANCH  28  29
ENDBRANCH  18  28
ENDBRANCH   1   9
BRANCH   3  33
ATOM     33  C17 1K0 d   1     -10.666  42.318  48.606  0.00  0.00    -0.049 C 
ATOM     34  H11 1K0 d   1     -10.231  41.380  48.231  0.00  0.00     0.033 H 
ATOM     35  H12 1K0 d   1     -11.726  42.158  48.851  0.00  0.00     0.033 H 
ATOM     36  H13 1K0 d   1     -10.125  42.638  49.509  0.00  0.00     0.033 H 
ENDBRANCH   3  33
BRANCH   5  37
ATOM     37  C12 1K0 d   1     -11.254  47.075  46.967  0.00  0.00    -0.049 C 
ATOM     38  H18 1K0 d   1     -11.011  47.673  46.077  0.00  0.00     0.033 H 
ATOM     39  H19 1K0 d   1     -10.728  47.488  47.841  0.00  0.00     0.033 H 
ATOM     40  H20 1K0 d   1     -12.339  47.105  47.144  0.00  0.00     0.033 H 
ENDBRANCH   5  37
BRANCH   4  41
ATOM     41  O3  1K0 d   1     -11.625  45.039  48.950  0.00  0.00    -0.348 OA
BRANCH  41  42
ATOM     42  C14 1K0 d   1     -12.943  44.626  48.953  0.00  0.00     0.045 C 
ATOM     43  H14 1K0 d   1     -13.011  43.530  49.012  0.00  0.00     0.078 H 
ATOM     44  H15 1K0 d   1     -13.467  44.978  48.052  0.00  0.00     0.078 H 
BRANCH  42  45
ATOM     45  C15 1K0 d   1     -13.537  45.296  50.247  0.00  0.00     0.037 C 
ATOM     46  H16 1K0 d   1     -13.355  46.381  50.240  0.00  0.00     0.077 H 
ATOM     47  H17 1K0 d   1     -14.618  45.105  50.321  0.00  0.00     0.077 H 
BRANCH  45  48
ATOM     48  O4  1K0 d   1     -12.840  44.675  51.331  0.00  0.00    -0.399 OA
ATOM     49  H9  1K0 d   1     -11.909  44.841  51.243  0.00  0.00     0.209 HD
ENDBRANCH  45  48
ENDBRANCH  42  45
ENDBRANCH  41  42
ENDBRANCH   4  41
TORSDOF 11
