REMARK  1 active torsions:
REMARK  status: ('A' for Active; 'I' for Inactive)
REMARK    1  A    between atoms: CAI_10  and  NAA_11 
ROOT
ATOM      1  CAG 24W d   1      12.324  -4.969   0.735  0.00  0.00     0.106 C 
ATOM      2  NAH 24W d   1      11.402  -5.596   1.734  0.00  0.00    -0.071 N 
ATOM      3  CAE 24W d   1      10.382  -6.389   1.026  0.00  0.00     0.086 C 
ATOM      4  CAF 24W d   1       9.519  -5.486   0.149  0.00  0.00    -0.016 C 
ATOM      5  CAK 24W d   1      10.315  -4.647  -0.708  0.00  0.00    -0.022 A 
ATOM      6  CAJ 24W d   1      11.671  -4.378  -0.403  0.00  0.00    -0.024 A 
ATOM      7  CAD 24W d   1      12.380  -3.528  -1.274  0.00  0.00    -0.075 A 
ATOM      8  CAB 24W d   1      11.776  -2.949  -2.401  0.00  0.00    -0.080 A 
ATOM      9  CAC 24W d   1      10.412  -3.190  -2.686  0.00  0.00    -0.057 A 
ATOM     10  CAI 24W d   1       9.717  -4.043  -1.833  0.00  0.00     0.032 A 
ATOM     11  H   24W d   1      13.011  -5.746   0.369  0.00  0.00     0.083 H 
ATOM     12  H   24W d   1      12.898  -4.182   1.246  0.00  0.00     0.083 H 
ATOM     13  H   24W d   1      10.952  -4.875   2.275  0.00  0.00     0.277 HD
ATOM     14  H   24W d   1      11.929  -6.197   2.348  0.00  0.00     0.277 HD
ATOM     15  H   24W d   1       9.742  -6.897   1.763  0.00  0.00     0.076 H 
ATOM     16  H   24W d   1      10.880  -7.139   0.394  0.00  0.00     0.076 H 
ATOM     17  H   24W d   1       8.901  -4.847   0.797  0.00  0.00     0.042 H 
ATOM     18  H   24W d   1       8.867  -6.115  -0.475  0.00  0.00     0.042 H 
ATOM     19  H   24W d   1      13.423  -3.315  -1.068  0.00  0.00     0.084 H 
ATOM     20  H   24W d   1      12.359  -2.313  -3.057  0.00  0.00     0.083 H 
ATOM     21  H   24W d   1       9.925  -2.728  -3.537  0.00  0.00     0.086 H 
ENDROOT
BRANCH  10  22
ATOM     22  NAA 24W d   1       8.387  -4.315  -2.083  0.00  0.00    -0.399 N 
ATOM     23  H   24W d   1       7.864  -4.945  -1.458  0.00  0.00     0.156 HD
ATOM     24  H   24W d   1       7.918  -3.888  -2.894  0.00  0.00     0.156 HD
ENDBRANCH  10  22
TORSDOF 1
