REMARK  3 active torsions:
REMARK  status: ('A' for Active; 'I' for Inactive)
REMARK    1  A    between atoms: C1_1  and  C2_2 
REMARK    2  A    between atoms: C6_6  and  N7_7 
REMARK    3  A    between atoms: C8_8  and  N9_9 
ROOT
ATOM      1  C2  2ZV d   1       4.613 -28.948 -34.886  0.00  0.00    -0.024 A 
ATOM      2  C3  2ZV d   1       4.458 -28.401 -36.157  0.00  0.00    -0.058 A 
ATOM      3  C4  2ZV d   1       3.893 -27.138 -36.293  0.00  0.00     0.005 A 
ATOM      4  N5  2ZV d   1       3.492 -26.449 -35.197  0.00  0.00    -0.241 NA
ATOM      5  C6  2ZV d   1       3.619 -26.948 -33.951  0.00  0.00     0.154 A 
ATOM      6  C8  2ZV d   1       4.178 -28.224 -33.757  0.00  0.00     0.154 A 
ATOM      7  H   2ZV d   1       4.775 -28.955 -37.033  0.00  0.00     0.086 H 
ATOM      8  H   2ZV d   1       3.773 -26.703 -37.279  0.00  0.00     0.114 H 
ENDROOT
BRANCH   1   9
ATOM      9  C1  2ZV d   1       5.233 -30.328 -34.794  0.00  0.00    -0.049 C 
ATOM     10  H   2ZV d   1       5.489 -30.683 -35.803  0.00  0.00     0.033 H 
ATOM     11  H   2ZV d   1       4.516 -31.022 -34.332  0.00  0.00     0.033 H 
ATOM     12  H   2ZV d   1       6.144 -30.280 -34.180  0.00  0.00     0.033 H 
ENDBRANCH   1   9
BRANCH   6  13
ATOM     13  N9  2ZV d   1       4.317 -28.711 -32.500  0.00  0.00    -0.111 N 
ATOM     14  O10 2ZV d   1       5.249 -29.471 -32.260  0.00  0.00    -0.532 OA
ATOM     15  O11 2ZV d   1       3.582 -28.393 -31.570  0.00  0.00    -0.532 OA
ENDBRANCH   6  13
BRANCH   5  16
ATOM     16  N7  2ZV d   1       3.176 -26.222 -32.909  0.00  0.00    -0.382 N 
ATOM     17  H   2ZV d   1       3.265 -26.589 -31.951  0.00  0.00     0.157 HD
ATOM     18  H   2ZV d   1       2.747 -25.299 -33.069  0.00  0.00     0.157 HD
ENDBRANCH   5  16
TORSDOF 3
