REMARK  1 active torsions:
REMARK  status: ('A' for Active; 'I' for Inactive)
REMARK    1  A    between atoms: N2_2  and  C4_4 
ROOT
ATOM      1  C4  2ZM d   1       4.199 -28.195 -31.800  0.00  0.00     0.105 A 
ATOM      2  C5  2ZM d   1       3.509 -26.982 -31.911  0.00  0.00    -0.049 A 
ATOM      3  C6  2ZM d   1       3.253 -26.385 -33.140  0.00  0.00    -0.051 A 
ATOM      4  C7  2ZM d   1       3.724 -27.068 -34.260  0.00  0.00     0.085 A 
ATOM      5  N8  2ZM d   1       3.627 -26.762 -35.567  0.00  0.00    -0.242 NA
ATOM      6  C9  2ZM d   1       4.232 -27.748 -36.268  0.00  0.00     0.065 A 
ATOM      7  N10 2ZM d   1       4.716 -28.680 -35.421  0.00  0.00    -0.349 N 
ATOM      8  C11 2ZM d   1       4.408 -28.286 -34.164  0.00  0.00     0.064 A 
ATOM      9  C12 2ZM d   1       4.671 -28.883 -32.928  0.00  0.00    -0.023 A 
ATOM     10  H   2ZM d   1       3.163 -26.492 -31.008  0.00  0.00     0.087 H 
ATOM     11  H   2ZM d   1       2.719 -25.445 -33.222  0.00  0.00     0.087 H 
ATOM     12  H   2ZM d   1       4.316 -27.784 -37.353  0.00  0.00     0.143 H 
ATOM     13  H   2ZM d   1       5.227 -29.535 -35.683  0.00  0.00     0.167 HD
ATOM     14  H   2ZM d   1       5.207 -29.821 -32.846  0.00  0.00     0.090 H 
ENDROOT
BRANCH   1  15
ATOM     15  N2  2ZM d   1       4.426 -28.714 -30.575  0.00  0.00    -0.116 N 
ATOM     16  O1  2ZM d   1       4.323 -28.004 -29.582  0.00  0.00    -0.532 OA
ATOM     17  O3  2ZM d   1       4.749 -29.888 -30.432  0.00  0.00    -0.532 OA
ENDBRANCH   1  15
TORSDOF 1
