REMARK  3 active torsions:
REMARK  status: ('A' for Active; 'I' for Inactive)
REMARK    1  A    between atoms: C8_8  and  C9_9 
REMARK    2  A    between atoms: C9_9  and  O10_10 
REMARK    3  A    between atoms: O10_10  and  C11_11 
ROOT
ATOM      1  C9  2ZT d   1       3.001  16.145  39.956  0.00  0.00     0.066 C 
ATOM      2  H   2ZT d   1       2.098  16.490  40.481  0.00  0.00     0.084 H 
ATOM      3  H   2ZT d   1       3.894  16.495  40.494  0.00  0.00     0.084 H 
ENDROOT
BRANCH   1   4
ATOM      4  C8  2ZT d   1       3.010  16.739  38.560  0.00  0.00     0.059 A 
ATOM      5  C7  2ZT d   1       2.415  16.071  37.489  0.00  0.00    -0.056 A 
ATOM      6  C6  2ZT d   1       2.432  16.647  36.219  0.00  0.00    -0.069 A 
ATOM      7  H   2ZT d   1       1.942  15.108  37.644  0.00  0.00     0.086 H 
ATOM      8  C5  2ZT d   1       3.041  17.886  36.032  0.00  0.00    -0.007 A 
ATOM      9  H   2ZT d   1       1.974  16.133  35.382  0.00  0.00     0.085 H 
ATOM     10  C4  2ZT d   1       3.079  18.481  34.775  0.00  0.00    -0.071 A 
ATOM     11  C22 2ZT d   1       3.631  18.522  37.123  0.00  0.00     0.067 A 
ATOM     12  C3  2ZT d   1       3.714  19.715  34.613  0.00  0.00    -0.082 A 
ATOM     13  H   2ZT d   1       2.618  17.990  33.926  0.00  0.00     0.084 H 
ATOM     14  C2  2ZT d   1       4.304  20.358  35.701  0.00  0.00    -0.081 A 
ATOM     15  H   2ZT d   1       3.748  20.177  33.633  0.00  0.00     0.083 H 
ATOM     16  C1  2ZT d   1       4.269  19.759  36.956  0.00  0.00    -0.054 A 
ATOM     17  H   2ZT d   1       4.787  21.319  35.569  0.00  0.00     0.083 H 
ATOM     18  H   2ZT d   1       4.735  20.248  37.804  0.00  0.00     0.087 H 
ATOM     19  N21 2ZT d   1       3.598  17.932  38.344  0.00  0.00    -0.251 NA
ENDBRANCH   1   4
BRANCH   1  20
ATOM     20  O10 2ZT d   1       3.005  14.689  39.941  0.00  0.00    -0.345 OA
BRANCH  20  21
ATOM     21  C11 2ZT d   1       3.469  13.860  40.881  0.00  0.00     0.071 A 
ATOM     22  C12 2ZT d   1       3.513  14.221  42.226  0.00  0.00    -0.022 A 
ATOM     23  C13 2ZT d   1       3.997  13.343  43.200  0.00  0.00     0.069 A 
ATOM     24  H   2ZT d   1       3.164  15.204  42.523  0.00  0.00     0.091 H 
ATOM     25  N14 2ZT d   1       4.038  13.721  44.506  0.00  0.00    -0.260 NA
ATOM     26  C18 2ZT d   1       4.445  12.081  42.828  0.00  0.00    -0.007 A 
ATOM     27  C15 2ZT d   1       4.506  12.873  45.463  0.00  0.00     0.003 A 
ATOM     28  C16 2ZT d   1       4.960  11.606  45.104  0.00  0.00    -0.065 A 
ATOM     29  H   2ZT d   1       4.525  13.183  46.502  0.00  0.00     0.114 H 
ATOM     30  C17 2ZT d   1       4.927  11.202  43.783  0.00  0.00    -0.069 A 
ATOM     31  H   2ZT d   1       5.341  10.934  45.864  0.00  0.00     0.085 H 
ATOM     32  H   2ZT d   1       5.272  10.214  43.499  0.00  0.00     0.085 H 
ATOM     33  C19 2ZT d   1       4.403  11.717  41.484  0.00  0.00    -0.068 A 
ATOM     34  C20 2ZT d   1       3.915  12.601  40.529  0.00  0.00    -0.050 A 
ATOM     35  H   2ZT d   1       4.753  10.737  41.181  0.00  0.00     0.085 H 
ATOM     36  H   2ZT d   1       3.884  12.297  39.489  0.00  0.00     0.087 H 
ENDBRANCH  20  21
ENDBRANCH   1  20
TORSDOF 3
