REMARK  1 active torsions:
REMARK  status: ('A' for Active; 'I' for Inactive)
REMARK    1  A    between atoms: C3_3  and  N11_11 
ROOT
ATOM      1  C1  2ZQ d   1       3.808 -27.722 -34.992  0.00  0.00     0.099 A 
ATOM      2  C2  2ZQ d   1       4.267 -28.734 -34.140  0.00  0.00    -0.005 A 
ATOM      3  C3  2ZQ d   1       3.970 -27.849 -36.375  0.00  0.00     0.132 A 
ATOM      4  C4  2ZQ d   1       4.885 -29.874 -34.645  0.00  0.00    -0.071 A 
ATOM      5  C5  2ZQ d   1       4.593 -28.997 -36.874  0.00  0.00    -0.049 A 
ATOM      6  C6  2ZQ d   1       5.048 -30.003 -36.022  0.00  0.00    -0.080 A 
ATOM      7  C7  2ZQ d   1       3.039 -26.475 -33.135  0.00  0.00     0.003 A 
ATOM      8  C8  2ZQ d   1       3.479 -27.459 -32.251  0.00  0.00    -0.065 A 
ATOM      9  N9  2ZQ d   1       3.208 -26.622 -34.475  0.00  0.00    -0.258 NA
ATOM     10  C10 2ZQ d   1       4.098 -28.601 -32.761  0.00  0.00    -0.069 A 
ATOM     11  H   2ZQ d   1       5.235 -30.651 -33.975  0.00  0.00     0.084 H 
ATOM     12  H   2ZQ d   1       4.725 -29.107 -37.944  0.00  0.00     0.087 H 
ATOM     13  H   2ZQ d   1       5.528 -30.884 -36.431  0.00  0.00     0.083 H 
ATOM     14  H   2ZQ d   1       2.557 -25.584 -32.749  0.00  0.00     0.114 H 
ATOM     15  H   2ZQ d   1       3.342 -27.339 -31.182  0.00  0.00     0.085 H 
ATOM     16  H   2ZQ d   1       4.445 -29.379 -32.091  0.00  0.00     0.085 H 
ENDROOT
BRANCH   3  17
ATOM     17  N11 2ZQ d   1       3.539 -26.893 -37.220  0.00  0.00    -0.113 N 
ATOM     18  O12 2ZQ d   1       2.823 -27.189 -38.166  0.00  0.00    -0.532 OA
ATOM     19  O13 2ZQ d   1       3.844 -25.719 -37.077  0.00  0.00    -0.532 OA
ENDBRANCH   3  17
TORSDOF 1
