REMARK  11 active torsions:
REMARK  status: ('A' for Active; 'I' for Inactive)
REMARK    1  A    between atoms: C_2  and  CA_4 
REMARK    2  A    between atoms: CA_4  and  N_5 
REMARK    3  A    between atoms: CAW_9  and  OAT_10 
REMARK    4  A    between atoms: OAT_10  and  CAA_11 
REMARK    5  A    between atoms: CAZ_15  and  CAV_16 
REMARK       I    between atoms: CAV_16  and  NAS_18 
REMARK    6  A    between atoms: NAS_18  and  SBE_19 
REMARK    7  A    between atoms: SBE_19  and  CAY_22 
REMARK    8  A    between atoms: CAX_25  and  CBD_26 
REMARK    9  A    between atoms: CBD_26  and  CAC_27 
REMARK   10  A    between atoms: CBD_26  and  CAD_28 
REMARK   11  A    between atoms: CBD_26  and  CAB_29 
ROOT
ATOM      1  CAV 2DJ d   1      16.091  10.641   1.257  0.00  0.00     0.281 C 
ATOM      2  OAF 2DJ d   1      17.051   9.994   1.701  0.00  0.00    -0.265 OA
ATOM      3  NAS 2DJ d   1      15.549  11.671   1.908  0.00  0.00    -0.245 N 
ATOM      4  H10 2DJ d   1      14.797  12.211   1.531  0.00  0.00     0.182 HD
ENDROOT
BRANCH   3   5
ATOM      5  SBE 2DJ d   1      16.205  11.978   3.357  0.00  0.00     0.265 S 
ATOM      6  OAG 2DJ d   1      15.817  13.408   3.826  0.00  0.00    -0.200 OA
ATOM      7  OAH 2DJ d   1      17.728  11.811   3.167  0.00  0.00    -0.200 OA
BRANCH   5   8
ATOM      8  CAY 2DJ d   1      15.783  10.838   4.551  0.00  0.00     0.080 A 
ATOM      9  CAL 2DJ d   1      14.725  11.182   5.362  0.00  0.00    -0.060 A 
ATOM     10  CAJ 2DJ d   1      14.336  10.343   6.381  0.00  0.00    -0.075 A 
ATOM     11  H11 2DJ d   1      14.198  12.115   5.198  0.00  0.00     0.085 H 
ATOM     12  CAX 2DJ d   1      15.010   9.143   6.587  0.00  0.00    -0.051 A 
ATOM     13  H12 2DJ d   1      13.506  10.616   7.022  0.00  0.00     0.084 H 
ATOM     14  CAK 2DJ d   1      16.103   8.777   5.766  0.00  0.00    -0.075 A 
ATOM     15  CAM 2DJ d   1      16.495   9.643   4.739  0.00  0.00    -0.060 A 
ATOM     16  H22 2DJ d   1      16.627   7.842   5.930  0.00  0.00     0.084 H 
ATOM     17  H23 2DJ d   1      17.334   9.395   4.099  0.00  0.00     0.085 H 
BRANCH  12  18
ATOM     18  CBD 2DJ d   1      14.512   8.383   7.631  0.00  0.00    -0.024 C 
BRANCH  18  19
ATOM     19  CAC 2DJ d   1      13.620   7.274   7.089  0.00  0.00    -0.066 C 
ATOM     20  H13 2DJ d   1      13.229   6.676   7.926  0.00  0.00     0.028 H 
ATOM     21  H14 2DJ d   1      14.205   6.628   6.418  0.00  0.00     0.028 H 
ATOM     22  H15 2DJ d   1      12.781   7.717   6.532  0.00  0.00     0.028 H 
ENDBRANCH  18  19
BRANCH  18  23
ATOM     23  CAD 2DJ d   1      15.626   7.752   8.452  0.00  0.00    -0.066 C 
ATOM     24  H16 2DJ d   1      16.280   8.542   8.851  0.00  0.00     0.028 H 
ATOM     25  H17 2DJ d   1      16.214   7.077   7.814  0.00  0.00     0.028 H 
ATOM     26  H18 2DJ d   1      15.190   7.182   9.285  0.00  0.00     0.028 H 
ENDBRANCH  18  23
BRANCH  18  27
ATOM     27  CAB 2DJ d   1      13.719   9.350   8.519  0.00  0.00    -0.066 C 
ATOM     28  H19 2DJ d   1      12.911   9.810   7.930  0.00  0.00     0.028 H 
ATOM     29  H20 2DJ d   1      14.390  10.135   8.897  0.00  0.00     0.028 H 
ATOM     30  H21 2DJ d   1      13.287   8.798   9.367  0.00  0.00     0.028 H 
ENDBRANCH  18  27
ENDBRANCH  12  18
ENDBRANCH   5   8
ENDBRANCH   3   5
BRANCH   1  31
ATOM     31  CAZ 2DJ d   1      15.630  10.479   0.015  0.00  0.00     0.105 A 
ATOM     32  N   2DJ d   1      16.422  10.264  -1.056  0.00  0.00    -0.332 N 
ATOM     33  CBB 2DJ d   1      15.589  10.207  -2.112  0.00  0.00     0.046 A 
ATOM     34  CAO 2DJ d   1      15.856   9.986  -3.409  0.00  0.00    -0.053 A 
ATOM     35  CBA 2DJ d   1      14.316  10.422  -1.695  0.00  0.00    -0.004 A 
ATOM     36  CAN 2DJ d   1      14.846   9.975  -4.367  0.00  0.00    -0.049 A 
ATOM     37  H3  2DJ d   1      16.881   9.812  -3.717  0.00  0.00     0.087 H 
ATOM     38  CAW 2DJ d   1      13.532  10.174  -3.959  0.00  0.00     0.069 A 
ATOM     39  H4  2DJ d   1      15.080   9.814  -5.413  0.00  0.00     0.087 H 
ATOM     40  CAP 2DJ d   1      13.293  10.417  -2.581  0.00  0.00    -0.039 A 
ATOM     41  H8  2DJ d   1      12.282  10.600  -2.235  0.00  0.00     0.089 H 
ATOM     42  CAQ 2DJ d   1      14.353  10.607  -0.369  0.00  0.00    -0.039 A 
ATOM     43  H9  2DJ d   1      13.503  10.822   0.277  0.00  0.00     0.088 H 
BRANCH  32  44
ATOM     44  CA  2DJ d   1      17.917  10.024  -1.169  0.00  0.00     0.080 C 
ATOM     45  H1  2DJ d   1      18.161   9.118  -0.595  0.00  0.00     0.081 H 
ATOM     46  H2  2DJ d   1      18.156   9.861  -2.230  0.00  0.00     0.081 H 
BRANCH  44  47
ATOM     47  C   2DJ d   1      18.784  11.142  -0.663  0.00  0.00     0.191 C 
ATOM     48  O   2DJ d   1      19.997  10.867  -0.413  0.00  0.00    -0.647 OA
ATOM     49  OXT 2DJ d   1      18.232  12.258  -0.591  0.00  0.00    -0.647 OA
ENDBRANCH  44  47
ENDBRANCH  32  44
BRANCH  38  50
ATOM     50  OAT 2DJ d   1      12.569  10.166  -4.936  0.00  0.00    -0.356 OA
BRANCH  50  51
ATOM     51  CAA 2DJ d   1      11.463   9.288  -4.836  0.00  0.00     0.010 C 
ATOM     52  H5  2DJ d   1      10.805   9.427  -5.706  0.00  0.00     0.066 H 
ATOM     53  H6  2DJ d   1      10.903   9.507  -3.915  0.00  0.00     0.066 H 
ATOM     54  H7  2DJ d   1      11.821   8.248  -4.809  0.00  0.00     0.066 H 
ENDBRANCH  50  51
ENDBRANCH  38  50
ENDBRANCH   1  31
TORSDOF 11
