REMARK  7 active torsions:
REMARK  status: ('A' for Active; 'I' for Inactive)
REMARK    1  A    between atoms: C_2  and  CA_4 
REMARK    2  A    between atoms: CA_4  and  N_5 
REMARK    3  A    between atoms: CAW_9  and  OAT_10 
REMARK    4  A    between atoms: OAT_10  and  CAA_11 
REMARK    5  A    between atoms: CAY_15  and  CAV_16 
REMARK       I    between atoms: CAV_16  and  NAS_18 
REMARK    6  A    between atoms: NAS_18  and  SBE_19 
REMARK    7  A    between atoms: SBE_19  and  CAX_22 
ROOT
ATOM      1  N   2DW d   1      16.147  10.455  -1.365  0.00  0.00    -0.332 N 
ATOM      2  CBC 2DW d   1      15.357  10.351  -2.450  0.00  0.00     0.046 A 
ATOM      3  CAN 2DW d   1      15.677  10.111  -3.767  0.00  0.00    -0.053 A 
ATOM      4  CAI 2DW d   1      14.661  10.032  -4.729  0.00  0.00    -0.049 A 
ATOM      5  CAW 2DW d   1      13.333  10.214  -4.343  0.00  0.00     0.069 A 
ATOM      6  CAO 2DW d   1      13.066  10.495  -2.968  0.00  0.00    -0.039 A 
ATOM      7  CBB 2DW d   1      14.080  10.549  -2.044  0.00  0.00    -0.004 A 
ATOM      8  CAQ 2DW d   1      14.122  10.766  -0.676  0.00  0.00    -0.039 A 
ATOM      9  CAY 2DW d   1      15.422  10.711  -0.259  0.00  0.00     0.105 A 
ATOM     10  H3  2DW d   1      16.713   9.983  -4.059  0.00  0.00     0.087 H 
ATOM     11  H4  2DW d   1      14.905   9.831  -5.766  0.00  0.00     0.087 H 
ATOM     12  H8  2DW d   1      12.045  10.669  -2.649  0.00  0.00     0.089 H 
ATOM     13  H9  2DW d   1      13.259  10.950  -0.037  0.00  0.00     0.088 H 
ENDROOT
BRANCH   9  14
ATOM     14  CAV 2DW d   1      15.978  10.879   0.999  0.00  0.00     0.281 C 
ATOM     15  OAC 2DW d   1      17.128  10.523   1.298  0.00  0.00    -0.265 OA
ATOM     16  NAS 2DW d   1      15.270  11.589   1.867  0.00  0.00    -0.245 N 
ATOM     17  H10 2DW d   1      14.376  11.925   1.570  0.00  0.00     0.182 HD
BRANCH  16  18
ATOM     18  SBE 2DW d   1      15.759  11.963   3.414  0.00  0.00     0.265 S 
ATOM     19  OAD 2DW d   1      15.138  13.264   3.781  0.00  0.00    -0.200 OA
ATOM     20  OAE 2DW d   1      17.222  12.308   3.628  0.00  0.00    -0.200 OA
BRANCH  18  21
ATOM     21  CAX 2DW d   1      15.278  10.853   4.405  0.00  0.00     0.080 A 
ATOM     22  CAP 2DW d   1      16.206  10.205   5.217  0.00  0.00    -0.050 A 
ATOM     23  CBA 2DW d   1      15.718   9.261   6.135  0.00  0.00    -0.025 A 
ATOM     24  H11 2DW d   1      17.266  10.421   5.143  0.00  0.00     0.087 H 
ATOM     25  CAL 2DW d   1      16.626   8.582   6.966  0.00  0.00    -0.072 A 
ATOM     26  CAZ 2DW d   1      14.335   8.987   6.217  0.00  0.00    -0.026 A 
ATOM     27  CAH 2DW d   1      16.109   7.658   7.852  0.00  0.00    -0.082 A 
ATOM     28  H12 2DW d   1      17.691   8.776   6.913  0.00  0.00     0.084 H 
ATOM     29  CAG 2DW d   1      14.729   7.384   7.932  0.00  0.00    -0.082 A 
ATOM     30  H13 2DW d   1      16.788   7.125   8.508  0.00  0.00     0.083 H 
ATOM     31  CAK 2DW d   1      13.831   8.039   7.111  0.00  0.00    -0.072 A 
ATOM     32  H14 2DW d   1      14.368   6.652   8.645  0.00  0.00     0.083 H 
ATOM     33  H15 2DW d   1      12.770   7.824   7.159  0.00  0.00     0.084 H 
ATOM     34  CAM 2DW d   1      13.448   9.628   5.363  0.00  0.00    -0.071 A 
ATOM     35  CAJ 2DW d   1      13.934  10.577   4.455  0.00  0.00    -0.059 A 
ATOM     36  H16 2DW d   1      12.390   9.396   5.399  0.00  0.00     0.084 H 
ATOM     37  H17 2DW d   1      13.249  11.093   3.792  0.00  0.00     0.085 H 
ENDBRANCH  18  21
ENDBRANCH  16  18
ENDBRANCH   9  14
BRANCH   1  38
ATOM     38  CA  2DW d   1      17.612  10.198  -1.482  0.00  0.00     0.080 C 
ATOM     39  H1  2DW d   1      17.791   9.258  -0.939  0.00  0.00     0.081 H 
ATOM     40  H2  2DW d   1      17.800  10.044  -2.555  0.00  0.00     0.081 H 
BRANCH  38  41
ATOM     41  C   2DW d   1      18.665  11.126  -1.025  0.00  0.00     0.191 C 
ATOM     42  O   2DW d   1      19.830  10.614  -0.991  0.00  0.00    -0.647 OA
ATOM     43  OXT 2DW d   1      18.344  12.285  -0.758  0.00  0.00    -0.647 OA
ENDBRANCH  38  41
ENDBRANCH   1  38
BRANCH   5  44
ATOM     44  OAT 2DW d   1      12.437  10.071  -5.377  0.00  0.00    -0.356 OA
BRANCH  44  45
ATOM     45  CAA 2DW d   1      11.074   9.693  -4.991  0.00  0.00     0.010 C 
ATOM     46  H5  2DW d   1      10.448   9.608  -5.892  0.00  0.00     0.066 H 
ATOM     47  H6  2DW d   1      10.655  10.462  -4.325  0.00  0.00     0.066 H 
ATOM     48  H7  2DW d   1      11.096   8.726  -4.467  0.00  0.00     0.066 H 
ENDBRANCH  44  45
ENDBRANCH   5  44
TORSDOF 7
