REMARK  2 active torsions:
REMARK  status: ('A' for Active; 'I' for Inactive)
REMARK    1  A    between atoms: C2'_10  and  O2'_11 
REMARK    2  A    between atoms: C1'_12  and  N9_13 
ROOT
ATOM      1  PA  PCG d   1      12.899  -0.802  88.985  0.00  0.00     0.408 P 
ATOM      2  O1A PCG d   1      11.616  -0.160  88.499  0.00  0.00    -0.624 OA
ATOM      3  O2A PCG d   1      12.833  -1.516  90.288  0.00  0.00    -0.624 OA
ATOM      4  O5' PCG d   1      13.987   0.292  89.071  0.00  0.00    -0.287 OA
ATOM      5  C5' PCG d   1      15.295  -0.058  89.137  0.00  0.00     0.058 C 
ATOM      6  C4' PCG d   1      15.601  -0.985  87.947  0.00  0.00     0.090 C 
ATOM      7  O4' PCG d   1      16.981  -1.478  87.768  0.00  0.00    -0.353 OA
ATOM      8  C3' PCG d   1      14.809  -2.109  88.020  0.00  0.00     0.106 C 
ATOM      9  O3' PCG d   1      13.388  -1.806  87.855  0.00  0.00    -0.279 OA
ATOM     10  C2' PCG d   1      15.428  -3.009  86.874  0.00  0.00     0.106 C 
ATOM     11  C1' PCG d   1      16.781  -2.633  86.815  0.00  0.00     0.139 C 
ATOM     12  H   PCG d   1      15.493  -0.586  90.082  0.00  0.00     0.079 H 
ATOM     13  H   PCG d   1      15.925   0.842  89.081  0.00  0.00     0.079 H 
ATOM     14  H   PCG d   1      15.339  -0.421  87.040  0.00  0.00     0.090 H 
ATOM     15  H   PCG d   1      14.936  -2.603  88.994  0.00  0.00     0.092 H 
ATOM     16  H   PCG d   1      15.335  -4.078  87.116  0.00  0.00     0.093 H 
ATOM     17  H   PCG d   1      16.984  -2.295  85.788  0.00  0.00     0.122 H 
ENDROOT
BRANCH  11  18
ATOM     18  N9  PCG d   1      17.749  -3.640  87.133  0.00  0.00    -0.295 N 
ATOM     19  C8  PCG d   1      18.703  -4.170  86.298  0.00  0.00     0.071 A 
ATOM     20  N7  PCG d   1      19.368  -5.168  86.883  0.00  0.00    -0.234 NA
ATOM     21  H   PCG d   1      18.893  -3.819  85.285  0.00  0.00     0.144 H 
ATOM     22  C5  PCG d   1      18.822  -5.277  88.139  0.00  0.00     0.171 A 
ATOM     23  C6  PCG d   1      19.113  -6.168  89.228  0.00  0.00     0.292 A 
ATOM     24  C4  PCG d   1      17.814  -4.351  88.268  0.00  0.00     0.161 A 
ATOM     25  O6  PCG d   1      19.991  -7.065  89.227  0.00  0.00    -0.265 OA
ATOM     26  N1  PCG d   1      18.338  -5.969  90.345  0.00  0.00    -0.154 N 
ATOM     27  C2  PCG d   1      17.317  -5.035  90.428  0.00  0.00     0.680 A 
ATOM     28  H   PCG d   1      18.522  -6.534  91.149  0.00  0.00     0.187 HD
ATOM     29  N2  PCG d   1      16.608  -4.943  91.568  0.00  0.00    -0.234 N 
ATOM     30  N3  PCG d   1      17.009  -4.167  89.412  0.00  0.00    -0.174 N 
ATOM     31  H   PCG d   1      15.846  -4.254  91.646  0.00  0.00     0.174 HD
ATOM     32  H   PCG d   1      16.827  -5.561  92.362  0.00  0.00     0.174 HD
ATOM     33  H   PCG d   1      16.267  -3.455  89.477  0.00  0.00     0.186 HD
ENDBRANCH  11  18
BRANCH  10  34
ATOM     34  O2' PCG d   1      14.751  -2.732  85.648  0.00  0.00    -0.388 OA
ATOM     35  H   PCG d   1      13.827  -2.929  85.746  0.00  0.00     0.210 HD
ENDBRANCH  10  34
TORSDOF 2
