REMARK  6 active torsions:
REMARK  status: ('A' for Active; 'I' for Inactive)
REMARK    1  A    between atoms: C7_2  and  C2_4 
REMARK    2  A    between atoms: C3_5  and  O9_9 
REMARK    3  A    between atoms: C1_10  and  C8_11 
REMARK    4  A    between atoms: C8_11  and  C9_13 
REMARK    5  A    between atoms: C9_13  and  C10_14 
REMARK    6  A    between atoms: C10_14  and  C11_15 
ROOT
ATOM      1  C2  164 d   1      25.672  75.973  11.230  0.00  0.00     0.087 C 
ATOM      2  C3  164 d   1      26.144  77.336  11.749  0.00  0.00     0.069 C 
ATOM      3  C4  164 d   1      27.082  77.243  12.906  0.00  0.00    -0.075 C 
ATOM      4  C5  164 d   1      27.872  76.177  13.062  0.00  0.00    -0.084 C 
ATOM      5  C6  164 d   1      27.803  75.068  12.137  0.00  0.00    -0.072 C 
ATOM      6  C1  164 d   1      26.779  74.943  11.261  0.00  0.00     0.005 C 
ATOM      7  H   164 d   1      25.393  76.105  10.174  0.00  0.00     0.068 H 
ATOM      8  H   164 d   1      25.252  77.876  12.099  0.00  0.00     0.091 H 
ATOM      9  H   164 d   1      27.123  78.054  13.632  0.00  0.00     0.080 H 
ATOM     10  H   164 d   1      28.574  76.143  13.893  0.00  0.00     0.083 H 
ATOM     11  H   164 d   1      28.592  74.317  12.145  0.00  0.00     0.084 H 
ENDROOT
BRANCH   6  12
ATOM     12  C8  164 d   1      26.767  73.821  10.306  0.00  0.00     0.157 C 
ATOM     13  O3  164 d   1      25.786  73.752   9.523  0.00  0.00    -0.293 OA
BRANCH  12  14
ATOM     14  C9  164 d   1      27.887  72.800  10.293  0.00  0.00     0.004 C 
ATOM     15  H   164 d   1      27.546  71.912   9.742  0.00  0.00     0.045 H 
ATOM     16  H   164 d   1      28.119  72.520  11.331  0.00  0.00     0.045 H 
BRANCH  14  17
ATOM     17  C10 164 d   1      29.136  73.313   9.646  0.00  0.00     0.022 C 
ATOM     18  H   164 d   1      29.591  74.038  10.336  0.00  0.00     0.049 H 
ATOM     19  H   164 d   1      28.841  73.826   8.719  0.00  0.00     0.049 H 
BRANCH  17  20
ATOM     20  C11 164 d   1      30.204  72.296   9.284  0.00  0.00     0.172 C 
ATOM     21  O5  164 d   1      29.931  71.085   9.412  0.00  0.00    -0.648 OA
ATOM     22  O4  164 d   1      31.242  72.880   8.878  0.00  0.00    -0.648 OA
ENDBRANCH  17  20
ENDBRANCH  14  17
ENDBRANCH  12  14
ENDBRANCH   6  12
BRANCH   1  23
ATOM     23  C7  164 d   1      24.410  75.530  11.973  0.00  0.00     0.184 C 
ATOM     24  O1  164 d   1      23.422  76.248  11.776  0.00  0.00    -0.647 OA
ATOM     25  O2  164 d   1      24.512  74.481  12.624  0.00  0.00    -0.647 OA
ENDBRANCH   1  23
BRANCH   2  26
ATOM     26  O9  164 d   1      26.712  78.078  10.715  0.00  0.00    -0.391 OA
ATOM     27  H   164 d   1      26.906  78.954  11.025  0.00  0.00     0.210 HD
ENDBRANCH   2  26
TORSDOF 6
