REMARK  1 active torsions:
REMARK  status: ('A' for Active; 'I' for Inactive)
REMARK    1  A    between atoms: CAN_3  and  NAO_4 
ROOT
ATOM      1  NAO 2J9 d   1       3.556  -3.007  42.046  0.00  0.00    -0.358 N 
ATOM      2  CAI 2J9 d   1       4.016  -4.021  41.071  0.00  0.00     0.064 C 
ATOM      3  NAJ 2J9 d   1       3.507  -3.725  39.703  0.00  0.00    -0.298 N 
ATOM      4  SAP 2J9 d   1       1.863  -3.813  39.676  0.00  0.00     0.262 S 
ATOM      5  OAA 2J9 d   1       1.413  -5.267  39.786  0.00  0.00    -0.200 OA
ATOM      6  OAB 2J9 d   1       1.332  -3.155  38.417  0.00  0.00    -0.200 OA
ATOM      7  CAM 2J9 d   1       1.318  -2.966  41.110  0.00  0.00     0.108 A 
ATOM      8  CAL 2J9 d   1       2.245  -2.660  42.151  0.00  0.00     0.055 A 
ATOM      9  CAE 2J9 d   1       1.792  -1.994  43.304  0.00  0.00    -0.053 A 
ATOM     10  CAD 2J9 d   1       0.445  -1.638  43.419  0.00  0.00    -0.043 A 
ATOM     11  CAK 2J9 d   1      -0.454  -1.952  42.396  0.00  0.00     0.118 A 
ATOM     12  FAC 2J9 d   1      -1.759  -1.597  42.549  0.00  0.00    -0.206 F 
ATOM     13  CAF 2J9 d   1      -0.049  -2.631  41.228  0.00  0.00    -0.021 A 
ATOM     14  H6  2J9 d   1       3.650  -5.010  41.383  0.00  0.00     0.097 H 
ATOM     15  H7  2J9 d   1       5.116  -4.026  41.051  0.00  0.00     0.097 H 
ATOM     16  H8  2J9 d   1       4.081  -3.505  38.914  0.00  0.00     0.174 HD
ATOM     17  H9  2J9 d   1       2.486  -1.757  44.102  0.00  0.00     0.087 H 
ATOM     18  H10 2J9 d   1       0.097  -1.117  44.304  0.00  0.00     0.088 H 
ATOM     19  H11 2J9 d   1      -0.760  -2.886  40.450  0.00  0.00     0.090 H 
ENDROOT
BRANCH   1  20
ATOM     20  CAN 2J9 d   1       4.601  -2.779  43.111  0.00  0.00     0.014 A 
ATOM     21  CAG 2J9 d   1       5.101  -1.399  43.544  0.00  0.00    -0.044 A 
ATOM     22  CAH 2J9 d   1       6.074  -2.384  42.890  0.00  0.00    -0.044 A 
ATOM     23  H1  2J9 d   1       4.778  -0.501  42.996  0.00  0.00     0.036 H 
ATOM     24  H2  2J9 d   1       5.197  -1.161  44.614  0.00  0.00     0.036 H 
ATOM     25  H3  2J9 d   1       6.867  -2.856  43.490  0.00  0.00     0.036 H 
ATOM     26  H4  2J9 d   1       6.447  -2.196  41.872  0.00  0.00     0.036 H 
ATOM     27  H5  2J9 d   1       4.398  -3.519  43.900  0.00  0.00     0.072 H 
ENDBRANCH   1  20
TORSDOF 1
