REMARK  2 active torsions:
REMARK  status: ('A' for Active; 'I' for Inactive)
REMARK    1  A    between atoms: N1_6  and  C8_7 
REMARK    2  A    between atoms: C1_13  and  C_14 
ROOT
ATOM      1  O   2FQ d   1     -28.591 -28.511   4.620  0.00  0.00    -0.266 OA
ATOM      2  C6  2FQ d   1     -27.613 -28.217   3.944  0.00  0.00     0.273 A 
ATOM      3  C5  2FQ d   1     -27.734 -27.942   2.477  0.00  0.00     0.098 A 
ATOM      4  N3  2FQ d   1     -28.968 -28.052   1.936  0.00  0.00    -0.299 NA
ATOM      5  C4  2FQ d   1     -26.636 -27.606   1.750  0.00  0.00     0.009 A 
ATOM      6  N1  2FQ d   1     -26.360 -28.123   4.517  0.00  0.00    -0.301 N 
ATOM      7  C7  2FQ d   1     -25.232 -27.784   3.801  0.00  0.00     0.142 A 
ATOM      8  C3  2FQ d   1     -25.361 -27.521   2.410  0.00  0.00     0.011 A 
ATOM      9  C2  2FQ d   1     -24.174 -27.177   1.759  0.00  0.00     0.014 A 
ATOM     10  N   2FQ d   1     -22.988 -27.092   2.351  0.00  0.00    -0.245 NA
ATOM     11  N2  2FQ d   1     -24.039 -27.702   4.400  0.00  0.00    -0.215 NA
ATOM     12  C1  2FQ d   1     -22.967 -27.368   3.670  0.00  0.00     0.124 A 
ATOM     13  H1  2FQ d   1     -29.105 -27.878   0.953  0.00  0.00     0.186 HD
ATOM     14  H2  2FQ d   1     -26.834 -26.620   1.304  0.00  0.00     0.050 H 
ATOM     15  H3  2FQ d   1     -26.536 -28.356   0.952  0.00  0.00     0.050 H 
ATOM     16  H7  2FQ d   1     -24.224 -26.965   0.697  0.00  0.00     0.115 H 
ENDROOT
BRANCH   6  17
ATOM     17  C8  2FQ d   1     -26.257 -28.408   5.948  0.00  0.00    -0.009 C 
ATOM     18  H4  2FQ d   1     -27.252 -28.657   6.345  0.00  0.00     0.057 H 
ATOM     19  H5  2FQ d   1     -25.865 -27.523   6.471  0.00  0.00     0.057 H 
ATOM     20  H6  2FQ d   1     -25.576 -29.258   6.105  0.00  0.00     0.057 H 
ENDBRANCH   6  17
BRANCH  12  21
ATOM     21  C   2FQ d   1     -21.653 -27.310   4.360  0.00  0.00    -0.019 C 
ATOM     22  H8  2FQ d   1     -20.873 -27.025   3.639  0.00  0.00     0.037 H 
ATOM     23  H9  2FQ d   1     -21.418 -28.297   4.784  0.00  0.00     0.037 H 
ATOM     24  H10 2FQ d   1     -21.696 -26.565   5.168  0.00  0.00     0.037 H 
ENDBRANCH  12  21
TORSDOF 2
