REMARK  1 active torsions:
REMARK  status: ('A' for Active; 'I' for Inactive)
REMARK    1  A    between atoms: C7_7  and  N1_12 
ROOT
ATOM      1  O   2GQ d   1      28.993  29.258  -5.509  0.00  0.00    -0.267 OA
ATOM      2  C8  2GQ d   1      28.821  28.808  -4.382  0.00  0.00     0.257 A 
ATOM      3  C3  2GQ d   1      28.611  27.376  -4.090  0.00  0.00     0.039 A 
ATOM      4  C2  2GQ d   1      28.687  26.428  -5.113  0.00  0.00    -0.067 A 
ATOM      5  C1  2GQ d   1      28.516  25.080  -4.834  0.00  0.00    -0.082 A 
ATOM      6  N   2GQ d   1      28.782  29.642  -3.289  0.00  0.00    -0.311 N 
ATOM      7  C7  2GQ d   1      28.558  29.268  -1.999  0.00  0.00     0.102 A 
ATOM      8  C6  2GQ d   1      28.342  27.934  -1.702  0.00  0.00     0.014 A 
ATOM      9  C4  2GQ d   1      28.364  26.950  -2.761  0.00  0.00    -0.035 A 
ATOM     10  C5  2GQ d   1      28.177  25.582  -2.514  0.00  0.00    -0.075 A 
ATOM     11  C   2GQ d   1      28.255  24.661  -3.546  0.00  0.00    -0.082 A 
ATOM     12  H   2GQ d   1      28.881  26.747  -6.131  0.00  0.00     0.085 H 
ATOM     13  H   2GQ d   1      28.588  24.351  -5.633  0.00  0.00     0.083 H 
ATOM     14  H   2GQ d   1      28.933  30.616  -3.458  0.00  0.00     0.170 HD
ATOM     15  H   2GQ d   1      27.352  27.869  -1.228  0.00  0.00     0.051 H 
ATOM     16  H   2GQ d   1      29.116  27.640  -0.977  0.00  0.00     0.051 H 
ATOM     17  H   2GQ d   1      27.969  25.242  -1.506  0.00  0.00     0.084 H 
ATOM     18  H   2GQ d   1      28.110  23.607  -3.340  0.00  0.00     0.083 H 
ENDROOT
BRANCH   7  19
ATOM     19  N1  2GQ d   1      28.550  30.242  -1.073  0.00  0.00    -0.287 NA
ATOM     20  H   2GQ d   1      28.388  30.015  -0.104  0.00  0.00     0.188 HD
ENDBRANCH   7  19
TORSDOF 1
