REMARK  5 active torsions:
REMARK  status: ('A' for Active; 'I' for Inactive)
REMARK    1  A    between atoms: C10_2  and  C11_3 
REMARK       I    between atoms: C10_2  and  N3_10 
REMARK    2  A    between atoms: C14_4  and  N6_5 
REMARK    3  A    between atoms: N3_10  and  C9_11 
REMARK    4  A    between atoms: C5_16  and  N1_17 
REMARK    5  A    between atoms: C_22  and  N_23 
ROOT
ATOM      1  C9  2HW d   1     -17.402  35.161  -0.719  0.00  0.00     0.079 A 
ATOM      2  C8  2HW d   1     -16.956  34.449   0.394  0.00  0.00     0.030 A 
ATOM      3  N2  2HW d   1     -16.022  33.496   0.347  0.00  0.00    -0.271 NA
ATOM      4  C7  2HW d   1     -15.489  33.223  -0.843  0.00  0.00     0.004 A 
ATOM      5  C6  2HW d   1     -15.847  33.858  -2.013  0.00  0.00    -0.038 A 
ATOM      6  C5  2HW d   1     -16.826  34.848  -1.958  0.00  0.00     0.060 A 
ATOM      7  H6  2HW d   1     -17.395  34.684   1.357  0.00  0.00     0.118 H 
ATOM      8  H7  2HW d   1     -14.727  32.454  -0.894  0.00  0.00     0.114 H 
ATOM      9  H8  2HW d   1     -15.378  33.593  -2.954  0.00  0.00     0.089 H 
ENDROOT
BRANCH   6  10
ATOM     10  N1  2HW d   1     -17.240  35.526  -3.127  0.00  0.00    -0.377 N 
ATOM     11  C3  2HW d   1     -18.515  35.098  -3.715  0.00  0.00    -0.005 C 
ATOM     12  C2  2HW d   1     -19.058  36.147  -4.655  0.00  0.00    -0.048 C 
ATOM     13  H9  2HW d   1     -19.243  34.926  -2.909  0.00  0.00     0.064 H 
ATOM     14  H10 2HW d   1     -18.358  34.163  -4.272  0.00  0.00     0.064 H 
ATOM     15  C1  2HW d   1     -18.007  36.547  -5.688  0.00  0.00    -0.036 C 
ATOM     16  H11 2HW d   1     -19.349  37.035  -4.075  0.00  0.00     0.035 H 
ATOM     17  H12 2HW d   1     -19.939  35.743  -5.175  0.00  0.00     0.035 H 
ATOM     18  C   2HW d   1     -16.740  37.018  -4.993  0.00  0.00     0.115 C 
ATOM     19  H13 2HW d   1     -18.403  37.361  -6.312  0.00  0.00     0.036 H 
ATOM     20  H14 2HW d   1     -17.772  35.679  -6.322  0.00  0.00     0.036 H 
ATOM     21  C4  2HW d   1     -16.216  35.908  -4.101  0.00  0.00     0.021 C 
ATOM     22  H17 2HW d   1     -16.976  37.905  -4.386  0.00  0.00     0.086 H 
ATOM     23  H15 2HW d   1     -15.957  35.036  -4.719  0.00  0.00     0.067 H 
ATOM     24  H16 2HW d   1     -15.320  36.260  -3.569  0.00  0.00     0.067 H 
BRANCH  18  25
ATOM     25  N   2HW d   1     -15.677  37.354  -5.947  0.00  0.00    -0.073 N 
ATOM     26  H18 2HW d   1     -15.994  38.091  -6.557  0.00  0.00     0.274 HD
ATOM     27  H19 2HW d   1     -15.448  36.540  -6.495  0.00  0.00     0.274 HD
ATOM     28  H20 2HW d   1     -14.859  37.662  -5.444  0.00  0.00     0.274 HD
ENDBRANCH  18  25
ENDBRANCH   6  10
BRANCH   1  29
ATOM     29  N3  2HW d   1     -18.330  36.229  -0.645  0.00  0.00    -0.318 N 
ATOM     30  C10 2HW d   1     -18.901  36.813   0.437  0.00  0.00     0.278 C 
ATOM     31  O   2HW d   1     -18.650  36.527   1.605  0.00  0.00    -0.265 OA
ATOM     32  H5  2HW d   1     -18.606  36.611  -1.527  0.00  0.00     0.169 HD
BRANCH  30  33
ATOM     33  C11 2HW d   1     -19.877  37.901   0.091  0.00  0.00     0.169 A 
ATOM     34  C14 2HW d   1     -20.569  38.695   1.057  0.00  0.00     0.155 A 
ATOM     35  N5  2HW d   1     -21.452  39.637   0.649  0.00  0.00    -0.240 NA
ATOM     36  C13 2HW d   1     -21.626  39.810  -0.668  0.00  0.00     0.021 A 
ATOM     37  C12 2HW d   1     -20.939  39.059  -1.596  0.00  0.00     0.020 A 
ATOM     38  H3  2HW d   1     -22.327  40.562  -1.013  0.00  0.00     0.117 H 
ATOM     39  N4  2HW d   1     -20.076  38.100  -1.229  0.00  0.00    -0.250 NA
ATOM     40  H4  2HW d   1     -21.100  39.248  -2.651  0.00  0.00     0.117 H 
BRANCH  34  41
ATOM     41  N6  2HW d   1     -20.357  38.581   2.376  0.00  0.00    -0.382 N 
ATOM     42  H1  2HW d   1     -20.880  39.175   3.035  0.00  0.00     0.157 HD
ATOM     43  H2  2HW d   1     -19.671  37.899   2.730  0.00  0.00     0.157 HD
ENDBRANCH  34  41
ENDBRANCH  30  33
ENDBRANCH   1  29
TORSDOF 5
