REMARK  1 active torsions:
REMARK  status: ('A' for Active; 'I' for Inactive)
REMARK    1  A    between atoms: C7_7  and  N1_12 
ROOT
ATOM      1  O   2GQ d   1     -23.991 -28.527   4.664  0.00  0.00    -0.267 OA
ATOM      2  C8  2GQ d   1     -25.184 -28.602   4.978  0.00  0.00     0.257 A 
ATOM      3  C3  2GQ d   1     -25.672 -28.874   6.346  0.00  0.00     0.039 A 
ATOM      4  C2  2GQ d   1     -24.765 -29.123   7.385  0.00  0.00    -0.067 A 
ATOM      5  C1  2GQ d   1     -25.213 -29.318   8.684  0.00  0.00    -0.082 A 
ATOM      6  N   2GQ d   1     -26.164 -28.378   4.037  0.00  0.00    -0.312 N 
ATOM      7  C7  2GQ d   1     -27.489 -28.394   4.353  0.00  0.00     0.086 A 
ATOM      8  C6  2GQ d   1     -27.991 -28.621   5.579  0.00  0.00     0.013 A 
ATOM      9  C4  2GQ d   1     -27.060 -28.860   6.639  0.00  0.00    -0.035 A 
ATOM     10  C5  2GQ d   1     -27.487 -29.060   7.963  0.00  0.00    -0.075 A 
ATOM     11  C   2GQ d   1     -26.567 -29.284   8.970  0.00  0.00    -0.082 A 
ATOM     12  H1  2GQ d   1     -23.703 -29.164   7.172  0.00  0.00     0.085 H 
ATOM     13  H2  2GQ d   1     -24.499 -29.498   9.479  0.00  0.00     0.083 H 
ATOM     14  H3  2GQ d   1     -25.894 -28.198   3.091  0.00  0.00     0.170 HD
ATOM     15  H4  2GQ d   1     -28.645 -29.503   5.510  0.00  0.00     0.051 H 
ATOM     16  H5  2GQ d   1     -28.590 -27.741   5.858  0.00  0.00     0.051 H 
ATOM     17  H6  2GQ d   1     -28.545 -29.038   8.196  0.00  0.00     0.084 H 
ATOM     18  H7  2GQ d   1     -26.907 -29.434   9.988  0.00  0.00     0.083 H 
ENDROOT
BRANCH   7  19
ATOM     19  N1  2GQ d   1     -28.308 -28.187   3.386  0.00  0.00    -0.370 N 
ATOM     20  C12 2GQ d   1     -29.758 -28.195   3.503  0.00  0.00    -0.004 C 
ATOM     21  C11 2GQ d   1     -30.224 -28.064   2.083  0.00  0.00    -0.049 C 
ATOM     22  H8  2GQ d   1     -30.108 -27.348   4.112  0.00  0.00     0.064 H 
ATOM     23  H9  2GQ d   1     -30.111 -29.137   3.948  0.00  0.00     0.064 H 
ATOM     24  C10 2GQ d   1     -29.113 -28.560   1.349  0.00  0.00    -0.049 C 
ATOM     25  H10 2GQ d   1     -30.433 -27.015   1.828  0.00  0.00     0.035 H 
ATOM     26  H11 2GQ d   1     -31.123 -28.671   1.902  0.00  0.00     0.035 H 
ATOM     27  C9  2GQ d   1     -27.921 -28.015   2.026  0.00  0.00    -0.004 C 
ATOM     28  H12 2GQ d   1     -29.155 -28.213   0.306  0.00  0.00     0.035 H 
ATOM     29  H13 2GQ d   1     -29.098 -29.660   1.370  0.00  0.00     0.035 H 
ATOM     30  H14 2GQ d   1     -27.015 -28.590   1.784  0.00  0.00     0.064 H 
ATOM     31  H15 2GQ d   1     -27.760 -26.955   1.778  0.00  0.00     0.064 H 
ENDBRANCH   7  19
TORSDOF 1
