REMARK  9 active torsions:
REMARK  status: ('A' for Active; 'I' for Inactive)
REMARK    1  A    between atoms: PAN_2  and  OAL_5 
REMARK    2  A    between atoms: OAL_5  and  PAO_6 
REMARK    3  A    between atoms: PAO_6  and  CAK_9 
REMARK    4  A    between atoms: CAK_9  and  CAI_10 
REMARK    5  A    between atoms: CAI_10  and  CAH_11 
REMARK    6  A    between atoms: CAH_11  and  CAM_12 
REMARK    7  A    between atoms: CAM_12  and  CAA_13 
REMARK    8  A    between atoms: CAM_12  and  CAJ_14 
REMARK    9  A    between atoms: CAJ_14  and  OAD_15 
ROOT
ATOM      1  CAI 2JA d   1      23.894  -0.549 148.285  0.00  0.00    -0.054 C 
ATOM      2  H   2JA d   1      24.328  -0.474 147.277  0.00  0.00     0.033 H 
ATOM      3  H   2JA d   1      23.910  -1.599 148.614  0.00  0.00     0.033 H 
ENDROOT
BRANCH   1   4
ATOM      4  CAK 2JA d   1      22.483   0.012 148.316  0.00  0.00     0.032 C 
ATOM      5  H   2JA d   1      22.116   0.029 149.353  0.00  0.00     0.052 H 
ATOM      6  H   2JA d   1      22.484   1.034 147.910  0.00  0.00     0.052 H 
BRANCH   4   7
ATOM      7  PAO 2JA d   1      21.476  -0.974 147.372  0.00  0.00     0.260 P 
ATOM      8  OAG 2JA d   1      22.011  -2.483 147.607  0.00  0.00    -0.646 OA
ATOM      9  OAC 2JA d   1      20.052  -0.836 147.775  0.00  0.00    -0.646 OA
BRANCH   7  10
ATOM     10  OAL 2JA d   1      21.775  -0.601 145.819  0.00  0.00    -0.197 OA
BRANCH  10  11
ATOM     11  PAN 2JA d   1      21.025   0.572 145.012  0.00  0.00     0.430 P 
ATOM     12  OAE 2JA d   1      21.893   1.923 145.213  0.00  0.00    -0.616 OA
ATOM     13  OAF 2JA d   1      21.217   0.188 143.453  0.00  0.00    -0.616 OA
ATOM     14  OAB 2JA d   1      19.599   0.782 145.362  0.00  0.00    -0.616 OA
ENDBRANCH  10  11
ENDBRANCH   7  10
ENDBRANCH   4   7
ENDBRANCH   1   4
BRANCH   1  15
ATOM     15  CAH 2JA d   1      24.631   0.337 149.260  0.00  0.00    -0.060 C 
ATOM     16  H   2JA d   1      24.075   1.276 149.399  0.00  0.00     0.033 H 
ATOM     17  H   2JA d   1      25.636   0.559 148.871  0.00  0.00     0.033 H 
BRANCH  15  18
ATOM     18  CAM 2JA d   1      24.748  -0.391 150.593  0.00  0.00    -0.037 C 
ATOM     19  H   2JA d   1      23.775   0.006 150.919  0.00  0.00     0.042 H 
BRANCH  18  20
ATOM     20  CAA 2JA d   1      24.245  -1.827 150.710  0.00  0.00    -0.071 C 
ATOM     21  H   2JA d   1      24.409  -2.190 151.735  0.00  0.00     0.028 H 
ATOM     22  H   2JA d   1      24.793  -2.466 150.003  0.00  0.00     0.028 H 
ATOM     23  H   2JA d   1      23.171  -1.859 150.477  0.00  0.00     0.028 H 
ENDBRANCH  18  20
BRANCH  18  24
ATOM     24  CAJ 2JA d   1      25.438   0.250 151.772  0.00  0.00     0.020 C 
ATOM     25  H   2JA d   1      26.486   0.475 151.524  0.00  0.00     0.074 H 
ATOM     26  H   2JA d   1      25.403  -0.419 152.644  0.00  0.00     0.074 H 
BRANCH  24  27
ATOM     27  OAD 2JA d   1      24.726   1.453 152.045  0.00  0.00    -0.400 OA
ATOM     28  H   2JA d   1      25.126   1.895 152.785  0.00  0.00     0.209 HD
ENDBRANCH  24  27
ENDBRANCH  18  24
ENDBRANCH  15  18
ENDBRANCH   1  15
TORSDOF 9
