REMARK  1 active torsions:
REMARK  status: ('A' for Active; 'I' for Inactive)
REMARK    1  A    between atoms: C10_6  and  C9_9 
ROOT
ATOM      1  C4  2J2 d   1      10.889  -6.400 -11.255  0.00  0.00     0.031 A 
ATOM      2  C5  2J2 d   1      10.651  -5.630 -10.016  0.00  0.00    -0.022 A 
ATOM      3  C6  2J2 d   1      11.356  -5.895  -8.718  0.00  0.00    -0.038 C 
ATOM      4  C7  2J2 d   1      11.948  -7.305  -8.760  0.00  0.00    -0.060 C 
ATOM      5  C8  2J2 d   1      12.694  -7.631 -10.063  0.00  0.00    -0.047 C 
ATOM      6  C9  2J2 d   1      11.856  -7.517 -11.343  0.00  0.00     0.071 C 
ATOM      7  C2  2J2 d   1       9.631  -4.641 -10.397  0.00  0.00     0.000 A 
ATOM      8  C1  2J2 d   1       8.975  -3.633  -9.710  0.00  0.00    -0.049 A 
ATOM      9  N   2J2 d   1      10.105  -5.929 -12.255  0.00  0.00    -0.358 N 
ATOM     10  C3  2J2 d   1       9.345  -4.904 -11.828  0.00  0.00     0.043 A 
ATOM     11  C11 2J2 d   1       8.405  -4.100 -12.466  0.00  0.00    -0.055 A 
ATOM     12  C12 2J2 d   1       7.758  -3.098 -11.749  0.00  0.00    -0.060 A 
ATOM     13  C   2J2 d   1       8.031  -2.871 -10.402  0.00  0.00     0.035 A 
ATOM     14 CL   2J2 d   1       7.129  -1.548  -9.613  0.00  0.00    -0.084 Cl
ATOM     15  H   2J2 d   1      10.641  -5.819  -7.886  0.00  0.00     0.040 H 
ATOM     16  H   2J2 d   1      12.162  -5.159  -8.578  0.00  0.00     0.040 H 
ATOM     17  H   2J2 d   1      11.128  -8.028  -8.641  0.00  0.00     0.033 H 
ATOM     18  H   2J2 d   1      12.653  -7.409  -7.922  0.00  0.00     0.033 H 
ATOM     19  H   2J2 d   1      13.068  -8.663  -9.992  0.00  0.00     0.034 H 
ATOM     20  H   2J2 d   1      13.544  -6.939 -10.150  0.00  0.00     0.034 H 
ATOM     21  H   2J2 d   1      12.536  -7.331 -12.187  0.00  0.00     0.066 H 
ATOM     22  H   2J2 d   1       9.188  -3.441  -8.665  0.00  0.00     0.087 H 
ATOM     23  H   2J2 d   1      10.092  -6.305 -13.214  0.00  0.00     0.166 HD
ATOM     24  H   2J2 d   1       8.178  -4.253 -13.515  0.00  0.00     0.087 H 
ATOM     25  H   2J2 d   1       7.023  -2.479 -12.251  0.00  0.00     0.086 H 
ENDROOT
BRANCH   6  26
ATOM     26  C10 2J2 d   1      11.101  -8.788 -11.598  0.00  0.00     0.183 C 
ATOM     27  O1  2J2 d   1       9.904  -8.873 -11.388  0.00  0.00    -0.647 OA
ATOM     28  O   2J2 d   1      11.736  -9.855 -12.062  0.00  0.00    -0.647 OA
ENDBRANCH   6  26
TORSDOF 1
