REMARK  1 active torsions:
REMARK  status: ('A' for Active; 'I' for Inactive)
REMARK    1  A    between atoms: N2_2  and  C4_4 
ROOT
ATOM      1  C4  2ZM d   1       9.989   7.705  39.345  0.00  0.00     0.105 A 
ATOM      2  C5  2ZM d   1       8.958   6.783  39.305  0.00  0.00    -0.049 A 
ATOM      3  C6  2ZM d   1       8.871   5.791  40.253  0.00  0.00    -0.052 A 
ATOM      4  C7  2ZM d   1       9.823   5.711  41.259  0.00  0.00     0.062 A 
ATOM      5  N8  2ZM d   1      10.018   4.861  42.337  0.00  0.00    -0.349 N 
ATOM      6  C9  2ZM d   1      11.137   5.285  42.987  0.00  0.00     0.065 A 
ATOM      7  N10 2ZM d   1      11.637   6.326  42.388  0.00  0.00    -0.242 NA
ATOM      8  C11 2ZM d   1      10.872   6.646  41.307  0.00  0.00     0.087 A 
ATOM      9  C12 2ZM d   1      10.945   7.646  40.334  0.00  0.00    -0.021 A 
ATOM     10  H   2ZM d   1       8.213   6.843  38.520  0.00  0.00     0.087 H 
ATOM     11  H   2ZM d   1       8.060   5.073  40.215  0.00  0.00     0.087 H 
ATOM     12  H   2ZM d   1       9.427   4.059  42.597  0.00  0.00     0.167 HD
ATOM     13  H   2ZM d   1      11.553   4.820  43.879  0.00  0.00     0.143 H 
ATOM     14  H   2ZM d   1      11.750   8.371  40.358  0.00  0.00     0.091 H 
ENDROOT
BRANCH   1  15
ATOM     15  N2  2ZM d   1      10.073   8.760  38.309  0.00  0.00    -0.116 N 
ATOM     16  O1  2ZM d   1      10.980   9.574  38.341  0.00  0.00    -0.532 OA
ATOM     17  O3  2ZM d   1       9.251   8.799  37.413  0.00  0.00    -0.532 OA
ENDBRANCH   1  15
TORSDOF 1
