REMARK  7 active torsions:
REMARK  status: ('A' for Active; 'I' for Inactive)
REMARK    1  A    between atoms: C23_23  and  C1_1 
REMARK    2  A    between atoms: C6_6  and  C33_33 
REMARK    3  A    between atoms: C21_21  and  C10_10 
REMARK    4  A    between atoms: C12_12  and  C20_20 
REMARK    5  A    between atoms: C13_13  and  C17_17 
REMARK    6  A    between atoms: C17_17  and  N18_18 
REMARK    7  A    between atoms: C25_25  and  N32_32 
ROOT
ATOM      1  C7  1T7 d   1       8.193  35.661  28.056  0.00  0.00    -0.022 A 
ATOM      2  C8  1T7 d   1       8.716  35.409  26.779  0.00  0.00     0.035 A 
ATOM      3  N9  1T7 d   1       8.125  35.976  25.653  0.00  0.00    -0.381 N 
ATOM      4  C10 1T7 d   1       6.880  36.740  25.760  0.00  0.00     0.036 C 
ATOM      5  C11 1T7 d   1       6.963  37.599  27.031  0.00  0.00    -0.031 C 
ATOM      6  C12 1T7 d   1       7.081  36.667  28.262  0.00  0.00     0.001 C 
ATOM      7  C13 1T7 d   1       9.604  33.902  28.965  0.00  0.00     0.008 A 
ATOM      8  C14 1T7 d   1      10.091  33.652  27.685  0.00  0.00    -0.067 A 
ATOM      9  C15 1T7 d   1       9.684  34.421  26.611  0.00  0.00    -0.056 A 
ATOM     10  C16 1T7 d   1       8.670  34.917  29.138  0.00  0.00    -0.060 A 
ATOM     11  H   1T7 d   1       8.570  35.856  24.732  0.00  0.00     0.160 HD
ATOM     12  H   1T7 d   1       6.020  36.056  25.809  0.00  0.00     0.080 H 
ATOM     13  H   1T7 d   1       6.056  38.215  27.120  0.00  0.00     0.038 H 
ATOM     14  H   1T7 d   1       7.846  38.253  26.977  0.00  0.00     0.038 H 
ATOM     15  H   1T7 d   1       6.141  36.128  28.448  0.00  0.00     0.055 H 
ATOM     16  H   1T7 d   1      10.798  32.845  27.529  0.00  0.00     0.085 H 
ATOM     17  H   1T7 d   1      10.120  34.255  25.633  0.00  0.00     0.087 H 
ATOM     18  H   1T7 d   1       8.304  35.136  30.134  0.00  0.00     0.086 H 
ENDROOT
BRANCH   4  19
ATOM     19  C21 1T7 d   1       6.732  37.679  24.582  0.00  0.00    -0.033 A 
ATOM     20  C22 1T7 d   1       7.784  38.502  24.217  0.00  0.00    -0.064 A 
ATOM     21  C23 1T7 d   1       7.669  39.442  23.199  0.00  0.00    -0.022 A 
ATOM     22  H   1T7 d   1       8.728  38.410  24.742  0.00  0.00     0.085 H 
ATOM     23  C24 1T7 d   1       6.454  39.535  22.514  0.00  0.00    -0.047 A 
ATOM     24  C25 1T7 d   1       5.376  38.705  22.846  0.00  0.00     0.027 A 
ATOM     25  H   1T7 d   1       6.345  40.259  21.715  0.00  0.00     0.088 H 
ATOM     26  C26 1T7 d   1       5.534  37.790  23.887  0.00  0.00    -0.050 A 
ATOM     27  H   1T7 d   1       4.702  37.150  24.160  0.00  0.00     0.087 H 
BRANCH  21  28
ATOM     28  C1  1T7 d   1       8.862  40.264  22.844  0.00  0.00    -0.009 A 
ATOM     29  C2  1T7 d   1       8.775  41.655  22.862  0.00  0.00    -0.071 A 
ATOM     30  C3  1T7 d   1       9.912  42.441  22.679  0.00  0.00    -0.082 A 
ATOM     31  H   1T7 d   1       7.814  42.130  23.020  0.00  0.00     0.084 H 
ATOM     32  C4  1T7 d   1      11.142  41.848  22.458  0.00  0.00    -0.082 A 
ATOM     33  H   1T7 d   1       9.832  43.522  22.710  0.00  0.00     0.083 H 
ATOM     34  C5  1T7 d   1      11.248  40.470  22.410  0.00  0.00    -0.066 A 
ATOM     35  H   1T7 d   1      12.024  42.464  22.322  0.00  0.00     0.083 H 
ATOM     36  C6  1T7 d   1      10.111  39.674  22.586  0.00  0.00     0.051 A 
ATOM     37  H   1T7 d   1      12.212  40.007  22.236  0.00  0.00     0.085 H 
BRANCH  36  38
ATOM     38  C33 1T7 d   1      10.244  38.211  22.389  0.00  0.00     0.210 C 
ATOM     39  O34 1T7 d   1      11.062  37.623  23.218  0.00  0.00    -0.644 OA
ATOM     40  O35 1T7 d   1       9.523  37.631  21.592  0.00  0.00    -0.644 OA
ENDBRANCH  36  38
ENDBRANCH  21  28
BRANCH  24  41
ATOM     41  N32 1T7 d   1       4.166  38.773  22.150  0.00  0.00    -0.399 N 
ATOM     42  H   1T7 d   1       4.051  39.449  21.382  0.00  0.00     0.156 HD
ATOM     43  H   1T7 d   1       3.389  38.147  22.405  0.00  0.00     0.156 HD
ENDBRANCH  24  41
ENDBRANCH   4  19
BRANCH   6  44
ATOM     44  C20 1T7 d   1       7.358  37.665  29.381  0.00  0.00    -0.050 A 
ATOM     45  C27 1T7 d   1       8.644  38.120  29.642  0.00  0.00    -0.076 A 
ATOM     46  C28 1T7 d   1       8.852  39.213  30.478  0.00  0.00    -0.082 A 
ATOM     47  H   1T7 d   1       9.493  37.620  29.191  0.00  0.00     0.084 H 
ATOM     48  C29 1T7 d   1       7.780  39.849  31.070  0.00  0.00    -0.083 A 
ATOM     49  H   1T7 d   1       9.860  39.566  30.665  0.00  0.00     0.083 H 
ATOM     50  C30 1T7 d   1       6.503  39.381  30.846  0.00  0.00    -0.082 A 
ATOM     51  H   1T7 d   1       7.941  40.711  31.707  0.00  0.00     0.083 H 
ATOM     52  C31 1T7 d   1       6.293  38.287  30.017  0.00  0.00    -0.076 A 
ATOM     53  H   1T7 d   1       5.659  39.869  31.319  0.00  0.00     0.083 H 
ATOM     54  H   1T7 d   1       5.286  37.915  29.865  0.00  0.00     0.084 H 
ENDBRANCH   6  44
BRANCH   7  55
ATOM     55  C17 1T7 d   1       9.983  33.045  30.144  0.00  0.00     0.102 C 
ATOM     56  N19 1T7 d   1       9.757  33.521  31.359  0.00  0.00    -0.385 N 
ATOM     57  H   1T7 d   1       9.264  34.417  31.477  0.00  0.00     0.157 HD
ATOM     58  H   1T7 d   1      10.075  32.995  32.186  0.00  0.00     0.157 HD
BRANCH  55  59
ATOM     59  N18 1T7 d   1      10.645  31.839  29.928  0.00  0.00    -0.385 N 
ATOM     60  H   1T7 d   1      10.909  31.246  30.728  0.00  0.00     0.157 HD
ATOM     61  H   1T7 d   1      10.871  31.540  28.969  0.00  0.00     0.157 HD
ENDBRANCH  55  59
ENDBRANCH   7  55
TORSDOF 7
