REMARK  5 active torsions:
REMARK  status: ('A' for Active; 'I' for Inactive)
REMARK    1  A    between atoms: C5_2  and  N1_4 
REMARK    2  A    between atoms: N1_4  and  C6_3 
REMARK    3  A    between atoms: C6_3  and  C7_5 
REMARK    4  A    between atoms: C12_10  and  O_11 
REMARK    5  A    between atoms: C1_12  and  C_13 
ROOT
ATOM      1  C6  2J5 d   1      22.173  29.349   5.931  0.00  0.00     0.020 C 
ATOM      2  H   2J5 d   1      21.951  29.034   6.961  0.00  0.00     0.071 H 
ATOM      3  H   2J5 d   1      21.601  28.728   5.226  0.00  0.00     0.071 H 
ENDROOT
BRANCH   1   4
ATOM      4  N1  2J5 d   1      23.590  29.110   5.687  0.00  0.00    -0.370 N 
ATOM      5  H   2J5 d   1      23.865  28.811   4.741  0.00  0.00     0.161 HD
BRANCH   4   6
ATOM      6  C5  2J5 d   1      24.571  29.251   6.607  0.00  0.00     0.129 A 
ATOM      7  C1  2J5 d   1      25.917  28.923   6.200  0.00  0.00    -0.016 A 
ATOM      8  C2  2J5 d   1      26.882  28.941   7.191  0.00  0.00    -0.072 A 
ATOM      9  C3  2J5 d   1      26.559  29.263   8.494  0.00  0.00    -0.065 A 
ATOM     10  H   2J5 d   1      27.908  28.698   6.940  0.00  0.00     0.084 H 
ATOM     11  C4  2J5 d   1      25.274  29.580   8.775  0.00  0.00     0.004 A 
ATOM     12  H   2J5 d   1      27.315  29.262   9.271  0.00  0.00     0.085 H 
ATOM     13  N   2J5 d   1      24.290  29.591   7.869  0.00  0.00    -0.243 NA
ATOM     14  H   2J5 d   1      25.027  29.841   9.798  0.00  0.00     0.114 H 
BRANCH   7  15
ATOM     15  C   2J5 d   1      26.281  28.577   4.784  0.00  0.00    -0.048 C 
ATOM     16  H   2J5 d   1      27.359  28.367   4.723  0.00  0.00     0.033 H 
ATOM     17  H   2J5 d   1      26.035  29.423   4.125  0.00  0.00     0.033 H 
ATOM     18  H   2J5 d   1      25.716  27.688   4.467  0.00  0.00     0.033 H 
ENDBRANCH   7  15
ENDBRANCH   4   6
ENDBRANCH   1   4
BRANCH   1  19
ATOM     19  C7  2J5 d   1      21.708  30.774   5.774  0.00  0.00    -0.007 A 
ATOM     20  C8  2J5 d   1      21.142  31.235   4.584  0.00  0.00    -0.073 A 
ATOM     21  C9  2J5 d   1      20.603  32.504   4.493  0.00  0.00    -0.082 A 
ATOM     22  H   2J5 d   1      21.125  30.586   3.716  0.00  0.00     0.084 H 
ATOM     23  C10 2J5 d   1      20.642  33.350   5.575  0.00  0.00    -0.080 A 
ATOM     24  H   2J5 d   1      20.148  32.833   3.566  0.00  0.00     0.083 H 
ATOM     25  C11 2J5 d   1      21.234  32.942   6.752  0.00  0.00    -0.050 A 
ATOM     26  H   2J5 d   1      20.207  34.340   5.503  0.00  0.00     0.083 H 
ATOM     27  C12 2J5 d   1      21.770  31.657   6.857  0.00  0.00     0.073 A 
ATOM     28  H   2J5 d   1      21.283  33.620   7.597  0.00  0.00     0.087 H 
BRANCH  27  29
ATOM     29  O   2J5 d   1      22.350  31.267   8.008  0.00  0.00    -0.360 OA
ATOM     30  H   2J5 d   1      22.662  30.374   7.918  0.00  0.00     0.217 HD
ENDBRANCH  27  29
ENDBRANCH   1  19
TORSDOF 5
