REMARK  5 active torsions:
REMARK  status: ('A' for Active; 'I' for Inactive)
REMARK    1  A    between atoms: C8_10  and  C9_1 
REMARK    2  A    between atoms: N7_9  and  C4_4 
REMARK    3  A    between atoms: C3_8  and  C17_17 
REMARK    4  A    between atoms: N7_9  and  C8_10 
REMARK    5  A    between atoms: C14_14  and  O15_15 
ROOT
ATOM      1  C2  2J6 d   1      28.929  26.697  -6.727  0.00  0.00    -0.064 A 
ATOM      2  C4  2J6 d   1      29.141  24.337  -6.350  0.00  0.00     0.137 A 
ATOM      3  N5  2J6 d   1      29.456  24.162  -7.632  0.00  0.00    -0.243 NA
ATOM      4  C6  2J6 d   1      29.518  25.170  -8.482  0.00  0.00     0.004 A 
ATOM      5  C1  2J6 d   1      29.256  26.463  -8.054  0.00  0.00    -0.065 A 
ATOM      6  C3  2J6 d   1      28.858  25.613  -5.847  0.00  0.00     0.057 A 
ATOM      7  H   2J6 d   1      28.732  27.704  -6.378  0.00  0.00     0.085 H 
ATOM      8  H   2J6 d   1      29.775  24.986  -9.519  0.00  0.00     0.114 H 
ATOM      9  H   2J6 d   1      29.307  27.288  -8.755  0.00  0.00     0.085 H 
ENDROOT
BRANCH   2  10
ATOM     10  N7  2J6 d   1      29.072  23.258  -5.485  0.00  0.00    -0.370 N 
ATOM     11  H   2J6 d   1      28.879  23.419  -4.486  0.00  0.00     0.161 HD
BRANCH  10  12
ATOM     12  C8  2J6 d   1      29.270  21.892  -5.971  0.00  0.00     0.020 C 
ATOM     13  H   2J6 d   1      28.618  21.216  -5.398  0.00  0.00     0.071 H 
ATOM     14  H   2J6 d   1      28.994  21.853  -7.035  0.00  0.00     0.071 H 
BRANCH  12  15
ATOM     15  C9  2J6 d   1      30.688  21.429  -5.825  0.00  0.00    -0.007 A 
ATOM     16  C10 2J6 d   1      31.072  20.794  -4.661  0.00  0.00    -0.070 A 
ATOM     17  C11 2J6 d   1      32.368  20.347  -4.532  0.00  0.00    -0.045 A 
ATOM     18  H   2J6 d   1      30.360  20.649  -3.856  0.00  0.00     0.084 H 
ATOM     19  C12 2J6 d   1      33.275  20.542  -5.558  0.00  0.00     0.119 A 
ATOM     20  H   2J6 d   1      32.678  19.841  -3.625  0.00  0.00     0.088 H 
ATOM     21  C13 2J6 d   1      32.903  21.175  -6.737  0.00  0.00    -0.013 A 
ATOM     22  F16 2J6 d   1      34.530  20.091  -5.405  0.00  0.00    -0.206 F 
ATOM     23  C14 2J6 d   1      31.592  21.624  -6.866  0.00  0.00     0.076 A 
ATOM     24  H   2J6 d   1      33.618  21.316  -7.539  0.00  0.00     0.092 H 
BRANCH  23  25
ATOM     25  O15 2J6 d   1      31.191  22.255  -8.006  0.00  0.00    -0.360 OA
ATOM     26  H   2J6 d   1      30.275  22.494  -7.929  0.00  0.00     0.217 HD
ENDBRANCH  23  25
ENDBRANCH  12  15
ENDBRANCH  10  12
ENDBRANCH   2  10
BRANCH   6  27
ATOM     27  C17 2J6 d   1      28.523  25.804  -4.413  0.00  0.00     0.162 A 
ATOM     28  N18 2J6 d   1      28.185  24.756  -3.666  0.00  0.00    -0.241 NA
ATOM     29  C19 2J6 d   1      27.881  24.904  -2.382  0.00  0.00     0.006 A 
ATOM     30  C20 2J6 d   1      27.918  26.166  -1.813  0.00  0.00    -0.049 A 
ATOM     31  H   2J6 d   1      27.606  24.043  -1.783  0.00  0.00     0.114 H 
ATOM     32  C21 2J6 d   1      28.272  27.242  -2.619  0.00  0.00     0.006 A 
ATOM     33  H   2J6 d   1      27.677  26.311  -0.766  0.00  0.00     0.087 H 
ATOM     34  N22 2J6 d   1      28.565  27.033  -3.898  0.00  0.00    -0.241 NA
ATOM     35  H   2J6 d   1      28.309  28.244  -2.207  0.00  0.00     0.114 H 
ENDBRANCH   6  27
TORSDOF 5
