REMARK  8 active torsions:
REMARK  status: ('A' for Active; 'I' for Inactive)
REMARK    1  A    between atoms: C7_1  and  N8_2 
REMARK    2  A    between atoms: C5_10  and  C7_1 
REMARK    3  A    between atoms: N8_2  and  C9_3 
REMARK    4  A    between atoms: C4_6  and  O24_24 
REMARK    5  A    between atoms: C11_11  and  N15_15 
REMARK    6  A    between atoms: N15_15  and  C16_16 
REMARK    7  A    between atoms: C16_16  and  C17_17 
REMARK    8  A    between atoms: C22_22  and  O23_23 
ROOT
ATOM      1  C9  2J7 d   1      25.077  29.016   6.424  0.00  0.00     0.128 A 
ATOM      2  C10 2J7 d   1      26.368  28.777   5.952  0.00  0.00     0.005 A 
ATOM      3  C11 2J7 d   1      27.470  28.821   6.837  0.00  0.00     0.128 A 
ATOM      4  N12 2J7 d   1      27.240  29.077   8.127  0.00  0.00    -0.225 NA
ATOM      5  C13 2J7 d   1      25.988  29.305   8.534  0.00  0.00     0.091 A 
ATOM      6  N14 2J7 d   1      24.936  29.279   7.730  0.00  0.00    -0.225 NA
ATOM      7  H5  2J7 d   1      26.527  28.557   4.903  0.00  0.00     0.095 H 
ATOM      8  H9  2J7 d   1      25.824  29.524   9.583  0.00  0.00     0.146 H 
ENDROOT
BRANCH   1   9
ATOM      9  N8  2J7 d   1      23.985  28.943   5.535  0.00  0.00    -0.370 N 
ATOM     10  H3  2J7 d   1      24.198  28.823   4.534  0.00  0.00     0.161 HD
BRANCH   9  11
ATOM     11  C7  2J7 d   1      22.554  29.025   5.922  0.00  0.00     0.020 C 
ATOM     12  H1  2J7 d   1      22.458  28.682   6.963  0.00  0.00     0.071 H 
ATOM     13  H2  2J7 d   1      21.979  28.359   5.262  0.00  0.00     0.071 H 
BRANCH  11  14
ATOM     14  C5  2J7 d   1      21.962  30.423   5.823  0.00  0.00    -0.007 A 
ATOM     15  C4  2J7 d   1      22.047  31.290   6.903  0.00  0.00     0.073 A 
ATOM     16  C3  2J7 d   1      21.503  32.574   6.821  0.00  0.00    -0.050 A 
ATOM     17  C2  2J7 d   1      20.849  32.986   5.661  0.00  0.00    -0.080 A 
ATOM     18  H8  2J7 d   1      21.590  33.252   7.662  0.00  0.00     0.087 H 
ATOM     19  C1  2J7 d   1      20.756  32.116   4.581  0.00  0.00    -0.082 A 
ATOM     20  H4  2J7 d   1      20.416  33.978   5.602  0.00  0.00     0.083 H 
ATOM     21  C6  2J7 d   1      21.300  30.838   4.666  0.00  0.00    -0.073 A 
ATOM     22  H7  2J7 d   1      20.259  32.433   3.671  0.00  0.00     0.083 H 
ATOM     23  H6  2J7 d   1      21.209  30.159   3.826  0.00  0.00     0.084 H 
BRANCH  15  24
ATOM     24  O24 2J7 d   1      22.696  30.893   8.032  0.00  0.00    -0.360 OA
ATOM     25  H18 2J7 d   1      23.600  30.691   7.822  0.00  0.00     0.217 HD
ENDBRANCH  15  24
ENDBRANCH  11  14
ENDBRANCH   9  11
ENDBRANCH   1   9
BRANCH   3  26
ATOM     26  N15 2J7 d   1      28.779  28.601   6.358  0.00  0.00    -0.370 N 
ATOM     27  H10 2J7 d   1      28.884  28.309   5.376  0.00  0.00     0.161 HD
BRANCH  26  28
ATOM     28  C16 2J7 d   1      30.018  28.759   7.163  0.00  0.00     0.020 C 
ATOM     29  H11 2J7 d   1      29.779  29.377   8.041  0.00  0.00     0.071 H 
ATOM     30  H12 2J7 d   1      30.765  29.276   6.543  0.00  0.00     0.071 H 
BRANCH  28  31
ATOM     31  C17 2J7 d   1      30.629  27.460   7.652  0.00  0.00    -0.007 A 
ATOM     32  C18 2J7 d   1      31.539  26.738   6.894  0.00  0.00    -0.073 A 
ATOM     33  C19 2J7 d   1      32.065  25.551   7.373  0.00  0.00    -0.082 A 
ATOM     34  H13 2J7 d   1      31.840  27.106   5.920  0.00  0.00     0.084 H 
ATOM     35  C20 2J7 d   1      31.682  25.060   8.623  0.00  0.00    -0.080 A 
ATOM     36  H14 2J7 d   1      32.779  24.998   6.774  0.00  0.00     0.083 H 
ATOM     37  C21 2J7 d   1      30.772  25.780   9.389  0.00  0.00    -0.050 A 
ATOM     38  H15 2J7 d   1      32.090  24.126   8.993  0.00  0.00     0.083 H 
ATOM     39  C22 2J7 d   1      30.251  26.980   8.899  0.00  0.00     0.073 A 
ATOM     40  H16 2J7 d   1      30.468  25.412  10.362  0.00  0.00     0.087 H 
BRANCH  39  41
ATOM     41  O23 2J7 d   1      29.349  27.700   9.621  0.00  0.00    -0.360 OA
ATOM     42  H17 2J7 d   1      29.107  28.480   9.136  0.00  0.00     0.217 HD
ENDBRANCH  39  41
ENDBRANCH  28  31
ENDBRANCH  26  28
ENDBRANCH   3  26
TORSDOF 8
