REMARK  11 active torsions:
REMARK  status: ('A' for Active; 'I' for Inactive)
REMARK    1  A    between atoms: PG_1  and  O3B_5 
REMARK    2  A    between atoms: O3B_5  and  PB_6 
REMARK    3  A    between atoms: PB_6  and  O3A_9 
REMARK    4  A    between atoms: O3A_9  and  PA_10 
REMARK    5  A    between atoms: PA_10  and  O5'_13 
REMARK    6  A    between atoms: O5'_13  and  C5'_14 
REMARK    7  A    between atoms: C5'_14  and  C4'_15 
REMARK    8  A    between atoms: C3'_17  and  O3'_18 
REMARK    9  A    between atoms: C2'_19  and  O2'_20 
REMARK   10  A    between atoms: C1'_21  and  N9_22 
REMARK   11  A    between atoms: C2_29  and  N2_30 
ROOT
ATOM      1  C4' GTP d   1     -13.715  18.906   9.179  0.00  0.00     0.089 C 
ATOM      2  O4' GTP d   1     -13.616  20.075  10.004  0.00  0.00    -0.353 OA
ATOM      3  C3' GTP d   1     -12.983  19.237   7.882  0.00  0.00     0.091 C 
ATOM      4  C2' GTP d   1     -12.241  20.492   8.224  0.00  0.00     0.105 C 
ATOM      5  C1' GTP d   1     -13.155  21.164   9.255  0.00  0.00     0.139 C 
ATOM      6  H   GTP d   1     -14.762  18.651   8.958  0.00  0.00     0.090 H 
ATOM      7  H   GTP d   1     -12.325  18.425   7.539  0.00  0.00     0.091 H 
ATOM      8  H   GTP d   1     -11.299  20.219   8.722  0.00  0.00     0.093 H 
ATOM      9  H   GTP d   1     -13.959  21.761   8.800  0.00  0.00     0.122 H 
ENDROOT
BRANCH   1  10
ATOM     10  C5' GTP d   1     -13.070  17.793  10.015  0.00  0.00     0.058 C 
ATOM     11  H   GTP d   1     -13.520  17.774  11.018  0.00  0.00     0.079 H 
ATOM     12  H   GTP d   1     -13.227  16.821   9.524  0.00  0.00     0.079 H 
BRANCH  10  13
ATOM     13  O5' GTP d   1     -11.656  18.064  10.120  0.00  0.00    -0.287 OA
BRANCH  13  14
ATOM     14  PA  GTP d   1     -10.621  16.884  10.419  0.00  0.00     0.417 P 
ATOM     15  O1A GTP d   1      -9.257  17.458  10.253  0.00  0.00    -0.624 OA
ATOM     16  O2A GTP d   1     -10.901  15.635   9.587  0.00  0.00    -0.624 OA
BRANCH  14  17
ATOM     17  O3A GTP d   1     -10.937  16.568  11.987  0.00  0.00    -0.180 OA
BRANCH  17  18
ATOM     18  PB  GTP d   1     -10.416  15.310  12.806  0.00  0.00     0.428 P 
ATOM     19  O1B GTP d   1     -10.587  15.718  14.249  0.00  0.00    -0.624 OA
ATOM     20  O2B GTP d   1      -8.961  15.034  12.443  0.00  0.00    -0.624 OA
BRANCH  18  21
ATOM     21  O3B GTP d   1     -11.407  14.112  12.356  0.00  0.00    -0.173 OA
BRANCH  21  22
ATOM     22  PG  GTP d   1     -11.237  12.514  12.710  0.00  0.00     0.431 P 
ATOM     23  O1G GTP d   1      -9.795  12.161  12.548  0.00  0.00    -0.616 OA
ATOM     24  O2G GTP d   1     -11.710  12.235  14.117  0.00  0.00    -0.616 OA
ATOM     25  O3G GTP d   1     -12.062  11.965  11.575  0.00  0.00    -0.616 OA
ENDBRANCH  21  22
ENDBRANCH  18  21
ENDBRANCH  17  18
ENDBRANCH  14  17
ENDBRANCH  13  14
ENDBRANCH  10  13
ENDBRANCH   1  10
BRANCH   3  26
ATOM     26  O3' GTP d   1     -13.948  19.577   6.926  0.00  0.00    -0.390 OA
ATOM     27  H   GTP d   1     -13.518  19.788   6.106  0.00  0.00     0.210 HD
ENDBRANCH   3  26
BRANCH   5  28
ATOM     28  N9  GTP d   1     -12.301  21.961  10.176  0.00  0.00    -0.295 N 
ATOM     29  C8  GTP d   1     -11.223  21.522  10.947  0.00  0.00     0.071 A 
ATOM     30  N7  GTP d   1     -10.737  22.629  11.612  0.00  0.00    -0.234 NA
ATOM     31  H   GTP d   1     -10.840  20.504  11.011  0.00  0.00     0.144 H 
ATOM     32  C5  GTP d   1     -11.515  23.691  11.299  0.00  0.00     0.171 A 
ATOM     33  C6  GTP d   1     -11.516  25.030  11.679  0.00  0.00     0.292 A 
ATOM     34  C4  GTP d   1     -12.490  23.285  10.416  0.00  0.00     0.161 A 
ATOM     35  O6  GTP d   1     -10.646  25.460  12.443  0.00  0.00    -0.265 OA
ATOM     36  N1  GTP d   1     -12.428  25.903  11.125  0.00  0.00    -0.154 N 
ATOM     37  C2  GTP d   1     -13.408  25.454  10.253  0.00  0.00     0.680 A 
ATOM     38  H   GTP d   1     -12.382  26.875  11.356  0.00  0.00     0.187 HD
ATOM     39  N3  GTP d   1     -13.429  24.146   9.929  0.00  0.00    -0.174 N 
ATOM     40  H   GTP d   1     -14.166  23.791   9.303  0.00  0.00     0.186 HD
BRANCH  37  41
ATOM     41  N2  GTP d   1     -14.363  26.261   9.719  0.00  0.00    -0.234 N 
ATOM     42  H   GTP d   1     -15.066  25.871   9.076  0.00  0.00     0.174 HD
ATOM     43  H   GTP d   1     -14.383  27.263   9.958  0.00  0.00     0.174 HD
ENDBRANCH  37  41
ENDBRANCH   5  28
BRANCH   4  44
ATOM     44  O2' GTP d   1     -11.879  21.291   7.101  0.00  0.00    -0.388 OA
ATOM     45  H   GTP d   1     -11.318  20.787   6.523  0.00  0.00     0.210 HD
ENDBRANCH   4  44
TORSDOF 11
