REMARK  15 active torsions:
REMARK  status: ('A' for Active; 'I' for Inactive)
REMARK    1  A    between atoms: C2_2  and  C1_1 
REMARK    2  A    between atoms: C2_2  and  C3_3 
REMARK    3  A    between atoms: N1_29  and  C2_2 
REMARK    4  A    between atoms: C3_3  and  C4_4 
REMARK    5  A    between atoms: C4_4  and  C5_5 
REMARK       I    between atoms: N2_27  and  C6_6 
REMARK       I    between atoms: C6_6  and  N1_29 
REMARK    6  A    between atoms: C20_11  and  C21_12 
REMARK       I    between atoms: N3_13  and  C20_11 
REMARK    7  A    between atoms: N3_13  and  C13_14 
REMARK    8  A    between atoms: C12_19  and  N3_13 
REMARK    9  A    between atoms: C13_14  and  C14_15 
REMARK   10  A    between atoms: C11_20  and  C12_19 
REMARK   11  A    between atoms: C10_21  and  C11_20 
REMARK   12  A    between atoms: C9_22  and  C10_21 
REMARK   13  A    between atoms: C7_23  and  C9_22 
REMARK   14  A    between atoms: C7_23  and  C8_24 
REMARK   15  A    between atoms: C7_23  and  N2_27 
ROOT
ATOM      1  C10 JB7 d   1      22.263  19.608  36.551  0.00  0.00    -0.061 C 
ATOM      2  H   JB7 d   1      22.730  19.322  35.597  0.00  0.00     0.033 H 
ATOM      3  H   JB7 d   1      22.393  20.688  36.714  0.00  0.00     0.033 H 
ENDROOT
BRANCH   1   4
ATOM      4  C11 JB7 d   1      22.909  18.826  37.702  0.00  0.00    -0.050 C 
ATOM      5  H   JB7 d   1      22.366  19.057  38.630  0.00  0.00     0.035 H 
ATOM      6  H   JB7 d   1      22.825  17.751  37.485  0.00  0.00     0.035 H 
BRANCH   4   7
ATOM      7  C12 JB7 d   1      24.367  19.163  37.902  0.00  0.00    -0.002 C 
ATOM      8  H   JB7 d   1      24.912  18.866  36.994  0.00  0.00     0.064 H 
ATOM      9  H   JB7 d   1      24.448  20.251  38.039  0.00  0.00     0.064 H 
BRANCH   7  10
ATOM     10  N3  JB7 d   1      25.013  18.509  39.056  0.00  0.00    -0.348 N 
ATOM     11  C20 JB7 d   1      24.762  18.831  40.317  0.00  0.00     0.216 C 
ATOM     12  O8  JB7 d   1      24.025  19.770  40.536  0.00  0.00    -0.274 OA
BRANCH  11  13
ATOM     13  C21 JB7 d   1      25.397  18.104  41.471  0.00  0.00    -0.003 C 
ATOM     14  H   JB7 d   1      26.028  17.288  41.088  0.00  0.00     0.040 H 
ATOM     15  H   JB7 d   1      24.612  17.687  42.118  0.00  0.00     0.040 H 
ATOM     16  H   JB7 d   1      26.016  18.805  42.050  0.00  0.00     0.040 H 
ENDBRANCH  11  13
BRANCH  10  17
ATOM     17  C13 JB7 d   1      26.090  17.624  38.630  0.00  0.00     0.021 C 
ATOM     18  H   JB7 d   1      26.870  17.643  39.406  0.00  0.00     0.071 H 
ATOM     19  H   JB7 d   1      26.500  18.019  37.689  0.00  0.00     0.071 H 
BRANCH  17  20
ATOM     20  C14 JB7 d   1      25.709  16.209  38.402  0.00  0.00    -0.040 A 
ATOM     21  C15 JB7 d   1      26.024  15.265  39.402  0.00  0.00    -0.074 A 
ATOM     22  C16 JB7 d   1      25.742  13.899  39.209  0.00  0.00    -0.066 A 
ATOM     23  H   JB7 d   1      26.486  15.594  40.326  0.00  0.00     0.084 H 
ATOM     24  C17 JB7 d   1      25.195  13.543  37.983  0.00  0.00     0.011 A 
ATOM     25  H   JB7 d   1      25.942  13.162  39.979  0.00  0.00     0.085 H 
ATOM     26  C18 JB7 d   1      24.925  14.482  36.968  0.00  0.00    -0.066 A 
ATOM     27 BR   JB7 d   1      24.888  11.651  37.754  0.00  0.00    -0.051 Br
ATOM     28  C19 JB7 d   1      25.176  15.836  37.188  0.00  0.00    -0.074 A 
ATOM     29  H   JB7 d   1      24.523  14.152  36.017  0.00  0.00     0.085 H 
ATOM     30  H   JB7 d   1      24.958  16.574  36.425  0.00  0.00     0.084 H 
ENDBRANCH  17  20
ENDBRANCH  10  17
ENDBRANCH   7  10
ENDBRANCH   4   7
ENDBRANCH   1   4
BRANCH   1  31
ATOM     31  C9  JB7 d   1      20.765  19.262  36.522  0.00  0.00    -0.036 C 
ATOM     32  H   JB7 d   1      20.322  19.585  37.475  0.00  0.00     0.036 H 
ATOM     33  H   JB7 d   1      20.669  18.171  36.425  0.00  0.00     0.036 H 
BRANCH  31  34
ATOM     34  C7  JB7 d   1      19.974  19.910  35.388  0.00  0.00     0.098 C 
ATOM     35  H   JB7 d   1      20.233  20.979  35.352  0.00  0.00     0.089 H 
BRANCH  34  36
ATOM     36  C8  JB7 d   1      20.243  19.311  34.042  0.00  0.00     0.196 C 
ATOM     37  O7  JB7 d   1      19.674  18.193  33.673  0.00  0.00    -0.646 OA
ATOM     38  O6  JB7 d   1      20.885  19.864  33.165  0.00  0.00    -0.646 OA
ENDBRANCH  34  36
BRANCH  34  39
ATOM     39  N2  JB7 d   1      18.589  19.766  35.664  0.00  0.00    -0.329 N 
ATOM     40  C6  JB7 d   1      17.902  20.595  36.475  0.00  0.00     0.317 C 
ATOM     41  O5  JB7 d   1      18.355  21.603  37.023  0.00  0.00    -0.247 OA
ATOM     42  N1  JB7 d   1      16.681  20.173  36.838  0.00  0.00    -0.329 N 
ATOM     43  H   JB7 d   1      16.191  19.493  36.293  0.00  0.00     0.165 HD
ATOM     44  H   JB7 d   1      18.097  19.009  35.234  0.00  0.00     0.165 HD
BRANCH  42  45
ATOM     45  C2  JB7 d   1      16.103  20.715  38.014  0.00  0.00     0.098 C 
ATOM     46  H   JB7 d   1      15.895  21.785  37.870  0.00  0.00     0.089 H 
BRANCH  45  47
ATOM     47  C1  JB7 d   1      17.033  20.507  39.153  0.00  0.00     0.196 C 
ATOM     48  O2  JB7 d   1      17.868  19.589  39.161  0.00  0.00    -0.646 OA
ATOM     49  O1  JB7 d   1      16.848  21.357  40.162  0.00  0.00    -0.646 OA
ENDBRANCH  45  47
BRANCH  45  50
ATOM     50  C3  JB7 d   1      14.823  19.965  38.375  0.00  0.00    -0.028 C 
ATOM     51  H   JB7 d   1      14.080  20.135  37.582  0.00  0.00     0.037 H 
ATOM     52  H   JB7 d   1      14.440  20.361  39.327  0.00  0.00     0.037 H 
BRANCH  50  53
ATOM     53  C4  JB7 d   1      15.042  18.452  38.526  0.00  0.00     0.018 C 
ATOM     54  H   JB7 d   1      15.937  18.288  39.144  0.00  0.00     0.049 H 
ATOM     55  H   JB7 d   1      15.202  18.020  37.527  0.00  0.00     0.049 H 
BRANCH  53  56
ATOM     56  C5  JB7 d   1      13.863  17.740  39.180  0.00  0.00     0.172 C 
ATOM     57  O3  JB7 d   1      12.989  18.262  39.922  0.00  0.00    -0.648 OA
ATOM     58  O4  JB7 d   1      13.765  16.430  38.950  0.00  0.00    -0.648 OA
ENDBRANCH  53  56
ENDBRANCH  50  53
ENDBRANCH  45  50
ENDBRANCH  42  45
ENDBRANCH  34  39
ENDBRANCH  31  34
ENDBRANCH   1  31
TORSDOF 15
