REMARK  12 active torsions:
REMARK  status: ('A' for Active; 'I' for Inactive)
REMARK       I    between atoms: C12_2  and  N2_3 
REMARK    1  A    between atoms: N2_3  and  C11_4 
REMARK    2  A    between atoms: C11_4  and  C10_5 
REMARK    3  A    between atoms: C10_5  and  C9_6 
REMARK    4  A    between atoms: C9_6  and  C8_7 
REMARK    5  A    between atoms: C8_7  and  C1_8 
REMARK    6  A    between atoms: C1_8  and  N_9 
REMARK    7  A    between atoms: C1_8  and  C_22 
REMARK       I    between atoms: N_9  and  C2_10 
REMARK       I    between atoms: C2_10  and  N1_12 
REMARK    8  A    between atoms: N1_12  and  C3_13 
REMARK    9  A    between atoms: C3_13  and  C7_14 
REMARK   10  A    between atoms: C3_13  and  C4_17 
REMARK   11  A    between atoms: C4_17  and  C5_18 
REMARK   12  A    between atoms: C5_18  and  C6_19 
ROOT
ATOM      1  C1  J96 d   1     -19.896 -20.132 -44.202  0.00  0.00     0.098 C 
ATOM      2  H   J96 d   1     -20.018 -21.222 -44.283  0.00  0.00     0.089 H 
ENDROOT
BRANCH   1   3
ATOM      3  C8  J96 d   1     -20.882 -19.532 -43.180  0.00  0.00    -0.036 C 
ATOM      4  H   J96 d   1     -20.559 -19.867 -42.184  0.00  0.00     0.036 H 
ATOM      5  H   J96 d   1     -20.790 -18.438 -43.246  0.00  0.00     0.036 H 
BRANCH   3   6
ATOM      6  C9  J96 d   1     -22.350 -19.863 -43.305  0.00  0.00    -0.061 C 
ATOM      7  H   J96 d   1     -22.681 -19.699 -44.341  0.00  0.00     0.033 H 
ATOM      8  H   J96 d   1     -22.518 -20.914 -43.028  0.00  0.00     0.033 H 
BRANCH   6   9
ATOM      9  C10 J96 d   1     -23.146 -18.935 -42.348  0.00  0.00    -0.050 C 
ATOM     10  H   J96 d   1     -24.171 -19.327 -42.269  0.00  0.00     0.035 H 
ATOM     11  H   J96 d   1     -22.663 -18.970 -41.361  0.00  0.00     0.035 H 
BRANCH   9  12
ATOM     12  C11 J96 d   1     -23.233 -17.460 -42.783  0.00  0.00    -0.005 C 
ATOM     13  H   J96 d   1     -22.821 -16.849 -41.967  0.00  0.00     0.064 H 
ATOM     14  H   J96 d   1     -22.609 -17.342 -43.681  0.00  0.00     0.064 H 
BRANCH  12  15
ATOM     15  N2  J96 d   1     -24.575 -16.932 -43.101  0.00  0.00    -0.368 N 
ATOM     16  C12 J96 d   1     -25.372 -16.473 -42.137  0.00  0.00     0.168 C 
ATOM     17  O23 J96 d   1     -25.340 -16.882 -40.983  0.00  0.00    -0.284 OA
ATOM     18  H   J96 d   1     -26.090 -15.693 -42.388  0.00  0.00     0.179 H 
ATOM     19  H   J96 d   1     -24.889 -16.919 -44.050  0.00  0.00     0.161 HD
ENDBRANCH  12  15
ENDBRANCH   9  12
ENDBRANCH   6   9
ENDBRANCH   3   6
ENDBRANCH   1   3
BRANCH   1  20
ATOM     20  N   J96 d   1     -18.582 -19.775 -43.725  0.00  0.00    -0.329 N 
ATOM     21  C2  J96 d   1     -17.863 -20.521 -42.872  0.00  0.00     0.317 C 
ATOM     22  O6  J96 d   1     -18.310 -21.588 -42.397  0.00  0.00    -0.247 OA
ATOM     23  N1  J96 d   1     -16.590 -20.154 -42.621  0.00  0.00    -0.329 N 
ATOM     24  H   J96 d   1     -16.072 -19.573 -43.249  0.00  0.00     0.165 HD
ATOM     25  H   J96 d   1     -18.182 -18.918 -44.050  0.00  0.00     0.165 HD
BRANCH  23  26
ATOM     26  C3  J96 d   1     -16.010 -20.659 -41.371  0.00  0.00     0.098 C 
ATOM     27  H   J96 d   1     -15.818 -21.735 -41.494  0.00  0.00     0.089 H 
BRANCH  26  28
ATOM     28  C7  J96 d   1     -16.997 -20.452 -40.240  0.00  0.00     0.196 C 
ATOM     29  O5  J96 d   1     -17.905 -19.581 -40.195  0.00  0.00    -0.646 OA
ATOM     30  O4  J96 d   1     -16.888 -21.310 -39.222  0.00  0.00    -0.646 OA
ENDBRANCH  26  28
BRANCH  26  31
ATOM     31  C4  J96 d   1     -14.680 -19.968 -40.972  0.00  0.00    -0.028 C 
ATOM     32  H   J96 d   1     -13.904 -20.186 -41.721  0.00  0.00     0.037 H 
ATOM     33  H   J96 d   1     -14.350 -20.329 -39.987  0.00  0.00     0.037 H 
BRANCH  31  34
ATOM     34  C5  J96 d   1     -14.946 -18.437 -40.914  0.00  0.00     0.018 C 
ATOM     35  H   J96 d   1     -15.874 -18.269 -40.348  0.00  0.00     0.049 H 
ATOM     36  H   J96 d   1     -15.072 -18.069 -41.943  0.00  0.00     0.049 H 
BRANCH  34  37
ATOM     37  C6  J96 d   1     -13.853 -17.653 -40.266  0.00  0.00     0.172 C 
ATOM     38  O3  J96 d   1     -13.713 -16.424 -40.457  0.00  0.00    -0.648 OA
ATOM     39  O2  J96 d   1     -13.015 -18.209 -39.446  0.00  0.00    -0.648 OA
ENDBRANCH  34  37
ENDBRANCH  31  34
ENDBRANCH  26  31
ENDBRANCH  23  26
ENDBRANCH   1  20
BRANCH   1  40
ATOM     40  C   J96 d   1     -20.091 -19.465 -45.548  0.00  0.00     0.196 C 
ATOM     41  O1  J96 d   1     -19.564 -18.370 -45.783  0.00  0.00    -0.646 OA
ATOM     42  O   J96 d   1     -20.727 -20.095 -46.467  0.00  0.00    -0.646 OA
ENDBRANCH   1  40
TORSDOF 12
