REMARK  23 active torsions:
REMARK  status: ('A' for Active; 'I' for Inactive)
REMARK       I    between atoms: C21_2  and  N3_3 
REMARK    1  A    between atoms: C21_2  and  C22_37 
REMARK    2  A    between atoms: N3_3  and  C20_4 
REMARK    3  A    between atoms: C20_4  and  C19_5 
REMARK    4  A    between atoms: C19_5  and  O8_6 
REMARK    5  A    between atoms: O8_6  and  C18_7 
REMARK    6  A    between atoms: C13_12  and  C_13 
REMARK       I    between atoms: C_13  and  N_14 
REMARK    7  A    between atoms: N_14  and  C1_15 
REMARK    8  A    between atoms: C1_15  and  C2_16 
REMARK    9  A    between atoms: C2_16  and  C3_17 
REMARK   10  A    between atoms: C3_17  and  C4_18 
REMARK   11  A    between atoms: C4_18  and  C5_19 
REMARK   12  A    between atoms: C5_19  and  N1_20 
REMARK   13  A    between atoms: C5_19  and  C6_33 
REMARK       I    between atoms: N1_20  and  C7_21 
REMARK       I    between atoms: C7_21  and  N2_23 
REMARK   14  A    between atoms: N2_23  and  C8_24 
REMARK   15  A    between atoms: C8_24  and  C12_25 
REMARK   16  A    between atoms: C8_24  and  C9_28 
REMARK   17  A    between atoms: C9_28  and  C10_29 
REMARK   18  A    between atoms: C10_29  and  C11_30 
REMARK   19  A    between atoms: C22_37  and  C23_38 
REMARK   20  A    between atoms: C23_38  and  O9_39 
REMARK   21  A    between atoms: O9_39  and  C24_40 
REMARK   22  A    between atoms: C24_40  and  C25_41 
REMARK   23  A    between atoms: C25_41  and  O10_42 
ROOT
ATOM      1  C   J31 d   1     -25.490 -16.656 -43.079  0.00  0.00     0.254 C 
ATOM      2  N   J31 d   1     -24.345 -17.268 -43.377  0.00  0.00    -0.357 N 
ATOM      3  O   J31 d   1     -25.769 -16.390 -41.895  0.00  0.00    -0.268 OA
ATOM      4  H   J31 d   1     -24.128 -17.401 -44.344  0.00  0.00     0.162 HD
ENDROOT
BRANCH   2   5
ATOM      5  C1  J31 d   1     -23.376 -17.762 -42.386  0.00  0.00    -0.004 C 
ATOM      6  H   J31 d   1     -23.760 -17.532 -41.381  0.00  0.00     0.064 H 
ATOM      7  H   J31 d   1     -22.422 -17.238 -42.543  0.00  0.00     0.064 H 
BRANCH   5   8
ATOM      8  C2  J31 d   1     -23.119 -19.262 -42.470  0.00  0.00    -0.050 C 
ATOM      9  H   J31 d   1     -24.084 -19.789 -42.468  0.00  0.00     0.035 H 
ATOM     10  H   J31 d   1     -22.530 -19.572 -41.594  0.00  0.00     0.035 H 
BRANCH   8  11
ATOM     11  C3  J31 d   1     -22.347 -19.640 -43.748  0.00  0.00    -0.061 C 
ATOM     12  H   J31 d   1     -22.714 -19.024 -44.582  0.00  0.00     0.033 H 
ATOM     13  H   J31 d   1     -22.524 -20.702 -43.971  0.00  0.00     0.033 H 
BRANCH  11  14
ATOM     14  C4  J31 d   1     -20.874 -19.416 -43.589  0.00  0.00    -0.036 C 
ATOM     15  H   J31 d   1     -20.578 -19.788 -42.597  0.00  0.00     0.036 H 
ATOM     16  H   J31 d   1     -20.686 -18.334 -43.646  0.00  0.00     0.036 H 
BRANCH  14  17
ATOM     17  C5  J31 d   1     -19.989 -20.108 -44.639  0.00  0.00     0.098 C 
ATOM     18  H   J31 d   1     -20.177 -21.191 -44.676  0.00  0.00     0.089 H 
BRANCH  17  19
ATOM     19  N1  J31 d   1     -18.670 -19.814 -44.196  0.00  0.00    -0.329 N 
ATOM     20  C7  J31 d   1     -17.936 -20.611 -43.427  0.00  0.00     0.317 C 
ATOM     21  O7  J31 d   1     -18.400 -21.656 -42.941  0.00  0.00    -0.247 OA
ATOM     22  N2  J31 d   1     -16.685 -20.233 -43.124  0.00  0.00    -0.329 N 
ATOM     23  H   J31 d   1     -16.182 -19.607 -43.720  0.00  0.00     0.165 HD
ATOM     24  H   J31 d   1     -18.266 -18.946 -44.484  0.00  0.00     0.165 HD
BRANCH  22  25
ATOM     25  C8  J31 d   1     -16.072 -20.756 -41.904  0.00  0.00     0.098 C 
ATOM     26  H   J31 d   1     -15.848 -21.820 -42.072  0.00  0.00     0.089 H 
BRANCH  25  27
ATOM     27  C12 J31 d   1     -17.010 -20.633 -40.716  0.00  0.00     0.196 C 
ATOM     28  O6  J31 d   1     -16.879 -21.393 -39.735  0.00  0.00    -0.646 OA
ATOM     29  O5  J31 d   1     -17.946 -19.724 -40.723  0.00  0.00    -0.646 OA
ENDBRANCH  25  27
BRANCH  25  30
ATOM     30  C9  J31 d   1     -14.751 -20.026 -41.519  0.00  0.00    -0.028 C 
ATOM     31  H   J31 d   1     -14.002 -20.181 -42.309  0.00  0.00     0.037 H 
ATOM     32  H   J31 d   1     -14.371 -20.430 -40.569  0.00  0.00     0.037 H 
BRANCH  30  33
ATOM     33  C10 J31 d   1     -15.031 -18.505 -41.361  0.00  0.00     0.018 C 
ATOM     34  H   J31 d   1     -15.900 -18.375 -40.699  0.00  0.00     0.049 H 
ATOM     35  H   J31 d   1     -15.259 -18.085 -42.352  0.00  0.00     0.049 H 
BRANCH  33  36
ATOM     36  C11 J31 d   1     -13.874 -17.757 -40.782  0.00  0.00     0.172 C 
ATOM     37  O4  J31 d   1     -13.752 -16.525 -41.010  0.00  0.00    -0.648 OA
ATOM     38  O3  J31 d   1     -13.005 -18.374 -40.011  0.00  0.00    -0.648 OA
ENDBRANCH  33  36
ENDBRANCH  30  33
ENDBRANCH  25  30
ENDBRANCH  22  25
ENDBRANCH  17  19
BRANCH  17  39
ATOM     39  C6  J31 d   1     -20.201 -19.491 -45.999  0.00  0.00     0.196 C 
ATOM     40  O2  J31 d   1     -19.593 -18.365 -46.301  0.00  0.00    -0.646 OA
ATOM     41  O1  J31 d   1     -20.785 -20.064 -46.906  0.00  0.00    -0.646 OA
ENDBRANCH  17  39
ENDBRANCH  14  17
ENDBRANCH  11  14
ENDBRANCH   8  11
ENDBRANCH   5   8
ENDBRANCH   2   5
BRANCH   1  42
ATOM     42  C13 J31 d   1     -26.324 -16.255 -44.292  0.00  0.00     0.065 A 
ATOM     43  C18 J31 d   1     -26.302 -14.942 -44.765  0.00  0.00     0.084 A 
ATOM     44  C17 J31 d   1     -27.016 -14.555 -45.909  0.00  0.00    -0.050 A 
ATOM     45  C16 J31 d   1     -27.760 -15.523 -46.612  0.00  0.00    -0.080 A 
ATOM     46  H   J31 d   1     -26.995 -13.525 -46.247  0.00  0.00     0.087 H 
ATOM     47  C15 J31 d   1     -27.758 -16.831 -46.134  0.00  0.00    -0.082 A 
ATOM     48  H   J31 d   1     -28.319 -15.257 -47.502  0.00  0.00     0.083 H 
ATOM     49  C14 J31 d   1     -27.056 -17.195 -44.989  0.00  0.00    -0.065 A 
ATOM     50  H   J31 d   1     -28.320 -17.588 -46.670  0.00  0.00     0.083 H 
ATOM     51  H   J31 d   1     -27.084 -18.222 -44.643  0.00  0.00     0.085 H 
BRANCH  43  52
ATOM     52  O8  J31 d   1     -25.556 -14.049 -44.038  0.00  0.00    -0.348 OA
BRANCH  52  53
ATOM     53  C19 J31 d   1     -25.443 -12.673 -44.427  0.00  0.00     0.041 C 
ATOM     54  H   J31 d   1     -24.889 -12.599 -45.374  0.00  0.00     0.077 H 
ATOM     55  H   J31 d   1     -26.446 -12.239 -44.553  0.00  0.00     0.077 H 
BRANCH  53  56
ATOM     56  C20 J31 d   1     -24.702 -11.934 -43.346  0.00  0.00     0.015 C 
ATOM     57  H   J31 d   1     -23.788 -12.493 -43.096  0.00  0.00     0.067 H 
ATOM     58  H   J31 d   1     -24.431 -10.936 -43.719  0.00  0.00     0.067 H 
BRANCH  56  59
ATOM     59  N3  J31 d   1     -25.495 -11.786 -42.160  0.00  0.00    -0.359 N 
ATOM     60  C21 J31 d   1     -26.332 -10.757 -41.992  0.00  0.00     0.219 C 
ATOM     61  O23 J31 d   1     -26.532  -9.870 -42.842  0.00  0.00    -0.274 OA
ATOM     62  H   J31 d   1     -25.420 -12.473 -41.437  0.00  0.00     0.162 HD
BRANCH  60  63
ATOM     63  C22 J31 d   1     -27.047 -10.663 -40.665  0.00  0.00     0.029 C 
ATOM     64  H   J31 d   1     -26.487  -9.989 -40.000  0.00  0.00     0.050 H 
ATOM     65  H   J31 d   1     -27.100 -11.664 -40.212  0.00  0.00     0.050 H 
BRANCH  63  66
ATOM     66  C23 J31 d   1     -28.469 -10.119 -40.851  0.00  0.00     0.027 C 
ATOM     67  H   J31 d   1     -29.090 -10.879 -41.348  0.00  0.00     0.075 H 
ATOM     68  H   J31 d   1     -28.436  -9.210 -41.470  0.00  0.00     0.075 H 
BRANCH  66  69
ATOM     69  O9  J31 d   1     -29.034  -9.804 -39.568  0.00  0.00    -0.389 OA
BRANCH  69  70
ATOM     70  C24 J31 d   1     -30.480  -9.789 -39.498  0.00  0.00     0.039 C 
ATOM     71  H   J31 d   1     -30.827 -10.781 -39.173  0.00  0.00     0.077 H 
ATOM     72  H   J31 d   1     -30.879  -9.571 -40.500  0.00  0.00     0.077 H 
BRANCH  70  73
ATOM     73  C25 J31 d   1     -31.013  -8.736 -38.517  0.00  0.00     0.036 C 
ATOM     74  H   J31 d   1     -31.115  -9.195 -37.523  0.00  0.00     0.077 H 
ATOM     75  H   J31 d   1     -31.998  -8.392 -38.865  0.00  0.00     0.077 H 
BRANCH  73  76
ATOM     76  O10 J31 d   1     -30.137  -7.607 -38.418  0.00  0.00    -0.399 OA
ATOM     77  H   J31 d   1     -29.285  -7.895 -38.113  0.00  0.00     0.209 HD
ENDBRANCH  73  76
ENDBRANCH  70  73
ENDBRANCH  69  70
ENDBRANCH  66  69
ENDBRANCH  63  66
ENDBRANCH  60  63
ENDBRANCH  56  59
ENDBRANCH  53  56
ENDBRANCH  52  53
ENDBRANCH  43  52
ENDBRANCH   1  42
TORSDOF 23
