REMARK  8 active torsions:
REMARK  status: ('A' for Active; 'I' for Inactive)
REMARK    1  A    between atoms: N2_7  and  C8_1 
REMARK    2  A    between atoms: C5_2  and  N2_7 
REMARK    3  A    between atoms: C6_3  and  C7_27 
REMARK       I    between atoms: C7_27  and  N1_4 
REMARK    4  A    between atoms: N3_8  and  C3_9 
REMARK    5  A    between atoms: C11_13  and  O3_26 
REMARK    6  A    between atoms: C14_16  and  C23_33 
REMARK    7  A    between atoms: C18_30  and  C21_20 
REMARK    8  A    between atoms: C18_30  and  C22_32 
ROOT
ATOM      1  C5  E0G d   1      18.048  10.013  15.056  0.00  0.00     0.046 A 
ATOM      2  C6  E0G d   1      18.767  11.165  14.659  0.00  0.00     0.058 A 
ATOM      3  C2  E0G d   1      18.636  12.018  16.920  0.00  0.00    -0.054 A 
ATOM      4  C3  E0G d   1      17.898  10.908  17.304  0.00  0.00     0.060 A 
ATOM      5  C4  E0G d   1      17.621   9.895  16.385  0.00  0.00    -0.029 A 
ATOM      6  C1  E0G d   1      19.059  12.146  15.613  0.00  0.00    -0.063 A 
ATOM      7  H   E0G d   1      18.880  12.784  17.646  0.00  0.00     0.087 H 
ATOM      8  H   E0G d   1      17.074   9.014  16.701  0.00  0.00     0.090 H 
ATOM      9  H   E0G d   1      19.627  13.021  15.320  0.00  0.00     0.085 H 
ENDROOT
BRANCH   4  10
ATOM     10  N3  E0G d   1      17.312  10.852  18.600  0.00  0.00    -0.236 N 
ATOM     11  N4  E0G d   1      17.400   9.686  19.362  0.00  0.00    -0.162 NA
ATOM     12  C14 E0G d   1      16.702   9.957  20.452  0.00  0.00     0.176 A 
ATOM     13  C15 E0G d   1      16.174  11.274  20.431  0.00  0.00     0.070 A 
ATOM     14  C16 E0G d   1      16.575  11.809  19.224  0.00  0.00     0.053 A 
ATOM     15  C20 E0G d   1      15.333  12.046  21.338  0.00  0.00     0.164 C 
ATOM     16  C17 E0G d   1      16.169  13.173  18.752  0.00  0.00    -0.017 C 
ATOM     17  C18 E0G d   1      14.909  13.723  19.433  0.00  0.00    -0.036 C 
ATOM     18  H   E0G d   1      15.982  13.122  17.669  0.00  0.00     0.043 H 
ATOM     19  H   E0G d   1      16.999  13.868  18.949  0.00  0.00     0.043 H 
ATOM     20  C19 E0G d   1      15.030  13.480  20.947  0.00  0.00     0.002 C 
ATOM     21  H   E0G d   1      14.079  13.769  21.417  0.00  0.00     0.046 H 
ATOM     22  H   E0G d   1      15.839  14.118  21.333  0.00  0.00     0.046 H 
ATOM     23  O1  E0G d   1      14.866  11.547  22.362  0.00  0.00    -0.292 OA
BRANCH  12  24
ATOM     24  C23 E0G d   1      16.552   8.894  21.493  0.00  0.00     0.437 C 
ATOM     25  F1  E0G d   1      17.104   7.743  21.124  0.00  0.00    -0.164 F 
ATOM     26  F2  E0G d   1      17.110   9.215  22.611  0.00  0.00    -0.164 F 
ATOM     27  F3  E0G d   1      15.305   8.684  21.797  0.00  0.00    -0.164 F 
ENDBRANCH  12  24
BRANCH  17  28
ATOM     28  C21 E0G d   1      13.663  13.020  18.886  0.00  0.00    -0.069 C 
ATOM     29  H   E0G d   1      13.586  13.200  17.804  0.00  0.00     0.028 H 
ATOM     30  H   E0G d   1      12.768  13.416  19.388  0.00  0.00     0.028 H 
ATOM     31  H   E0G d   1      13.740  11.939  19.073  0.00  0.00     0.028 H 
ENDBRANCH  17  28
BRANCH  17  32
ATOM     32  C22 E0G d   1      14.792  15.213  19.143  0.00  0.00    -0.069 C 
ATOM     33  H   E0G d   1      13.890  15.611  19.630  0.00  0.00     0.028 H 
ATOM     34  H   E0G d   1      14.723  15.371  18.057  0.00  0.00     0.028 H 
ATOM     35  H   E0G d   1      15.679  15.733  19.533  0.00  0.00     0.028 H 
ENDBRANCH  17  32
ENDBRANCH   4  10
BRANCH   1  36
ATOM     36  N2  E0G d   1      17.759   9.013  14.126  0.00  0.00    -0.384 N 
ATOM     37  H   E0G d   1      18.091   9.189  13.167  0.00  0.00     0.160 HD
BRANCH  36  38
ATOM     38  C8  E0G d   1      17.051   7.753  14.326  0.00  0.00     0.010 C 
ATOM     39  C13 E0G d   1      15.539   7.941  14.218  0.00  0.00    -0.044 C 
ATOM     40  C12 E0G d   1      14.771   6.600  14.303  0.00  0.00    -0.039 C 
ATOM     41  H   E0G d   1      15.310   8.419  13.254  0.00  0.00     0.036 H 
ATOM     42  H   E0G d   1      15.204   8.592  15.039  0.00  0.00     0.036 H 
ATOM     43  C11 E0G d   1      15.319   5.556  13.339  0.00  0.00     0.035 C 
ATOM     44  H   E0G d   1      14.852   6.211  15.329  0.00  0.00     0.036 H 
ATOM     45  H   E0G d   1      13.713   6.783  14.062  0.00  0.00     0.036 H 
ATOM     46  C10 E0G d   1      16.820   5.387  13.490  0.00  0.00    -0.039 C 
ATOM     47  H   E0G d   1      15.094   5.872  12.310  0.00  0.00     0.082 H 
ATOM     48  C9  E0G d   1      17.542   6.718  13.325  0.00  0.00    -0.044 C 
ATOM     49  H   E0G d   1      17.181   4.685  12.724  0.00  0.00     0.036 H 
ATOM     50  H   E0G d   1      17.037   4.982  14.489  0.00  0.00     0.036 H 
ATOM     51  H   E0G d   1      18.620   6.560  13.476  0.00  0.00     0.036 H 
ATOM     52  H   E0G d   1      17.366   7.095  12.307  0.00  0.00     0.036 H 
ATOM     53  H   E0G d   1      17.277   7.388  15.339  0.00  0.00     0.072 H 
BRANCH  43  54
ATOM     54  O3  E0G d   1      14.702   4.281  13.595  0.00  0.00    -0.396 OA
ATOM     55  H   E0G d   1      13.762   4.356  13.476  0.00  0.00     0.210 HD
ENDBRANCH  43  54
ENDBRANCH  36  38
ENDBRANCH   1  36
BRANCH   2  56
ATOM     56  C7  E0G d   1      19.211  11.401  13.245  0.00  0.00     0.251 C 
ATOM     57  N1  E0G d   1      20.335  12.102  13.044  0.00  0.00    -0.366 N 
ATOM     58  H   E0G d   1      20.656  12.276  12.113  0.00  0.00     0.159 HD
ATOM     59  H   E0G d   1      20.853  12.452  13.825  0.00  0.00     0.159 HD
ATOM     60  O2  E0G d   1      18.522  10.976  12.311  0.00  0.00    -0.268 OA
ENDBRANCH   2  56
TORSDOF 8
