REMARK  7 active torsions:
REMARK  status: ('A' for Active; 'I' for Inactive)
REMARK    1  A    between atoms: C1_1  and  C2_2 
REMARK    2  A    between atoms: N4_4  and  C14_14 
REMARK    3  A    between atoms: C10_10  and  C11_11 
REMARK    4  A    between atoms: C10_10  and  C12_12 
REMARK    5  A    between atoms: C16_16  and  N17_17 
REMARK    6  A    between atoms: N17_17  and  C18_18 
REMARK    7  A    between atoms: C24_23  and  C25_24 
REMARK       I    between atoms: C25_24  and  N26_25 
ROOT
ATOM      1  C14 2LC d   1       2.829 -11.365 -24.085  0.00  0.00     0.044 A 
ATOM      2  C15 2LC d   1       2.245 -10.200 -24.579  0.00  0.00    -0.030 A 
ATOM      3  C16 2LC d   1       0.864 -10.147 -24.798  0.00  0.00     0.049 A 
ATOM      4  C24 2LC d   1       0.069 -11.308 -24.533  0.00  0.00     0.096 A 
ATOM      5  C28 2LC d   1       0.717 -12.443 -24.057  0.00  0.00     0.136 A 
ATOM      6  F29 2LC d   1      -0.021 -13.565 -23.874  0.00  0.00    -0.205 F 
ATOM      7  C30 2LC d   1       2.061 -12.499 -23.800  0.00  0.00    -0.018 A 
ATOM      8  H   2LC d   1       2.861  -9.334 -24.794  0.00  0.00     0.090 H 
ATOM      9  H   2LC d   1       2.515 -13.393 -23.389  0.00  0.00     0.091 H 
ENDROOT
BRANCH   1  10
ATOM     10  N4  2LC d   1       4.254 -11.400 -23.881  0.00  0.00    -0.324 N 
ATOM     11  C3  2LC d   1       5.008 -10.331 -23.423  0.00  0.00    -0.008 A 
ATOM     12  C2  2LC d   1       6.328 -10.622 -23.509  0.00  0.00    -0.030 A 
ATOM     13  H   2LC d   1       4.599  -9.394 -23.049  0.00  0.00     0.113 H 
ATOM     14  C6  2LC d   1       6.420 -11.953 -24.043  0.00  0.00     0.040 A 
ATOM     15  C5  2LC d   1       5.133 -12.400 -24.277  0.00  0.00     0.031 A 
ATOM     16  C7  2LC d   1       7.540 -12.859 -24.347  0.00  0.00     0.162 C 
ATOM     17  C13 2LC d   1       4.777 -13.712 -24.911  0.00  0.00    -0.019 C 
ATOM     18  C10 2LC d   1       5.930 -14.357 -25.689  0.00  0.00    -0.036 C 
ATOM     19  H   2LC d   1       3.940 -13.546 -25.605  0.00  0.00     0.043 H 
ATOM     20  H   2LC d   1       4.463 -14.406 -24.118  0.00  0.00     0.043 H 
ATOM     21  C9  2LC d   1       7.205 -14.251 -24.836  0.00  0.00     0.002 C 
ATOM     22  H   2LC d   1       7.081 -14.900 -23.956  0.00  0.00     0.046 H 
ATOM     23  H   2LC d   1       8.050 -14.611 -25.441  0.00  0.00     0.046 H 
ATOM     24  O8  2LC d   1       8.706 -12.495 -24.243  0.00  0.00    -0.292 OA
BRANCH  12  25
ATOM     25  C1  2LC d   1       7.447  -9.683 -23.133  0.00  0.00    -0.049 C 
ATOM     26  H   2LC d   1       7.024  -8.741 -22.755  0.00  0.00     0.033 H 
ATOM     27  H   2LC d   1       8.066  -9.477 -24.019  0.00  0.00     0.033 H 
ATOM     28  H   2LC d   1       8.067 -10.146 -22.351  0.00  0.00     0.033 H 
ENDBRANCH  12  25
BRANCH  18  29
ATOM     29  C11 2LC d   1       6.134 -13.641 -27.027  0.00  0.00    -0.069 C 
ATOM     30  H   2LC d   1       5.217 -13.722 -27.630  0.00  0.00     0.028 H 
ATOM     31  H   2LC d   1       6.971 -14.106 -27.568  0.00  0.00     0.028 H 
ATOM     32  H   2LC d   1       6.360 -12.580 -26.845  0.00  0.00     0.028 H 
ENDBRANCH  18  29
BRANCH  18  33
ATOM     33  C12 2LC d   1       5.598 -15.821 -25.964  0.00  0.00    -0.069 C 
ATOM     34  H   2LC d   1       5.449 -16.349 -25.010  0.00  0.00     0.028 H 
ATOM     35  H   2LC d   1       6.428 -16.288 -26.515  0.00  0.00     0.028 H 
ATOM     36  H   2LC d   1       4.678 -15.882 -26.565  0.00  0.00     0.028 H 
ENDBRANCH  18  33
ENDBRANCH   1  10
BRANCH   3  37
ATOM     37  N17 2LC d   1       0.281  -8.972 -25.225  0.00  0.00    -0.382 N 
ATOM     38  H   2LC d   1      -0.748  -8.965 -25.275  0.00  0.00     0.160 HD
BRANCH  37  39
ATOM     39  C18 2LC d   1       0.956  -7.737 -25.614  0.00  0.00     0.032 C 
ATOM     40  C20 2LC d   1       1.495  -7.848 -27.046  0.00  0.00    -0.025 C 
ATOM     41  C21 2LC d   1       0.275  -7.519 -27.895  0.00  0.00     0.021 C 
ATOM     42  H   2LC d   1       1.859  -8.865 -27.254  0.00  0.00     0.039 H 
ATOM     43  H   2LC d   1       2.305  -7.125 -27.221  0.00  0.00     0.039 H 
ATOM     44  O22 2LC d   1      -0.606  -6.761 -27.044  0.00  0.00    -0.389 OA
ATOM     45  H   2LC d   1      -0.218  -8.443 -28.230  0.00  0.00     0.074 H 
ATOM     46  H   2LC d   1       0.568  -6.922 -28.771  0.00  0.00     0.074 H 
ATOM     47  C23 2LC d   1      -0.039  -6.607 -25.743  0.00  0.00     0.038 C 
ATOM     48  H   2LC d   1       0.467  -5.634 -25.654  0.00  0.00     0.077 H 
ATOM     49  H   2LC d   1      -0.818  -6.687 -24.970  0.00  0.00     0.077 H 
ATOM     50  H   2LC d   1       1.753  -7.499 -24.894  0.00  0.00     0.075 H 
ENDBRANCH  37  39
ENDBRANCH   3  37
BRANCH   4  51
ATOM     51  C25 2LC d   1      -1.417 -11.316 -24.818  0.00  0.00     0.254 C 
ATOM     52  N26 2LC d   1      -1.794 -10.655 -25.886  0.00  0.00    -0.366 N 
ATOM     53  H   2LC d   1      -2.762 -10.618 -26.135  0.00  0.00     0.159 HD
ATOM     54  H   2LC d   1      -1.114 -10.188 -26.451  0.00  0.00     0.159 HD
ATOM     55  O27 2LC d   1      -2.223 -11.949 -24.104  0.00  0.00    -0.268 OA
ENDBRANCH   4  51
TORSDOF 7
