REMARK  5 active torsions:
REMARK  status: ('A' for Active; 'I' for Inactive)
REMARK    1  A    between atoms: SBD_2  and  CAT_5 
REMARK    2  A    between atoms: CAS_7  and  SBC_8 
REMARK    3  A    between atoms: CAV_22  and  OBF_23 
REMARK    4  A    between atoms: OBF_23  and  CAG_24 
REMARK    5  A    between atoms: CAU_26  and  SBE_27 
ROOT
ATOM      1  CAT 2M9 d   1       4.945  20.260  55.162  0.00  0.00     0.093 A 
ATOM      2  CAM 2M9 d   1       3.758  19.971  54.420  0.00  0.00    -0.034 A 
ATOM      3  CAS 2M9 d   1       2.793  18.963  54.764  0.00  0.00     0.093 A 
ATOM      4  CAW 2M9 d   1       3.043  18.218  55.929  0.00  0.00     0.000 A 
ATOM      5  CAO 2M9 d   1       2.178  17.188  56.347  0.00  0.00    -0.070 A 
ATOM      6  CAP 2M9 d   1       2.407  16.433  57.495  0.00  0.00    -0.070 A 
ATOM      7  CAX 2M9 d   1       5.160  19.486  56.352  0.00  0.00     0.000 A 
ATOM      8  CBA 2M9 d   1       4.231  18.457  56.719  0.00  0.00    -0.000 A 
ATOM      9  CBB 2M9 d   1       4.450  17.660  57.888  0.00  0.00     0.001 A 
ATOM     10  CAY 2M9 d   1       3.558  16.658  58.294  0.00  0.00     0.000 A 
ATOM     11  CAQ 2M9 d   1       6.323  19.663  57.148  0.00  0.00    -0.070 A 
ATOM     12  CAR 2M9 d   1       6.513  18.895  58.279  0.00  0.00    -0.069 A 
ATOM     13  CAZ 2M9 d   1       5.591  17.911  58.659  0.00  0.00     0.009 A 
ATOM     14  CAV 2M9 d   1       5.860  17.170  59.801  0.00  0.00     0.081 A 
ATOM     15  CAN 2M9 d   1       4.971  16.158  60.216  0.00  0.00    -0.025 A 
ATOM     16  CAU 2M9 d   1       3.779  15.910  59.495  0.00  0.00     0.094 A 
ATOM     17  H1  2M9 d   1       3.571  20.558  53.528  0.00  0.00     0.088 H 
ATOM     18  H2  2M9 d   1       1.298  16.974  55.751  0.00  0.00     0.084 H 
ATOM     19  H3  2M9 d   1       1.698  15.665  57.781  0.00  0.00     0.084 H 
ATOM     20  H4  2M9 d   1       7.063  20.403  56.867  0.00  0.00     0.084 H 
ATOM     21  H5  2M9 d   1       7.396  19.057  58.887  0.00  0.00     0.085 H 
ATOM     22  H9  2M9 d   1       5.202  15.565  61.094  0.00  0.00     0.090 H 
ENDROOT
BRANCH  14  23
ATOM     23  OBF 2M9 d   1       7.031  17.496  60.485  0.00  0.00    -0.355 OA
BRANCH  23  24
ATOM     24  CAG 2M9 d   1       7.711  16.532  61.302  0.00  0.00     0.010 C 
ATOM     25  H6  2M9 d   1       8.605  16.994  61.747  0.00  0.00     0.066 H 
ATOM     26  H7  2M9 d   1       8.011  15.673  60.683  0.00  0.00     0.066 H 
ATOM     27  H8  2M9 d   1       7.038  16.190  62.102  0.00  0.00     0.066 H 
ENDBRANCH  23  24
ENDBRANCH  14  23
BRANCH  16  28
ATOM     28  SBE 2M9 d   1       2.778  14.717  60.043  0.00  0.00     0.138 S 
ATOM     29  OAK 2M9 d   1       1.381  15.064  60.286  0.00  0.00    -0.591 OA
ATOM     30  OAE 2M9 d   1       2.804  13.609  59.019  0.00  0.00    -0.591 OA
ATOM     31  OAF 2M9 d   1       3.370  14.095  61.237  0.00  0.00    -0.591 OA
ENDBRANCH  16  28
BRANCH   3  32
ATOM     32  SBC 2M9 d   1       1.424  18.714  53.805  0.00  0.00     0.138 S 
ATOM     33  OAA 2M9 d   1       1.452  19.736  52.778  0.00  0.00    -0.591 OA
ATOM     34  OAB 2M9 d   1       1.440  17.352  53.334  0.00  0.00    -0.591 OA
ATOM     35  OAI 2M9 d   1       0.233  18.916  54.639  0.00  0.00    -0.591 OA
ENDBRANCH   3  32
BRANCH   1  36
ATOM     36  SBD 2M9 d   1       5.920  21.459  54.625  0.00  0.00     0.138 S 
ATOM     37  OAJ 2M9 d   1       5.769  22.620  55.528  0.00  0.00    -0.591 OA
ATOM     38  OAC 2M9 d   1       7.307  20.970  54.427  0.00  0.00    -0.591 OA
ATOM     39  OAD 2M9 d   1       5.489  22.023  53.317  0.00  0.00    -0.591 OA
ENDBRANCH   1  36
TORSDOF 5
