REMARK  5 active torsions:
REMARK  status: ('A' for Active; 'I' for Inactive)
REMARK    1  A    between atoms: SBD_2  and  CAT_5 
REMARK    2  A    between atoms: CAS_7  and  SBC_8 
REMARK    3  A    between atoms: CAV_22  and  OBF_23 
REMARK    4  A    between atoms: OBF_23  and  CAG_24 
REMARK    5  A    between atoms: CAU_26  and  SBE_27 
ROOT
ATOM      1  CAT 2M9 d   1     -31.972 -16.947  14.879  0.00  0.00     0.093 A 
ATOM      2  CAM 2M9 d   1     -31.624 -15.811  15.601  0.00  0.00    -0.034 A 
ATOM      3  CAS 2M9 d   1     -32.455 -15.271  16.602  0.00  0.00     0.093 A 
ATOM      4  CAW 2M9 d   1     -33.693 -15.902  16.856  0.00  0.00     0.000 A 
ATOM      5  CAO 2M9 d   1     -34.559 -15.416  17.864  0.00  0.00    -0.070 A 
ATOM      6  CAP 2M9 d   1     -35.772 -16.033  18.156  0.00  0.00    -0.070 A 
ATOM      7  CAX 2M9 d   1     -33.176 -17.565  15.154  0.00  0.00     0.000 A 
ATOM      8  CBA 2M9 d   1     -34.041 -17.058  16.144  0.00  0.00    -0.000 A 
ATOM      9  CBB 2M9 d   1     -35.255 -17.685  16.427  0.00  0.00     0.001 A 
ATOM     10  CAY 2M9 d   1     -36.120 -17.184  17.439  0.00  0.00     0.000 A 
ATOM     11  CAQ 2M9 d   1     -33.534 -18.693  14.409  0.00  0.00    -0.070 A 
ATOM     12  CAR 2M9 d   1     -34.786 -19.299  14.674  0.00  0.00    -0.069 A 
ATOM     13  CAZ 2M9 d   1     -35.623 -18.829  15.690  0.00  0.00     0.009 A 
ATOM     14  CAV 2M9 d   1     -36.849 -19.479  15.970  0.00  0.00     0.081 A 
ATOM     15  CAN 2M9 d   1     -37.691 -18.974  16.969  0.00  0.00    -0.025 A 
ATOM     16  CAU 2M9 d   1     -37.349 -17.829  17.710  0.00  0.00     0.094 A 
ATOM     17  H1  2M9 d   1     -30.680 -15.324  15.386  0.00  0.00     0.088 H 
ATOM     18  H2  2M9 d   1     -34.269 -14.536  18.426  0.00  0.00     0.084 H 
ATOM     19  H3  2M9 d   1     -36.430 -15.633  18.919  0.00  0.00     0.084 H 
ATOM     20  H4  2M9 d   1     -32.871 -19.092  13.650  0.00  0.00     0.084 H 
ATOM     21  H5  2M9 d   1     -35.102 -20.146  14.076  0.00  0.00     0.085 H 
ATOM     22  H9  2M9 d   1     -38.628 -19.478  17.176  0.00  0.00     0.090 H 
ENDROOT
BRANCH  14  23
ATOM     23  OBF 2M9 d   1     -37.233 -20.629  15.295  0.00  0.00    -0.355 OA
BRANCH  23  24
ATOM     24  CAG 2M9 d   1     -38.573 -21.138  15.374  0.00  0.00     0.010 C 
ATOM     25  H6  2M9 d   1     -38.655 -22.051  14.766  0.00  0.00     0.066 H 
ATOM     26  H7  2M9 d   1     -39.276 -20.381  14.995  0.00  0.00     0.066 H 
ATOM     27  H8  2M9 d   1     -38.815 -21.372  16.421  0.00  0.00     0.066 H 
ENDBRANCH  23  24
ENDBRANCH  14  23
BRANCH  16  28
ATOM     28  SBE 2M9 d   1     -38.395 -17.366  18.889  0.00  0.00     0.138 S 
ATOM     29  OAK 2M9 d   1     -37.732 -17.507  20.207  0.00  0.00    -0.591 OA
ATOM     30  OAE 2M9 d   1     -38.837 -15.941  18.826  0.00  0.00    -0.591 OA
ATOM     31  OAF 2M9 d   1     -39.512 -18.378  18.907  0.00  0.00    -0.591 OA
ENDBRANCH  16  28
BRANCH   3  32
ATOM     32  SBC 2M9 d   1     -31.998 -13.942  17.430  0.00  0.00     0.138 S 
ATOM     33  OAA 2M9 d   1     -30.612 -13.637  17.146  0.00  0.00    -0.591 OA
ATOM     34  OAB 2M9 d   1     -32.993 -12.897  17.129  0.00  0.00    -0.591 OA
ATOM     35  OAI 2M9 d   1     -32.085 -14.110  18.853  0.00  0.00    -0.591 OA
ENDBRANCH   3  32
BRANCH   1  36
ATOM     36  SBD 2M9 d   1     -31.014 -17.557  13.724  0.00  0.00     0.138 S 
ATOM     37  OAJ 2M9 d   1     -30.500 -18.931  14.104  0.00  0.00    -0.591 OA
ATOM     38  OAC 2M9 d   1     -31.795 -17.701  12.475  0.00  0.00    -0.591 OA
ATOM     39  OAD 2M9 d   1     -29.753 -16.760  13.562  0.00  0.00    -0.591 OA
ENDBRANCH   1  36
TORSDOF 5
