REMARK  10 active torsions:
REMARK  status: ('A' for Active; 'I' for Inactive)
REMARK    1  A    between atoms: PA_1  and  N3A_4 
REMARK    2  A    between atoms: PA_1  and  O5'_5 
REMARK    3  A    between atoms: N3A_4  and  PB_6 
REMARK    4  A    between atoms: O5'_5  and  C5'_14 
REMARK    5  A    between atoms: PB_6  and  O3B_9 
REMARK    6  A    between atoms: O3B_9  and  PG_10 
REMARK    7  A    between atoms: C5'_14  and  C4'_15 
REMARK    8  A    between atoms: C1'_17  and  N1_22 
REMARK    9  A    between atoms: C2'_18  and  O2'_19 
REMARK   10  A    between atoms: C3'_20  and  O3'_21 
ROOT
ATOM      1  C4' 2KH d   1      63.262  21.867  90.704  0.00  0.00     0.089 C 
ATOM      2  O4' 2KH d   1      63.889  23.050  91.224  0.00  0.00    -0.353 OA
ATOM      3  C1' 2KH d   1      64.953  23.387  90.361  0.00  0.00     0.141 C 
ATOM      4  C2' 2KH d   1      64.873  22.423  89.254  0.00  0.00     0.105 C 
ATOM      5  C3' 2KH d   1      64.273  21.257  89.876  0.00  0.00     0.091 C 
ATOM      6  H4  2KH d   1      62.377  22.132  90.107  0.00  0.00     0.090 H 
ATOM      7  H5  2KH d   1      64.816  24.409  89.979  0.00  0.00     0.123 H 
ATOM      8  H6  2KH d   1      65.874  22.197  88.858  0.00  0.00     0.093 H 
ATOM      9  H8  2KH d   1      65.014  20.723  90.489  0.00  0.00     0.091 H 
ENDROOT
BRANCH   1  10
ATOM     10  C5' 2KH d   1      62.867  20.949  91.779  0.00  0.00     0.058 C 
ATOM     11  H2  2KH d   1      62.125  21.466  92.405  0.00  0.00     0.079 H 
ATOM     12  H3  2KH d   1      62.403  20.068  91.312  0.00  0.00     0.079 H 
BRANCH  10  13
ATOM     13  O5' 2KH d   1      63.907  20.489  92.632  0.00  0.00    -0.293 OA
BRANCH  13  14
ATOM     14  PA  2KH d   1      63.667  19.290  93.655  0.00  0.00     0.368 P 
ATOM     15  O1A 2KH d   1      65.099  18.844  94.192  0.00  0.00    -0.629 OA
ATOM     16  O2A 2KH d   1      62.844  19.789  94.805  0.00  0.00    -0.629 OA
BRANCH  14  17
ATOM     17  N3A 2KH d   1      62.931  18.002  92.908  0.00  0.00    -0.225 N 
ATOM     18  H1  2KH d   1      63.308  17.575  92.086  0.00  0.00     0.178 HD
BRANCH  17  19
ATOM     19  PB  2KH d   1      61.538  17.475  93.613  0.00  0.00     0.379 P 
ATOM     20  O1B 2KH d   1      60.627  18.688  94.067  0.00  0.00    -0.629 OA
ATOM     21  O2B 2KH d   1      60.836  16.737  92.527  0.00  0.00    -0.629 OA
BRANCH  19  22
ATOM     22  O3B 2KH d   1      61.711  16.391  94.796  0.00  0.00    -0.178 OA
BRANCH  22  23
ATOM     23  PG  2KH d   1      61.605  16.682  96.340  0.00  0.00     0.431 P 
ATOM     24  O1G 2KH d   1      60.374  16.109  96.802  0.00  0.00    -0.616 OA
ATOM     25  O2G 2KH d   1      61.617  18.141  96.662  0.00  0.00    -0.616 OA
ATOM     26  O3G 2KH d   1      62.743  16.042  97.082  0.00  0.00    -0.616 OA
ENDBRANCH  22  23
ENDBRANCH  19  22
ENDBRANCH  17  19
ENDBRANCH  14  17
ENDBRANCH  13  14
ENDBRANCH  10  13
ENDBRANCH   1  10
BRANCH   5  27
ATOM     27  O3' 2KH d   1      63.710  20.341  88.953  0.00  0.00    -0.390 OA
ATOM     28  H9  2KH d   1      63.029  20.775  88.453  0.00  0.00     0.210 HD
ENDBRANCH   5  27
BRANCH   3  29
ATOM     29  N1  2KH d   1      66.218  23.313  91.030  0.00  0.00    -0.280 N 
ATOM     30  C6  2KH d   1      66.367  22.572  92.172  0.00  0.00    -0.009 A 
ATOM     31  C5  2KH d   1      67.605  22.493  92.807  0.00  0.00    -0.016 A 
ATOM     32  H10 2KH d   1      65.512  22.041  92.587  0.00  0.00     0.112 H 
ATOM     33  C4  2KH d   1      68.698  23.205  92.223  0.00  0.00     0.184 A 
ATOM     34  H12 2KH d   1      67.735  21.909  93.717  0.00  0.00     0.092 H 
ATOM     35  N3  2KH d   1      68.502  23.920  91.102  0.00  0.00    -0.286 N 
ATOM     36  O4  2KH d   1      69.942  23.139  92.821  0.00  0.00    -0.172 OA
ATOM     37  C2  2KH d   1      67.299  23.978  90.508  0.00  0.00     0.330 A 
ATOM     38  H11 2KH d   1      69.269  24.420  90.701  0.00  0.00     0.172 HD
ATOM     39  O2  2KH d   1      67.158  24.673  89.430  0.00  0.00    -0.246 OA
ENDBRANCH   3  29
BRANCH   4  40
ATOM     40  O2' 2KH d   1      64.045  22.876  88.214  0.00  0.00    -0.388 OA
ATOM     41  H7  2KH d   1      64.022  22.225  87.522  0.00  0.00     0.210 HD
ENDBRANCH   4  40
TORSDOF 10
