REMARK  13 active torsions:
REMARK  status: ('A' for Active; 'I' for Inactive)
REMARK    1  A    between atoms: O5'_1  and  C5'_2 
REMARK    2  A    between atoms: C5'_2  and  C4'_3 
REMARK    3  A    between atoms: C3'_5  and  O3'_6 
REMARK    4  A    between atoms: O3'_6  and  P_20 
REMARK    5  A    between atoms: C2'_7  and  O2'_8 
REMARK    6  A    between atoms: C1'_9  and  N9_10 
REMARK    7  A    between atoms: C6_14  and  N6_15 
REMARK    8  A    between atoms: P_20  and  O5'_23 
REMARK    9  A    between atoms: O5'_23  and  C5'_24 
REMARK   10  A    between atoms: C5'_24  and  C4'_25 
REMARK   11  A    between atoms: C3'_27  and  O3'_28 
REMARK   12  A    between atoms: C2'_29  and  O2'_30 
REMARK   13  A    between atoms: C1'_31  and  N1_32 
ROOT
ATOM      1  O3'   A d   1      10.547  20.177  12.887  0.00  0.00    -0.279 OA
ENDROOT
BRANCH   1   2
ATOM      2  C3'   A d   1      11.191  21.393  13.230  0.00  0.00     0.106 C 
ATOM      3  C4'   A d   1      11.240  21.639  14.732  0.00  0.00     0.089 C 
ATOM      4  O4'   A d   1      11.419  23.076  14.845  0.00  0.00    -0.353 OA
ATOM      5  H4    A d   1      10.277  21.341  15.171  0.00  0.00     0.090 H 
ATOM      6  C1'   A d   1      11.012  23.707  13.646  0.00  0.00     0.140 C 
ATOM      7  C2'   A d   1      10.453  22.624  12.725  0.00  0.00     0.106 C 
ATOM      8  H8    A d   1      10.230  24.451  13.857  0.00  0.00     0.122 H 
ATOM      9  H6    A d   1      10.650  22.825  11.662  0.00  0.00     0.093 H 
ATOM     10  H5    A d   1      12.210  21.367  12.817  0.00  0.00     0.092 H 
BRANCH   3  11
ATOM     11  C5'   A d   1      12.332  20.926  15.494  0.00  0.00     0.043 C 
ATOM     12  H2    A d   1      12.155  21.052  16.572  0.00  0.00     0.078 H 
ATOM     13  H3    A d   1      12.303  19.856  15.240  0.00  0.00     0.078 H 
BRANCH  11  14
ATOM     14  O5'   A d   1      13.617  21.440  15.176  0.00  0.00    -0.398 OA
ATOM     15  H1    A d   1      13.651  22.363  15.398  0.00  0.00     0.209 HD
ENDBRANCH  11  14
ENDBRANCH   3  11
BRANCH   6  16
ATOM     16  N9    A d   1      12.178  24.383  13.044  0.00  0.00    -0.294 N 
ATOM     17  C8    A d   1      13.494  24.306  13.446  0.00  0.00     0.071 A 
ATOM     18  N7    A d   1      14.311  25.021  12.709  0.00  0.00    -0.236 NA
ATOM     19  H9    A d   1      13.824  23.709  14.294  0.00  0.00     0.144 H 
ATOM     20  C5    A d   1      13.484  25.610  11.757  0.00  0.00     0.149 A 
ATOM     21  C6    A d   1      13.751  26.480  10.687  0.00  0.00     0.155 A 
ATOM     22  C4    A d   1      12.167  25.227  11.949  0.00  0.00     0.167 A 
ATOM     23  N1    A d   1      12.708  26.879   9.927  0.00  0.00    -0.222 NA
ATOM     24  C2    A d   1      11.484  26.425  10.228  0.00  0.00     0.091 A 
ATOM     25  N3    A d   1      11.108  25.606  11.207  0.00  0.00    -0.222 NA
ATOM     26  H12   A d   1      10.687  26.774   9.582  0.00  0.00     0.146 H 
BRANCH  21  27
ATOM     27  N6    A d   1      14.971  26.928  10.381  0.00  0.00    -0.382 N 
ATOM     28  H10   A d   1      15.100  27.565   9.582  0.00  0.00     0.157 HD
ATOM     29  H11   A d   1      15.783  26.636  10.944  0.00  0.00     0.157 HD
ENDBRANCH  21  27
ENDBRANCH   6  16
BRANCH   7  30
ATOM     30  O2'   A d   1       9.061  22.500  12.969  0.00  0.00    -0.388 OA
ATOM     31  H7    A d   1       8.614  23.275  12.649  0.00  0.00     0.210 HD
ENDBRANCH   7  30
ENDBRANCH   1   2
BRANCH   1  32
ATOM     32  P     U d   1      11.193  19.185  11.795  0.00  0.00     0.408 P 
ATOM     33  OP1   U d   1      10.187  18.122  11.544  0.00  0.00    -0.624 OA
ATOM     34  OP2   U d   1      12.569  18.804  12.208  0.00  0.00    -0.624 OA
BRANCH  32  35
ATOM     35  O5'   U d   1      11.330  20.085  10.481  0.00  0.00    -0.287 OA
BRANCH  35  36
ATOM     36  C5'   U d   1      10.190  20.586   9.789  0.00  0.00     0.058 C 
ATOM     37  H13   U d   1       9.569  21.162  10.491  0.00  0.00     0.079 H 
ATOM     38  H14   U d   1       9.609  19.739   9.396  0.00  0.00     0.079 H 
BRANCH  36  39
ATOM     39  C4'   U d   1      10.593  21.483   8.638  0.00  0.00     0.089 C 
ATOM     40  O4'   U d   1      11.233  22.685   9.147  0.00  0.00    -0.353 OA
ATOM     41  C1'   U d   1      12.257  23.100   8.266  0.00  0.00     0.141 C 
ATOM     42  C2'   U d   1      12.263  22.140   7.071  0.00  0.00     0.105 C 
ATOM     43  H20   U d   1      12.063  24.124   7.915  0.00  0.00     0.123 H 
ATOM     44  C3'   U d   1      11.618  20.898   7.673  0.00  0.00     0.091 C 
ATOM     45  H18   U d   1      13.279  21.938   6.701  0.00  0.00     0.093 H 
ATOM     46  H16   U d   1      12.370  20.320   8.231  0.00  0.00     0.091 H 
ATOM     47  H15   U d   1       9.683  21.745   8.079  0.00  0.00     0.090 H 
BRANCH  41  48
ATOM     48  N1    U d   1      13.546  23.064   8.992  0.00  0.00    -0.280 N 
ATOM     49  C2    U d   1      14.598  23.774   8.453  0.00  0.00     0.331 A 
ATOM     50  O2    U d   1      14.482  24.426   7.425  0.00  0.00    -0.246 OA
ATOM     51  N3    U d   1      15.780  23.698   9.157  0.00  0.00    -0.275 N 
ATOM     52  C4    U d   1      16.003  22.990  10.320  0.00  0.00     0.250 A 
ATOM     53  H21   U d   1      16.556  24.209   8.787  0.00  0.00     0.173 HD
ATOM     54  O4    U d   1      17.119  23.008  10.845  0.00  0.00    -0.268 OA
ATOM     55  C5    U d   1      14.862  22.275  10.808  0.00  0.00    -0.002 A 
ATOM     56  C6    U d   1      13.697  22.327  10.146  0.00  0.00    -0.008 A 
ATOM     57  H22   U d   1      14.941  21.686  11.721  0.00  0.00     0.094 H 
ATOM     58  H23   U d   1      12.845  21.770  10.532  0.00  0.00     0.112 H 
ENDBRANCH  41  48
BRANCH  42  59
ATOM     59  O2'   U d   1      11.452  22.681   6.031  0.00  0.00    -0.388 OA
ATOM     60  H19   U d   1      11.342  22.031   5.347  0.00  0.00     0.210 HD
ENDBRANCH  42  59
BRANCH  44  61
ATOM     61  O3'   U d   1      11.041  20.038   6.704  0.00  0.00    -0.390 OA
ATOM     62  H17   U d   1      10.405  20.523   6.191  0.00  0.00     0.210 HD
ENDBRANCH  44  61
ENDBRANCH  36  39
ENDBRANCH  35  36
ENDBRANCH  32  35
ENDBRANCH   1  32
TORSDOF 13
