REMARK  4 active torsions:
REMARK  status: ('A' for Active; 'I' for Inactive)
REMARK    1  A    between atoms: C1_4  and  N1_5 
REMARK    2  A    between atoms: C5_8  and  C1_4 
REMARK    3  A    between atoms: N1_5  and  C2_6 
REMARK    4  A    between atoms: C15_12  and  C16_13 
ROOT
ATOM      1  C4  Z13 d   1     -23.678  43.475  15.692  0.00  0.00    -0.074 A 
ATOM      2  C5  Z13 d   1     -24.675  42.771  16.423  0.00  0.00    -0.033 A 
ATOM      3  C6  Z13 d   1     -25.613  42.034  15.695  0.00  0.00    -0.074 A 
ATOM      4  C7  Z13 d   1     -25.604  42.046  14.291  0.00  0.00    -0.068 A 
ATOM      5  C8  Z13 d   1     -23.688  43.491  14.314  0.00  0.00    -0.068 A 
ATOM      6  C15 Z13 d   1     -24.660  42.770  13.566  0.00  0.00     0.047 A 
ATOM      7  H   Z13 d   1     -22.899  44.007  16.227  0.00  0.00     0.084 H 
ATOM      8  H   Z13 d   1     -26.357  41.446  16.221  0.00  0.00     0.084 H 
ATOM      9  H   Z13 d   1     -26.354  41.475  13.755  0.00  0.00     0.084 H 
ATOM     10  H   Z13 d   1     -22.936  44.067  13.787  0.00  0.00     0.084 H 
ENDROOT
BRANCH   2  11
ATOM     11  C1  Z13 d   1     -24.625  42.709  17.886  0.00  0.00     0.105 C 
ATOM     12  H   Z13 d   1     -24.375  43.698  18.297  0.00  0.00     0.083 H 
ATOM     13  H   Z13 d   1     -25.597  42.382  18.283  0.00  0.00     0.083 H 
BRANCH  11  14
ATOM     14  N1  Z13 d   1     -23.611  41.764  18.234  0.00  0.00    -0.075 N 
ATOM     15  H   Z13 d   1     -23.654  40.981  17.600  0.00  0.00     0.277 HD
ATOM     16  H   Z13 d   1     -23.766  41.442  19.177  0.00  0.00     0.277 HD
BRANCH  14  17
ATOM     17  C2  Z13 d   1     -22.302  42.376  18.148  0.00  0.00     0.065 C 
ATOM     18  H   Z13 d   1     -21.533  41.637  18.418  0.00  0.00     0.067 H 
ATOM     19  H   Z13 d   1     -22.250  43.229  18.840  0.00  0.00     0.067 H 
ATOM     20  H   Z13 d   1     -22.128  42.727  17.120  0.00  0.00     0.067 H 
ENDBRANCH  14  17
ENDBRANCH  11  14
ENDBRANCH   2  11
BRANCH   6  21
ATOM     21  C16 Z13 d   1     -24.656  42.762  12.076  0.00  0.00     0.417 C 
ATOM     22  F2  Z13 d   1     -23.439  42.925  11.599  0.00  0.00    -0.166 F 
ATOM     23  F3  Z13 d   1     -25.093  41.566  11.653  0.00  0.00    -0.166 F 
ATOM     24  F4  Z13 d   1     -25.419  43.736  11.631  0.00  0.00    -0.166 F 
ENDBRANCH   6  21
TORSDOF 4
