REMARK  22 active torsions:
REMARK  status: ('A' for Active; 'I' for Inactive)
REMARK    1  A    between atoms: C9_8  and  O4_49 
REMARK    2  A    between atoms: C10_9  and  O6_51 
REMARK    3  A    between atoms: C11_10  and  C35_34 
REMARK    4  A    between atoms: C13_12  and  O7_52 
REMARK    5  A    between atoms: C15_14  and  O8_53 
REMARK    6  A    between atoms: C17_16  and  C36_35 
REMARK    7  A    between atoms: C19_18  and  C37_36 
REMARK    8  A    between atoms: C21_20  and  C38_37 
REMARK    9  A    between atoms: C22_21  and  O9_54 
REMARK   10  A    between atoms: C24_23  and  O10_55 
REMARK   11  A    between atoms: C25_24  and  C41_40 
REMARK   12  A    between atoms: C26_25  and  C27_26 
REMARK   13  A    between atoms: C27_26  and  C28_27 
REMARK   14  A    between atoms: C27_26  and  C42_41 
REMARK   15  A    between atoms: C28_27  and  C29_28 
REMARK   16  A    between atoms: C31_30  and  O11_56 
REMARK   17  A    between atoms: C32_31  and  O12_57 
REMARK   18  A    between atoms: C38_37  and  C39_38 
REMARK   19  A    between atoms: C39_38  and  C40_39 
REMARK   20  A    between atoms: O7_52  and  C43_42 
REMARK   21  A    between atoms: O8_53  and  C44_43 
REMARK   22  A    between atoms: O11_56  and  C45_44 
ROOT
ATOM      1  C1  FK5 d   1      19.643  32.871   8.829  0.00  0.00     0.280 C 
ATOM      2  C2  FK5 d   1      18.257  32.557   9.325  0.00  0.00     0.076 C 
ATOM      3  C3  FK5 d   1      17.336  32.412   8.118  0.00  0.00    -0.041 C 
ATOM      4  C4  FK5 d   1      16.989  33.731   7.487  0.00  0.00    -0.062 C 
ATOM      5  C5  FK5 d   1      16.397  34.702   8.495  0.00  0.00    -0.050 C 
ATOM      6  C6  FK5 d   1      17.272  34.856   9.726  0.00  0.00    -0.003 C 
ATOM      7  C8  FK5 d   1      17.535  33.224  11.545  0.00  0.00     0.188 C 
ATOM      8  C9  FK5 d   1      16.974  34.117  12.413  0.00  0.00     0.153 C 
ATOM      9  C10 FK5 d   1      17.789  35.112  13.210  0.00  0.00     0.199 C 
ATOM     10  C11 FK5 d   1      19.097  34.501  13.696  0.00  0.00     0.002 C 
ATOM     11  C12 FK5 d   1      19.988  35.629  14.253  0.00  0.00    -0.030 C 
ATOM     12  C13 FK5 d   1      20.130  36.724  13.208  0.00  0.00     0.066 C 
ATOM     13  C14 FK5 d   1      18.745  37.279  12.921  0.00  0.00     0.092 C 
ATOM     14  C15 FK5 d   1      18.689  38.493  11.982  0.00  0.00     0.065 C 
ATOM     15  C16 FK5 d   1      19.515  38.370  10.683  0.00  0.00    -0.035 C 
ATOM     16  C17 FK5 d   1      19.305  39.564   9.737  0.00  0.00    -0.055 C 
ATOM     17  C18 FK5 d   1      20.263  40.734  10.042  0.00  0.00    -0.059 C 
ATOM     18  C19 FK5 d   1      21.646  40.433   9.495  0.00  0.00    -0.057 C 
ATOM     19  C20 FK5 d   1      22.670  39.876  10.379  0.00  0.00    -0.056 C 
ATOM     20  C21 FK5 d   1      23.995  39.362   9.919  0.00  0.00    -0.029 C 
ATOM     21  C22 FK5 d   1      23.824  37.946   9.494  0.00  0.00     0.041 C 
ATOM     22  C23 FK5 d   1      23.568  37.558   8.072  0.00  0.00    -0.016 C 
ATOM     23  C24 FK5 d   1      23.219  36.075   8.025  0.00  0.00     0.043 C 
ATOM     24  C25 FK5 d   1      21.838  35.667   8.624  0.00  0.00    -0.004 C 
ATOM     25  C26 FK5 d   1      21.557  34.149   8.593  0.00  0.00     0.069 C 
ATOM     26  N7  FK5 d   1      17.695  33.548  10.251  0.00  0.00    -0.350 N 
ATOM     27  O1  FK5 d   1      20.295  33.888   9.188  0.00  0.00    -0.337 OA
ATOM     28  O2  FK5 d   1      20.178  31.958   7.940  0.00  0.00    -0.189 OA
ATOM     29  O3  FK5 d   1      17.877  31.967  12.046  0.00  0.00    -0.174 OA
ATOM     30  O5  FK5 d   1      18.019  36.215  12.340  0.00  0.00    -0.342 OA
ATOM     31  H1  FK5 d   1      18.301  31.595   9.856  0.00  0.00     0.081 H 
ATOM     32  H2  FK5 d   1      16.406  31.922   8.443  0.00  0.00     0.036 H 
ATOM     33  H3  FK5 d   1      17.838  31.785   7.367  0.00  0.00     0.036 H 
ATOM     34  H4  FK5 d   1      16.256  33.560   6.685  0.00  0.00     0.033 H 
ATOM     35  H5  FK5 d   1      17.902  34.173   7.061  0.00  0.00     0.033 H 
ATOM     36  H6  FK5 d   1      15.410  34.331   8.807  0.00  0.00     0.035 H 
ATOM     37  H7  FK5 d   1      16.284  35.685   8.015  0.00  0.00     0.035 H 
ATOM     38  H8  FK5 d   1      16.705  35.388  10.504  0.00  0.00     0.064 H 
ATOM     39  H9  FK5 d   1      18.165  35.440   9.460  0.00  0.00     0.064 H 
ATOM     40  H10 FK5 d   1      17.052  33.389  13.234  0.00  0.00     0.104 H 
ATOM     41  H11 FK5 d   1      19.603  34.047  12.832  0.00  0.00     0.048 H 
ATOM     42  H12 FK5 d   1      20.981  35.225  14.498  0.00  0.00     0.037 H 
ATOM     43  H13 FK5 d   1      19.527  36.046  15.161  0.00  0.00     0.037 H 
ATOM     44  H14 FK5 d   1      20.527  36.285  12.281  0.00  0.00     0.087 H 
ATOM     45  H15 FK5 d   1      18.282  37.570  13.876  0.00  0.00     0.091 H 
ATOM     46  H16 FK5 d   1      17.639  38.623  11.683  0.00  0.00     0.087 H 
ATOM     47  H17 FK5 d   1      19.216  37.449  10.161  0.00  0.00     0.037 H 
ATOM     48  H18 FK5 d   1      20.581  38.312  10.947  0.00  0.00     0.037 H 
ATOM     49  H19 FK5 d   1      19.507  39.222   8.711  0.00  0.00     0.039 H 
ATOM     50  H20 FK5 d   1      20.326  40.878  11.131  0.00  0.00     0.034 H 
ATOM     51  H21 FK5 d   1      19.878  41.651   9.572  0.00  0.00     0.034 H 
ATOM     52  H22 FK5 d   1      21.326  39.415   9.229  0.00  0.00     0.039 H 
ATOM     53  H23 FK5 d   1      22.188  39.032  10.895  0.00  0.00     0.034 H 
ATOM     54  H24 FK5 d   1      22.897  40.670  11.106  0.00  0.00     0.034 H 
ATOM     55  H25 FK5 d   1      24.391  39.989   9.107  0.00  0.00     0.043 H 
ATOM     56  H26 FK5 d   1      24.907  37.873   9.315  0.00  0.00     0.083 H 
ATOM     57  H27 FK5 d   1      24.469  37.745   7.469  0.00  0.00     0.040 H 
ATOM     58  H28 FK5 d   1      22.730  38.148   7.672  0.00  0.00     0.040 H 
ATOM     59  H29 FK5 d   1      23.994  35.493   8.546  0.00  0.00     0.083 H 
ATOM     60  H30 FK5 d   1      21.868  35.971   9.681  0.00  0.00     0.047 H 
ATOM     61  H31 FK5 d   1      21.569  33.780   7.557  0.00  0.00     0.091 H 
ENDROOT
BRANCH  25  62
ATOM     62  C27 FK5 d   1      22.614  33.474   9.398  0.00  0.00    -0.058 C 
BRANCH  62  63
ATOM     63  C28 FK5 d   1      23.528  32.551   8.755  0.00  0.00    -0.095 C 
ATOM     64  H32 FK5 d   1      23.388  32.304   7.704  0.00  0.00     0.077 H 
BRANCH  63  65
ATOM     65  C29 FK5 d   1      24.669  31.927   9.517  0.00  0.00    -0.035 C 
ATOM     66  C30 FK5 d   1      24.613  30.401   9.348  0.00  0.00    -0.032 C 
ATOM     67  C31 FK5 d   1      25.829  29.765  10.001  0.00  0.00     0.063 C 
ATOM     68  H34 FK5 d   1      24.602  30.152   8.277  0.00  0.00     0.037 H 
ATOM     69  H35 FK5 d   1      23.699  30.014   9.823  0.00  0.00     0.037 H 
ATOM     70  C32 FK5 d   1      27.059  30.273   9.240  0.00  0.00     0.060 C 
ATOM     71  H36 FK5 d   1      25.902  30.125  11.038  0.00  0.00     0.087 H 
ATOM     72  C33 FK5 d   1      27.193  31.784   9.453  0.00  0.00    -0.038 C 
ATOM     73  H37 FK5 d   1      26.917  30.063   8.170  0.00  0.00     0.086 H 
ATOM     74  C34 FK5 d   1      25.955  32.536   8.978  0.00  0.00    -0.056 C 
ATOM     75  H38 FK5 d   1      28.067  32.146   8.891  0.00  0.00     0.036 H 
ATOM     76  H39 FK5 d   1      27.339  31.981  10.525  0.00  0.00     0.036 H 
ATOM     77  H40 FK5 d   1      26.022  33.580   9.319  0.00  0.00     0.034 H 
ATOM     78  H41 FK5 d   1      25.925  32.510   7.879  0.00  0.00     0.034 H 
ATOM     79  H33 FK5 d   1      24.579  32.167  10.587  0.00  0.00     0.046 H 
BRANCH  67  80
ATOM     80  O11 FK5 d   1      25.690  28.355  10.058  0.00  0.00    -0.388 OA
BRANCH  80  81
ATOM     81  C45 FK5 d   1      25.465  27.791   8.780  0.00  0.00     0.005 C 
ATOM     82  H70 FK5 d   1      25.364  26.700   8.873  0.00  0.00     0.066 H 
ATOM     83  H71 FK5 d   1      26.314  28.025   8.121  0.00  0.00     0.066 H 
ATOM     84  H72 FK5 d   1      24.542  28.209   8.352  0.00  0.00     0.066 H 
ENDBRANCH  80  81
ENDBRANCH  67  80
BRANCH  70  85
ATOM     85  O12 FK5 d   1      28.263  29.674   9.664  0.00  0.00    -0.393 OA
ATOM     86  H77 FK5 d   1      28.207  28.733   9.543  0.00  0.00     0.210 HD
ENDBRANCH  70  85
ENDBRANCH  63  65
ENDBRANCH  62  63
BRANCH  62  87
ATOM     87  C42 FK5 d   1      22.706  33.773  10.856  0.00  0.00    -0.052 C 
ATOM     88  H61 FK5 d   1      23.533  33.197  11.297  0.00  0.00     0.033 H 
ATOM     89  H62 FK5 d   1      21.762  33.495  11.348  0.00  0.00     0.033 H 
ATOM     90  H63 FK5 d   1      22.891  34.848  10.999  0.00  0.00     0.033 H 
ENDBRANCH  62  87
ENDBRANCH  25  62
BRANCH  24  91
ATOM     91  C41 FK5 d   1      20.635  36.369   7.987  0.00  0.00    -0.068 C 
ATOM     92  H58 FK5 d   1      20.800  37.456   7.992  0.00  0.00     0.028 H 
ATOM     93  H59 FK5 d   1      19.727  36.134   8.561  0.00  0.00     0.028 H 
ATOM     94  H60 FK5 d   1      20.514  36.021   6.951  0.00  0.00     0.028 H 
ENDBRANCH  24  91
BRANCH  23  95
ATOM     95  O10 FK5 d   1      23.269  35.846   6.642  0.00  0.00    -0.395 OA
ATOM     96  H76 FK5 d   1      22.593  36.357   6.213  0.00  0.00     0.210 HD
ENDBRANCH  23  95
BRANCH  21  97
ATOM     97  O9  FK5 d   1      23.903  36.940  10.462  0.00  0.00    -0.395 OA
ATOM     98  H75 FK5 d   1      24.068  37.332  11.312  0.00  0.00     0.210 HD
ENDBRANCH  21  97
BRANCH  20  99
ATOM     99  C38 FK5 d   1      24.981  39.278  11.093  0.00  0.00    -0.060 C 
ATOM    100  H51 FK5 d   1      25.845  38.666  10.794  0.00  0.00     0.033 H 
ATOM    101  H52 FK5 d   1      24.479  38.809  11.952  0.00  0.00     0.033 H 
BRANCH  99 102
ATOM    102  C39 FK5 d   1      25.462  40.648  11.491  0.00  0.00    -0.068 C 
ATOM    103  H53 FK5 d   1      25.341  40.725  12.582  0.00  0.00     0.032 H 
ATOM    104  H54 FK5 d   1      24.802  41.375  10.996  0.00  0.00     0.032 H 
BRANCH 102 105
ATOM    105  C40 FK5 d   1      26.836  41.045  11.186  0.00  0.00    -0.077 C 
ATOM    106  H55 FK5 d   1      27.010  42.069  11.547  0.00  0.00     0.027 H 
ATOM    107  H56 FK5 d   1      26.996  41.007  10.098  0.00  0.00     0.027 H 
ATOM    108  H57 FK5 d   1      27.535  40.357  11.684  0.00  0.00     0.027 H 
ENDBRANCH 102 105
ENDBRANCH  99 102
ENDBRANCH  20  99
BRANCH   8 109
ATOM    109  O4  FK5 d   1      15.600  34.125  12.506  0.00  0.00    -0.382 OA
ATOM    110  H73 FK5 d   1      15.344  33.965  13.407  0.00  0.00     0.210 HD
ENDBRANCH   8 109
BRANCH  18 111
ATOM    111  C37 FK5 d   1      21.933  40.719   8.055  0.00  0.00    -0.073 C 
ATOM    112  H48 FK5 d   1      21.032  41.131   7.576  0.00  0.00     0.028 H 
ATOM    113  H49 FK5 d   1      22.225  39.788   7.547  0.00  0.00     0.028 H 
ATOM    114  H50 FK5 d   1      22.753  41.449   7.982  0.00  0.00     0.028 H 
ENDBRANCH  18 111
BRANCH   9 115
ATOM    115  O6  FK5 d   1      17.033  35.566  14.355  0.00  0.00    -0.363 OA
ATOM    116  H74 FK5 d   1      16.203  35.923  14.063  0.00  0.00     0.213 HD
ENDBRANCH   9 115
BRANCH  10 117
ATOM    117  C35 FK5 d   1      18.903  33.416  14.740  0.00  0.00    -0.068 C 
ATOM    118  H42 FK5 d   1      18.266  32.620  14.327  0.00  0.00     0.028 H 
ATOM    119  H43 FK5 d   1      18.422  33.846  15.631  0.00  0.00     0.028 H 
ATOM    120  H44 FK5 d   1      19.881  32.996  15.018  0.00  0.00     0.028 H 
ENDBRANCH  10 117
BRANCH  16 121
ATOM    121  C36 FK5 d   1      17.846  40.041   9.809  0.00  0.00    -0.073 C 
ATOM    122  H45 FK5 d   1      17.174  39.199   9.590  0.00  0.00     0.028 H 
ATOM    123  H46 FK5 d   1      17.685  40.840   9.071  0.00  0.00     0.028 H 
ATOM    124  H47 FK5 d   1      17.635  40.425  10.818  0.00  0.00     0.028 H 
ENDBRANCH  16 121
BRANCH  12 125
ATOM    125  O7  FK5 d   1      21.041  37.700  13.650  0.00  0.00    -0.388 OA
BRANCH 125 126
ATOM    126  C43 FK5 d   1      22.332  37.131  13.748  0.00  0.00     0.005 C 
ATOM    127  H64 FK5 d   1      23.044  37.895  14.094  0.00  0.00     0.066 H 
ATOM    128  H65 FK5 d   1      22.644  36.758  12.761  0.00  0.00     0.066 H 
ATOM    129  H66 FK5 d   1      22.312  36.297  14.465  0.00  0.00     0.066 H 
ENDBRANCH 125 126
ENDBRANCH  12 125
BRANCH  14 130
ATOM    130  O8  FK5 d   1      19.092  39.643  12.700  0.00  0.00    -0.388 OA
BRANCH 130 131
ATOM    131  C44 FK5 d   1      18.034  40.259  13.387  0.00  0.00     0.005 C 
ATOM    132  H67 FK5 d   1      18.410  41.143  13.923  0.00  0.00     0.066 H 
ATOM    133  H68 FK5 d   1      17.602  39.549  14.108  0.00  0.00     0.066 H 
ATOM    134  H69 FK5 d   1      17.261  40.568  12.668  0.00  0.00     0.066 H 
ENDBRANCH 130 131
ENDBRANCH  14 130
TORSDOF 22
