REMARK  9 active torsions:
REMARK  status: ('A' for Active; 'I' for Inactive)
REMARK    1  A    between atoms: PB_1  and  O3A_5 
REMARK    2  A    between atoms: O3A_5  and  PA_6 
REMARK    3  A    between atoms: PA_6  and  O5'_9 
REMARK    4  A    between atoms: O5'_9  and  C5'_10 
REMARK    5  A    between atoms: C5'_10  and  C4'_11 
REMARK    6  A    between atoms: C3'_13  and  O3'_14 
REMARK    7  A    between atoms: C2'_15  and  O2'_16 
REMARK    8  A    between atoms: C1'_17  and  N9_18 
REMARK    9  A    between atoms: C2_25  and  N2_26 
ROOT
ATOM      1  C4' GDP d   1      -2.649 -42.244  18.645  0.00  0.00     0.089 C 
ATOM      2  O4' GDP d   1      -3.466 -41.929  19.772  0.00  0.00    -0.353 OA
ATOM      3  C3' GDP d   1      -3.466 -43.152  17.735  0.00  0.00     0.091 C 
ATOM      4  C2' GDP d   1      -4.897 -43.020  18.218  0.00  0.00     0.105 C 
ATOM      5  C1' GDP d   1      -4.773 -42.498  19.642  0.00  0.00     0.139 C 
ATOM      6  H   GDP d   1      -1.752 -42.787  18.976  0.00  0.00     0.090 H 
ATOM      7  H   GDP d   1      -3.383 -42.827  16.688  0.00  0.00     0.091 H 
ATOM      8  H   GDP d   1      -5.449 -42.304  17.591  0.00  0.00     0.093 H 
ATOM      9  H   GDP d   1      -4.889 -43.342  20.337  0.00  0.00     0.122 H 
ENDROOT
BRANCH   5  10
ATOM     10  N9  GDP d   1      -5.753 -41.446  20.007  0.00  0.00    -0.295 N 
ATOM     11  C8  GDP d   1      -5.957 -40.273  19.376  0.00  0.00     0.071 A 
ATOM     12  N7  GDP d   1      -6.914 -39.544  20.009  0.00  0.00    -0.234 NA
ATOM     13  H   GDP d   1      -5.427 -39.952  18.480  0.00  0.00     0.144 H 
ATOM     14  C5  GDP d   1      -7.327 -40.252  21.075  0.00  0.00     0.171 A 
ATOM     15  C6  GDP d   1      -8.309 -40.075  22.172  0.00  0.00     0.292 A 
ATOM     16  C4  GDP d   1      -6.553 -41.500  21.069  0.00  0.00     0.161 A 
ATOM     17  O6  GDP d   1      -9.004 -39.043  22.249  0.00  0.00    -0.265 OA
ATOM     18  N1  GDP d   1      -8.433 -41.053  23.082  0.00  0.00    -0.154 N 
ATOM     19  C2  GDP d   1      -7.693 -42.183  23.024  0.00  0.00     0.680 A 
ATOM     20  H   GDP d   1      -9.093 -40.943  23.826  0.00  0.00     0.187 HD
ATOM     21  N3  GDP d   1      -6.775 -42.409  22.049  0.00  0.00    -0.174 N 
ATOM     22  H   GDP d   1      -6.238 -43.288  22.055  0.00  0.00     0.186 HD
BRANCH  19  23
ATOM     23  N2  GDP d   1      -7.864 -43.136  23.973  0.00  0.00    -0.234 N 
ATOM     24  H   GDP d   1      -7.306 -44.001  23.940  0.00  0.00     0.174 HD
ATOM     25  H   GDP d   1      -8.552 -42.995  24.727  0.00  0.00     0.174 HD
ENDBRANCH  19  23
ENDBRANCH   5  10
BRANCH   4  26
ATOM     26  O2' GDP d   1      -5.570 -44.280  18.196  0.00  0.00    -0.388 OA
ATOM     27  H   GDP d   1      -5.114 -44.891  18.763  0.00  0.00     0.210 HD
ENDBRANCH   4  26
BRANCH   1  28
ATOM     28  C5' GDP d   1      -2.211 -40.950  17.972  0.00  0.00     0.058 C 
ATOM     29  H   GDP d   1      -1.931 -40.219  18.745  0.00  0.00     0.079 H 
ATOM     30  H   GDP d   1      -1.343 -41.155  17.329  0.00  0.00     0.079 H 
BRANCH  28  31
ATOM     31  O5' GDP d   1      -3.264 -40.409  17.177  0.00  0.00    -0.287 OA
BRANCH  31  32
ATOM     32  PA  GDP d   1      -2.921 -39.334  16.036  0.00  0.00     0.418 P 
ATOM     33  O1A GDP d   1      -4.161 -38.537  15.739  0.00  0.00    -0.624 OA
ATOM     34  O2A GDP d   1      -2.199 -40.047  14.915  0.00  0.00    -0.624 OA
BRANCH  32  35
ATOM     35  O3A GDP d   1      -1.887 -38.391  16.834  0.00  0.00    -0.173 OA
BRANCH  35  36
ATOM     36  PB  GDP d   1      -0.897 -37.320  16.145  0.00  0.00     0.431 P 
ATOM     37  O1B GDP d   1      -1.551 -36.938  14.840  0.00  0.00    -0.616 OA
ATOM     38  O2B GDP d   1      -0.872 -36.221  17.177  0.00  0.00    -0.616 OA
ATOM     39  O3B GDP d   1       0.417 -38.058  16.026  0.00  0.00    -0.616 OA
ENDBRANCH  35  36
ENDBRANCH  32  35
ENDBRANCH  31  32
ENDBRANCH  28  31
ENDBRANCH   1  28
BRANCH   3  40
ATOM     40  O3' GDP d   1      -3.007 -44.506  17.853  0.00  0.00    -0.390 OA
ATOM     41  H   GDP d   1      -3.522 -45.065  17.282  0.00  0.00     0.210 HD
ENDBRANCH   3  40
TORSDOF 9
