REMARK  3 active torsions:
REMARK  status: ('A' for Active; 'I' for Inactive)
REMARK    1  A    between atoms: NAQ_10  and  CAJ_11 
REMARK    2  A    between atoms: CAJ_11  and  CAP_12 
REMARK    3  A    between atoms: CAM_16  and  CAA_17 
ROOT
ATOM      1  CAH 2L1 d   1      12.373  -5.819   1.422  0.00  0.00     0.088 C 
ATOM      2  CAG 2L1 d   1      12.832  -4.592   0.583  0.00  0.00    -0.018 C 
ATOM      3  CAN 2L1 d   1      11.845  -4.246  -0.398  0.00  0.00    -0.049 A 
ATOM      4  CAD 2L1 d   1      12.215  -3.335  -1.408  0.00  0.00    -0.076 A 
ATOM      5  CAB 2L1 d   1      11.293  -2.941  -2.388  0.00  0.00    -0.082 A 
ATOM      6  CAC 2L1 d   1       9.999  -3.458  -2.378  0.00  0.00    -0.082 A 
ATOM      7  CAE 2L1 d   1       9.613  -4.374  -1.384  0.00  0.00    -0.075 A 
ATOM      8  CAO 2L1 d   1      10.520  -4.767  -0.381  0.00  0.00    -0.026 A 
ATOM      9  CAI 2L1 d   1      10.073  -5.704   0.607  0.00  0.00     0.108 C 
ATOM     10  NAQ 2L1 d   1      10.943  -5.692   1.813  0.00  0.00    -0.062 N 
ATOM     11  H   2L1 d   1      12.990  -5.885   2.330  0.00  0.00     0.076 H 
ATOM     12  H   2L1 d   1      12.503  -6.733   0.824  0.00  0.00     0.076 H 
ATOM     13  H   2L1 d   1      13.776  -4.836   0.074  0.00  0.00     0.042 H 
ATOM     14  H   2L1 d   1      12.989  -3.735   1.254  0.00  0.00     0.042 H 
ATOM     15  H   2L1 d   1      13.222  -2.935  -1.427  0.00  0.00     0.084 H 
ATOM     16  H   2L1 d   1      11.587  -2.233  -3.155  0.00  0.00     0.083 H 
ATOM     17  H   2L1 d   1       9.289  -3.153  -3.138  0.00  0.00     0.083 H 
ATOM     18  H   2L1 d   1       8.608  -4.781  -1.390  0.00  0.00     0.084 H 
ATOM     19  H   2L1 d   1      10.083  -6.714   0.171  0.00  0.00     0.083 H 
ATOM     20  H   2L1 d   1       9.047  -5.444   0.906  0.00  0.00     0.083 H 
ATOM     21  H   2L1 d   1      10.819  -4.807   2.280  0.00  0.00     0.280 HD
ENDROOT
BRANCH  10  22
ATOM     22  CAJ 2L1 d   1      10.569  -6.769   2.760  0.00  0.00     0.125 C 
ATOM     23  H   2L1 d   1      10.762  -7.744   2.289  0.00  0.00     0.086 H 
ATOM     24  H   2L1 d   1       9.498  -6.682   2.997  0.00  0.00     0.086 H 
BRANCH  22  25
ATOM     25  CAP 2L1 d   1      11.385  -6.672   4.070  0.00  0.00     0.083 A 
ATOM     26  NAL 2L1 d   1      11.350  -5.658   4.929  0.00  0.00    -0.245 NA
ATOM     27  CAF 2L1 d   1      12.209  -5.944   5.922  0.00  0.00     0.064 A 
ATOM     28  NAK 2L1 d   1      12.772  -7.141   5.676  0.00  0.00    -0.353 N 
ATOM     29  H   2L1 d   1      12.415  -5.311   6.784  0.00  0.00     0.143 H 
ATOM     30  CAM 2L1 d   1      12.259  -7.573   4.526  0.00  0.00     0.032 A 
ATOM     31  H   2L1 d   1      13.464  -7.628   6.263  0.00  0.00     0.166 HD
BRANCH  30  32
ATOM     32  CAA 2L1 d   1      12.623  -8.897   3.852  0.00  0.00    -0.035 C 
ATOM     33  H   2L1 d   1      12.053  -9.001   2.917  0.00  0.00     0.035 H 
ATOM     34  H   2L1 d   1      12.378  -9.731   4.526  0.00  0.00     0.035 H 
ATOM     35  H   2L1 d   1      13.700  -8.911   3.628  0.00  0.00     0.035 H 
ENDBRANCH  30  32
ENDBRANCH  22  25
ENDBRANCH  10  22
TORSDOF 3
