REMARK  4 active torsions:
REMARK  status: ('A' for Active; 'I' for Inactive)
REMARK    1  A    between atoms: CAM_7  and  NAB_8 
REMARK    2  A    between atoms: NAR_11  and  CAI_12 
REMARK    3  A    between atoms: CAI_12  and  CAP_13 
REMARK    4  A    between atoms: CAN_17  and  CAA_18 
ROOT
ATOM      1  CAH 2L2 d   1      12.289  -5.890   1.243  0.00  0.00     0.088 C 
ATOM      2  CAG 2L2 d   1      12.837  -4.630   0.544  0.00  0.00    -0.018 C 
ATOM      3  CAO 2L2 d   1      11.977  -4.206  -0.506  0.00  0.00    -0.046 A 
ATOM      4  CAE 2L2 d   1      12.502  -3.316  -1.472  0.00  0.00    -0.076 A 
ATOM      5  CAC 2L2 d   1      11.724  -2.860  -2.549  0.00  0.00    -0.080 A 
ATOM      6  CAD 2L2 d   1      10.379  -3.282  -2.657  0.00  0.00    -0.057 A 
ATOM      7  CAM 2L2 d   1       9.850  -4.158  -1.698  0.00  0.00     0.034 A 
ATOM      8  CAQ 2L2 d   1      10.621  -4.640  -0.608  0.00  0.00     0.000 A 
ATOM      9  CAJ 2L2 d   1      10.039  -5.549   0.368  0.00  0.00     0.110 C 
ATOM     10  NAR 2L2 d   1      10.865  -5.674   1.601  0.00  0.00    -0.062 N 
ATOM     11  H   2L2 d   1      12.871  -6.086   2.155  0.00  0.00     0.076 H 
ATOM     12  H   2L2 d   1      12.370  -6.751   0.564  0.00  0.00     0.076 H 
ATOM     13  H   2L2 d   1      13.829  -4.855   0.126  0.00  0.00     0.042 H 
ATOM     14  H   2L2 d   1      12.926  -3.820   1.283  0.00  0.00     0.042 H 
ATOM     15  H   2L2 d   1      13.528  -2.978  -1.379  0.00  0.00     0.084 H 
ATOM     16  H   2L2 d   1      12.150  -2.192  -3.289  0.00  0.00     0.083 H 
ATOM     17  H   2L2 d   1       9.761  -2.931  -3.475  0.00  0.00     0.086 H 
ATOM     18  H   2L2 d   1       9.941  -6.543  -0.092  0.00  0.00     0.083 H 
ATOM     19  H   2L2 d   1       9.043  -5.174   0.648  0.00  0.00     0.083 H 
ATOM     20  H   2L2 d   1      10.811  -4.796   2.094  0.00  0.00     0.280 HD
ENDROOT
BRANCH  10  21
ATOM     21  CAI 2L2 d   1      10.324  -6.721   2.516  0.00  0.00     0.123 C 
ATOM     22  H   2L2 d   1      10.425  -7.708   2.041  0.00  0.00     0.085 H 
ATOM     23  H   2L2 d   1       9.262  -6.517   2.716  0.00  0.00     0.085 H 
BRANCH  21  24
ATOM     24  CAP 2L2 d   1      11.095  -6.711   3.826  0.00  0.00     0.060 A 
ATOM     25  NAL 2L2 d   1      10.989  -5.735   4.714  0.00  0.00    -0.351 N 
ATOM     26  CAF 2L2 d   1      11.832  -6.037   5.719  0.00  0.00     0.064 A 
ATOM     27  H   2L2 d   1      10.380  -4.907   4.649  0.00  0.00     0.166 HD
ATOM     28  NAK 2L2 d   1      12.446  -7.194   5.444  0.00  0.00    -0.247 NA
ATOM     29  H   2L2 d   1      11.989  -5.436   6.613  0.00  0.00     0.143 H 
ATOM     30  CAN 2L2 d   1      11.981  -7.617   4.263  0.00  0.00     0.056 A 
BRANCH  30  31
ATOM     31  CAA 2L2 d   1      12.435  -8.904   3.543  0.00  0.00    -0.034 C 
ATOM     32  H   2L2 d   1      13.172  -9.432   4.166  0.00  0.00     0.035 H 
ATOM     33  H   2L2 d   1      12.892  -8.642   2.577  0.00  0.00     0.035 H 
ATOM     34  H   2L2 d   1      11.565  -9.555   3.373  0.00  0.00     0.035 H 
ENDBRANCH  30  31
ENDBRANCH  21  24
ENDBRANCH  10  21
BRANCH   7  35
ATOM     35  NAB 2L2 d   1       8.548  -4.584  -1.814  0.00  0.00    -0.399 N 
ATOM     36  H   2L2 d   1       7.965  -4.251  -2.595  0.00  0.00     0.156 HD
ATOM     37  H   2L2 d   1       8.156  -5.236  -1.120  0.00  0.00     0.156 HD
ENDBRANCH   7  35
TORSDOF 4
