REMARK  9 active torsions:
REMARK  status: ('A' for Active; 'I' for Inactive)
REMARK    1  A    between atoms: C1_1  and  O1_7 
REMARK    2  A    between atoms: C2_2  and  O2_8 
REMARK    3  A    between atoms: C3_3  and  O3_9 
REMARK    4  A    between atoms: C4_4  and  O4_10 
REMARK    5  A    between atoms: C5_5  and  O5_11 
REMARK    6  A    between atoms: C6_6  and  O6_12 
REMARK    7  A    between atoms: O1_7  and  P1_13 
REMARK    8  A    between atoms: O4_10  and  P4_17 
REMARK    9  A    between atoms: O5_11  and  P5_21 
ROOT
ATOM      1  C1  I3P d   1      14.452   1.612  38.969  0.00  0.00     0.106 C 
ATOM      2  C2  I3P d   1      13.447   1.001  37.996  0.00  0.00     0.090 C 
ATOM      3  C3  I3P d   1      12.128   0.636  38.661  0.00  0.00     0.091 C 
ATOM      4  C4  I3P d   1      11.570   1.732  39.580  0.00  0.00     0.106 C 
ATOM      5  C5  I3P d   1      12.661   2.276  40.472  0.00  0.00     0.106 C 
ATOM      6  C6  I3P d   1      13.818   2.801  39.674  0.00  0.00     0.091 C 
ATOM      7  H1  I3P d   1      14.702   0.851  39.723  0.00  0.00     0.092 H 
ATOM      8  H2  I3P d   1      13.888   0.086  37.573  0.00  0.00     0.091 H 
ATOM      9  H3  I3P d   1      12.293  -0.267  39.267  0.00  0.00     0.091 H 
ATOM     10  H4  I3P d   1      11.160   2.543  38.961  0.00  0.00     0.092 H 
ATOM     11  H5  I3P d   1      13.024   1.452  41.104  0.00  0.00     0.092 H 
ATOM     12  H6  I3P d   1      13.470   3.530  38.927  0.00  0.00     0.091 H 
ENDROOT
BRANCH   1  13
ATOM     13  O1  I3P d   1      15.665   2.011  38.327  0.00  0.00    -0.272 OA
BRANCH  13  14
ATOM     14  P1  I3P d   1      17.027   1.785  39.147  0.00  0.00     0.422 P 
ATOM     15  O11 I3P d   1      17.395   0.327  39.144  0.00  0.00    -0.617 OA
ATOM     16  O12 I3P d   1      16.812   2.237  40.587  0.00  0.00    -0.617 OA
ATOM     17  O13 I3P d   1      18.146   2.599  38.529  0.00  0.00    -0.617 OA
ENDBRANCH  13  14
ENDBRANCH   1  13
BRANCH   2  18
ATOM     18  O2  I3P d   1      13.187   1.935  36.933  0.00  0.00    -0.390 OA
ATOM     19  H7  I3P d   1      12.605   1.536  36.297  0.00  0.00     0.210 HD
ENDBRANCH   2  18
BRANCH   6  20
ATOM     20  O6  I3P d   1      14.722   3.438  40.571  0.00  0.00    -0.390 OA
ATOM     21  H9  I3P d   1      14.278   4.152  41.013  0.00  0.00     0.210 HD
ENDBRANCH   6  20
BRANCH   3  22
ATOM     22  O3  I3P d   1      11.162   0.352  37.666  0.00  0.00    -0.390 OA
ATOM     23  H8  I3P d   1      10.985   1.139  37.164  0.00  0.00     0.210 HD
ENDBRANCH   3  22
BRANCH   5  24
ATOM     24  O5  I3P d   1      12.161   3.315  41.326  0.00  0.00    -0.272 OA
BRANCH  24  25
ATOM     25  P5  I3P d   1      12.723   3.379  42.810  0.00  0.00     0.422 P 
ATOM     26  O51 I3P d   1      13.735   4.504  42.892  0.00  0.00    -0.617 OA
ATOM     27  O52 I3P d   1      13.397   2.087  43.190  0.00  0.00    -0.617 OA
ATOM     28  O53 I3P d   1      11.585   3.645  43.775  0.00  0.00    -0.617 OA
ENDBRANCH  24  25
ENDBRANCH   5  24
BRANCH   4  29
ATOM     29  O4  I3P d   1      10.553   1.217  40.418  0.00  0.00    -0.272 OA
BRANCH  29  30
ATOM     30  P4  I3P d   1       9.244   2.120  40.785  0.00  0.00     0.422 P 
ATOM     31  O41 I3P d   1       8.572   2.579  39.511  0.00  0.00    -0.617 OA
ATOM     32  O42 I3P d   1       9.601   3.334  41.609  0.00  0.00    -0.617 OA
ATOM     33  O43 I3P d   1       8.273   1.281  41.585  0.00  0.00    -0.617 OA
ENDBRANCH  29  30
ENDBRANCH   4  29
TORSDOF 9
