REMARK  1 active torsions:
REMARK  status: ('A' for Active; 'I' for Inactive)
REMARK       I    between atoms: NAQ_14  and  CAK_15 
REMARK    1  A    between atoms: CAK_15  and  CAA_17 
ROOT
ATOM      1  CAH 2LW d   1      67.552  40.862  -0.361  0.00  0.00    -0.011 C 
ATOM      2  CAG 2LW d   1      68.683  41.127  -1.365  0.00  0.00    -0.039 C 
ATOM      3  CAM 2LW d   1      69.720  40.101  -1.236  0.00  0.00     0.071 A 
ATOM      4  NAJ 2LW d   1      70.966  40.147  -1.735  0.00  0.00    -0.247 NA
ATOM      5  CAO 2LW d   1      71.639  39.028  -1.445  0.00  0.00     0.068 A 
ATOM      6  CAE 2LW d   1      72.909  38.692  -1.764  0.00  0.00    -0.053 A 
ATOM      7  CAD 2LW d   1      73.435  37.459  -1.344  0.00  0.00    -0.060 A 
ATOM      8  CAL 2LW d   1      72.602  36.606  -0.597  0.00  0.00     0.035 A 
ATOM      9 CL   2LW d   1      73.257  35.108  -0.076  0.00  0.00    -0.084 Cl
ATOM     10  CAF 2LW d   1      71.280  37.009  -0.316  0.00  0.00    -0.049 A 
ATOM     11  CAP 2LW d   1      70.811  38.203  -0.718  0.00  0.00     0.008 A 
ATOM     12  CAN 2LW d   1      69.623  38.867  -0.580  0.00  0.00     0.021 A 
ATOM     13  CAI 2LW d   1      68.419  38.490   0.034  0.00  0.00     0.000 C 
ATOM     14  NAQ 2LW d   1      67.284  39.447  -0.407  0.00  0.00    -0.303 N 
ATOM     15  CAK 2LW d   1      66.161  39.066  -0.922  0.00  0.00     0.223 C 
ATOM     16  OAB 2LW d   1      65.183  39.762  -1.161  0.00  0.00    -0.273 OA
ATOM     17  H   2LW d   1      67.050  41.599   0.264  0.00  0.00     0.112 H 
ATOM     18  H   2LW d   1      68.710  41.957  -2.070  0.00  0.00     0.089 H 
ATOM     19  H   2LW d   1      73.521  39.374  -2.344  0.00  0.00     0.087 H 
ATOM     20  H   2LW d   1      74.452  37.173  -1.588  0.00  0.00     0.086 H 
ATOM     21  H   2LW d   1      70.628  36.342   0.236  0.00  0.00     0.087 H 
ATOM     22  H   2LW d   1      68.300  37.651   0.718  0.00  0.00     0.113 H 
ENDROOT
BRANCH  15  23
ATOM     23  CAA 2LW d   1      65.947  37.502  -0.793  0.00  0.00    -0.002 C 
ATOM     24  H   2LW d   1      64.982  37.226  -1.243  0.00  0.00     0.040 H 
ATOM     25  H   2LW d   1      65.951  37.218   0.270  0.00  0.00     0.040 H 
ATOM     26  H   2LW d   1      66.760  36.976  -1.316  0.00  0.00     0.040 H 
ENDBRANCH  15  23
TORSDOF 1
