REMARK  8 active torsions:
REMARK  status: ('A' for Active; 'I' for Inactive)
REMARK    1  A    between atoms: C1_1  and  C27_27 
REMARK    2  A    between atoms: C3_3  and  N9_9 
REMARK    3  A    between atoms: C5_5  and  C8_8 
REMARK    4  A    between atoms: C6_6  and  O7_7 
REMARK    5  A    between atoms: N10_10  and  C11_11 
REMARK    6  A    between atoms: C14_14  and  S17_17 
REMARK    7  A    between atoms: S17_17  and  N20_20 
REMARK    8  A    between atoms: N20_20  and  C21_21 
ROOT
ATOM      1  C11 435 d   1     -15.876   7.262  -6.185  0.00  0.00     0.079 A 
ATOM      2  C12 435 d   1     -15.363   6.091  -6.770  0.00  0.00    -0.052 A 
ATOM      3  C13 435 d   1     -15.750   4.848  -6.367  0.00  0.00    -0.058 A 
ATOM      4  C14 435 d   1     -16.619   4.684  -5.274  0.00  0.00     0.080 A 
ATOM      5  C15 435 d   1     -17.083   5.888  -4.647  0.00  0.00    -0.058 A 
ATOM      6  C16 435 d   1     -16.686   7.159  -5.084  0.00  0.00    -0.052 A 
ATOM      7  H   435 d   1     -14.635   6.180  -7.568  0.00  0.00     0.087 H 
ATOM      8  H   435 d   1     -15.383   3.975  -6.895  0.00  0.00     0.086 H 
ATOM      9  H   435 d   1     -17.764   5.812  -3.807  0.00  0.00     0.086 H 
ATOM     10  H   435 d   1     -17.015   8.048  -4.559  0.00  0.00     0.087 H 
ENDROOT
BRANCH   1  11
ATOM     11  N10 435 d   1     -15.398   8.514  -6.635  0.00  0.00    -0.150 NA
ATOM     12  N9  435 d   1     -15.898   9.587  -6.169  0.00  0.00    -0.150 NA
BRANCH  12  13
ATOM     13  C3  435 d   1     -15.315  10.803  -6.603  0.00  0.00     0.080 A 
ATOM     14  C2  435 d   1     -15.805  11.999  -6.117  0.00  0.00    -0.045 A 
ATOM     15  C1  435 d   1     -15.286  13.223  -6.467  0.00  0.00    -0.026 A 
ATOM     16  H   435 d   1     -16.640  11.971  -5.426  0.00  0.00     0.088 H 
ATOM     17  C6  435 d   1     -14.148  13.257  -7.237  0.00  0.00     0.077 A 
ATOM     18  C5  435 d   1     -13.573  12.065  -7.723  0.00  0.00    -0.026 A 
ATOM     19  C4  435 d   1     -14.163  10.827  -7.401  0.00  0.00    -0.045 A 
ATOM     20  H   435 d   1     -13.731   9.903  -7.767  0.00  0.00     0.088 H 
BRANCH  15  21
ATOM     21  C27 435 d   1     -15.900  14.497  -5.951  0.00  0.00    -0.049 C 
ATOM     22  H   435 d   1     -16.797  14.259  -5.361  0.00  0.00     0.033 H 
ATOM     23  H   435 d   1     -16.179  15.139  -6.799  0.00  0.00     0.033 H 
ATOM     24  H   435 d   1     -15.172  15.024  -5.316  0.00  0.00     0.033 H 
ENDBRANCH  15  21
BRANCH  17  25
ATOM     25  O7  435 d   1     -13.568  14.469  -7.562  0.00  0.00    -0.360 OA
ATOM     26  H   435 d   1     -13.566  14.575  -8.506  0.00  0.00     0.217 HD
ENDBRANCH  17  25
BRANCH  18  27
ATOM     27  C8  435 d   1     -12.384  12.114  -8.608  0.00  0.00    -0.049 C 
ATOM     28  H   435 d   1     -12.086  11.090  -8.879  0.00  0.00     0.033 H 
ATOM     29  H   435 d   1     -11.555  12.610  -8.081  0.00  0.00     0.033 H 
ATOM     30  H   435 d   1     -12.629  12.678  -9.520  0.00  0.00     0.033 H 
ENDBRANCH  18  27
ENDBRANCH  12  13
ENDBRANCH   1  11
BRANCH   4  31
ATOM     31  S17 435 d   1     -16.990   3.158  -4.746  0.00  0.00     0.264 S 
ATOM     32  O18 435 d   1     -17.261   2.318  -5.924  0.00  0.00    -0.200 OA
ATOM     33  O19 435 d   1     -18.099   3.417  -3.799  0.00  0.00    -0.200 OA
BRANCH  31  34
ATOM     34  N20 435 d   1     -15.701   2.444  -4.031  0.00  0.00    -0.264 N 
ATOM     35  H   435 d   1     -15.315   1.644  -4.490  0.00  0.00     0.180 HD
BRANCH  34  36
ATOM     36  C21 435 d   1     -15.115   2.831  -2.889  0.00  0.00     0.136 A 
ATOM     37  N22 435 d   1     -13.901   2.275  -2.602  0.00  0.00    -0.243 NA
ATOM     38  C23 435 d   1     -13.222   2.610  -1.496  0.00  0.00     0.004 A 
ATOM     39  C24 435 d   1     -13.746   3.570  -0.616  0.00  0.00    -0.066 A 
ATOM     40  H   435 d   1     -12.269   2.140  -1.281  0.00  0.00     0.114 H 
ATOM     41  C25 435 d   1     -14.990   4.159  -0.894  0.00  0.00    -0.078 A 
ATOM     42  H   435 d   1     -13.194   3.855   0.272  0.00  0.00     0.085 H 
ATOM     43  C26 435 d   1     -15.694   3.792  -2.041  0.00  0.00    -0.038 A 
ATOM     44  H   435 d   1     -15.403   4.899  -0.218  0.00  0.00     0.083 H 
ATOM     45  H   435 d   1     -16.657   4.234  -2.271  0.00  0.00     0.089 H 
ENDBRANCH  34  36
ENDBRANCH  31  34
ENDBRANCH   4  31
TORSDOF 8
