REMARK  8 active torsions:
REMARK  status: ('A' for Active; 'I' for Inactive)
REMARK    1  A    between atoms: C6_6  and  N7_7 
REMARK    2  A    between atoms: N7_7  and  S8_8 
REMARK    3  A    between atoms: S8_8  and  C10_10 
REMARK    4  A    between atoms: C13_13  and  N17_17 
REMARK    5  A    between atoms: N18_18  and  C19_19 
REMARK    6  A    between atoms: C21_21  and  N25_25 
REMARK    7  A    between atoms: C22_22  and  C28_28 
REMARK    8  A    between atoms: C23_23  and  C26_26 
ROOT
ATOM      1  C9  NUE d   1     -16.900   6.071  -4.412  0.00  0.00    -0.058 A 
ATOM      2  C10 NUE d   1     -16.473   4.863  -5.046  0.00  0.00     0.080 A 
ATOM      3  C11 NUE d   1     -16.494   7.388  -4.911  0.00  0.00    -0.052 A 
ATOM      4  C12 NUE d   1     -15.672   5.023  -6.212  0.00  0.00    -0.058 A 
ATOM      5  C13 NUE d   1     -15.700   7.445  -6.024  0.00  0.00     0.079 A 
ATOM      6  C14 NUE d   1     -15.300   6.289  -6.673  0.00  0.00    -0.052 A 
ATOM      7  H   NUE d   1     -17.541   6.011  -3.540  0.00  0.00     0.086 H 
ATOM      8  H   NUE d   1     -16.815   8.294  -4.411  0.00  0.00     0.087 H 
ATOM      9  H   NUE d   1     -15.343   4.144  -6.754  0.00  0.00     0.086 H 
ATOM     10  H   NUE d   1     -14.683   6.368  -7.561  0.00  0.00     0.087 H 
ENDROOT
BRANCH   5  11
ATOM     11  N17 NUE d   1     -15.209   8.661  -6.507  0.00  0.00    -0.150 NA
ATOM     12  N18 NUE d   1     -15.596   9.746  -5.969  0.00  0.00    -0.148 NA
BRANCH  12  13
ATOM     13  C19 NUE d   1     -15.019  10.953  -6.399  0.00  0.00     0.102 C 
ATOM     14  C20 NUE d   1     -14.016  11.018  -7.415  0.00  0.00    -0.061 C 
ATOM     15  C22 NUE d   1     -13.463  12.207  -7.745  0.00  0.00     0.011 C 
ATOM     16  H   NUE d   1     -13.697  10.110  -7.924  0.00  0.00     0.081 H 
ATOM     17  C24 NUE d   1     -13.983  13.425  -7.204  0.00  0.00     0.100 C 
ATOM     18  H   NUE d   1     -12.740  12.126  -6.920  0.00  0.00     0.056 H 
ATOM     19  C23 NUE d   1     -14.988  13.385  -6.280  0.00  0.00    -0.000 C 
ATOM     20  O27 NUE d   1     -13.425  14.566  -7.520  0.00  0.00    -0.195 OA
ATOM     21  C21 NUE d   1     -15.491  12.174  -5.883  0.00  0.00     0.065 C 
BRANCH  15  22
ATOM     22  C28 NUE d   1     -12.354  12.248  -8.756  0.00  0.00    -0.064 C 
ATOM     23  H   NUE d   1     -12.090  11.222  -9.053  0.00  0.00     0.028 H 
ATOM     24  H   NUE d   1     -11.474  12.740  -8.316  0.00  0.00     0.028 H 
ATOM     25  H   NUE d   1     -12.685  12.812  -9.641  0.00  0.00     0.028 H 
ENDBRANCH  15  22
BRANCH  19  26
ATOM     26  C26 NUE d   1     -15.507  14.696  -5.758  0.00  0.00    -0.047 C 
ATOM     27  H   NUE d   1     -16.308  14.509  -5.027  0.00  0.00     0.033 H 
ATOM     28  H   NUE d   1     -15.905  15.291  -6.593  0.00  0.00     0.033 H 
ATOM     29  H   NUE d   1     -14.688  15.247  -5.272  0.00  0.00     0.033 H 
ENDBRANCH  19  26
BRANCH  21  30
ATOM     30  N25 NUE d   1     -16.509  12.136  -4.959  0.00  0.00    -0.397 N 
ATOM     31  H   NUE d   1     -16.894  11.231  -4.654  0.00  0.00     0.156 HD
ATOM     32  H   NUE d   1     -16.886  13.013  -4.572  0.00  0.00     0.156 HD
ENDBRANCH  21  30
ENDBRANCH  12  13
ENDBRANCH   5  11
BRANCH   2  33
ATOM     33  S8  NUE d   1     -16.914   3.342  -4.450  0.00  0.00     0.264 S 
ATOM     34  O15 NUE d   1     -17.950   3.821  -3.500  0.00  0.00    -0.200 OA
ATOM     35  O16 NUE d   1     -17.240   2.623  -5.657  0.00  0.00    -0.200 OA
BRANCH  33  36
ATOM     36  N7  NUE d   1     -15.577   2.554  -3.869  0.00  0.00    -0.264 N 
ATOM     37  H   NUE d   1     -15.187   1.815  -4.418  0.00  0.00     0.180 HD
BRANCH  36  38
ATOM     38  C6  NUE d   1     -14.986   2.859  -2.690  0.00  0.00     0.136 A 
ATOM     39  C4  NUE d   1     -15.581   3.744  -1.762  0.00  0.00    -0.038 A 
ATOM     40  C2  NUE d   1     -14.925   4.047  -0.582  0.00  0.00    -0.078 A 
ATOM     41  H   NUE d   1     -16.549   4.184  -1.974  0.00  0.00     0.089 H 
ATOM     42  C1  NUE d   1     -13.692   3.437  -0.327  0.00  0.00    -0.066 A 
ATOM     43  H   NUE d   1     -15.357   4.742   0.129  0.00  0.00     0.083 H 
ATOM     44  C3  NUE d   1     -13.145   2.544  -1.277  0.00  0.00     0.004 A 
ATOM     45  H   NUE d   1     -13.159   3.648   0.593  0.00  0.00     0.085 H 
ATOM     46  N5  NUE d   1     -13.772   2.280  -2.421  0.00  0.00    -0.243 NA
ATOM     47  H   NUE d   1     -12.195   2.064  -1.069  0.00  0.00     0.114 H 
ENDBRANCH  36  38
ENDBRANCH  33  36
ENDBRANCH   2  33
TORSDOF 8
