REMARK  3 active torsions:
REMARK  status: ('A' for Active; 'I' for Inactive)
REMARK    1  A    between atoms: C2'_9  and  O2'_10 
REMARK    2  A    between atoms: C1'_11  and  N9_13 
REMARK    3  A    between atoms: C6_21  and  N6_22 
ROOT
ATOM      1  O2P 7CH d   1       3.785  23.247  15.367  0.00  0.00    -0.624 OA
ATOM      2  P   7CH d   1       4.252  21.820  15.466  0.00  0.00     0.408 P 
ATOM      3  O1P 7CH d   1       5.018  21.340  16.661  0.00  0.00    -0.624 OA
ATOM      4  O3' 7CH d   1       3.003  20.826  15.197  0.00  0.00    -0.279 OA
ATOM      5  C3' 7CH d   1       3.455  19.498  15.101  0.00  0.00     0.106 C 
ATOM      6  C4' 7CH d   1       4.421  19.364  13.948  0.00  0.00     0.090 C 
ATOM      7  C5' 7CH d   1       5.681  20.192  14.008  0.00  0.00     0.058 C 
ATOM      8  O5' 7CH d   1       5.220  21.528  14.190  0.00  0.00    -0.287 OA
ATOM      9  C2' 7CH d   1       2.436  18.439  14.760  0.00  0.00     0.106 C 
ATOM     10  C1' 7CH d   1       3.323  17.388  14.130  0.00  0.00     0.138 C 
ATOM     11  O4' 7CH d   1       4.627  17.959  14.003  0.00  0.00    -0.353 OA
ATOM     12  H   7CH d   1       3.942  19.241  16.053  0.00  0.00     0.092 H 
ATOM     13  H   7CH d   1       3.914  19.634  13.010  0.00  0.00     0.090 H 
ATOM     14  H   7CH d   1       6.251  20.101  13.072  0.00  0.00     0.079 H 
ATOM     15  H   7CH d   1       6.312  19.880  14.853  0.00  0.00     0.079 H 
ATOM     16  H   7CH d   1       1.919  18.059  15.653  0.00  0.00     0.093 H 
ATOM     17  H   7CH d   1       2.929  17.120  13.139  0.00  0.00     0.122 H 
ENDROOT
BRANCH  10  18
ATOM     18  N9  7CH d   1       3.412  16.180  14.955  0.00  0.00    -0.311 N 
ATOM     19  C4  7CH d   1       2.814  15.046  14.649  0.00  0.00     0.147 A 
ATOM     20  C5  7CH d   1       3.159  14.093  15.700  0.00  0.00     0.057 A 
ATOM     21  N3  7CH d   1       2.033  14.663  13.632  0.00  0.00    -0.223 NA
ATOM     22  C7  7CH d   1       3.990  14.714  16.550  0.00  0.00    -0.051 A 
ATOM     23  C6  7CH d   1       2.556  12.731  15.581  0.00  0.00     0.136 A 
ATOM     24  C8  7CH d   1       4.136  15.989  16.085  0.00  0.00    -0.015 A 
ATOM     25  H   7CH d   1       4.456  14.286  17.436  0.00  0.00     0.087 H 
ATOM     26  H   7CH d   1       4.752  16.752  16.559  0.00  0.00     0.111 H 
ATOM     27  N1  7CH d   1       1.765  12.471  14.513  0.00  0.00    -0.224 NA
ATOM     28  C2  7CH d   1       1.507  13.420  13.592  0.00  0.00     0.091 A 
ATOM     29  H   7CH d   1       0.841  13.172  12.774  0.00  0.00     0.146 H 
BRANCH  23  30
ATOM     30  N6  7CH d   1       2.825  11.769  16.520  0.00  0.00    -0.383 N 
ATOM     31  H   7CH d   1       2.406  10.832  16.432  0.00  0.00     0.157 HD
ATOM     32  H   7CH d   1       3.446  11.983  17.313  0.00  0.00     0.157 HD
ENDBRANCH  23  30
ENDBRANCH  10  18
BRANCH   9  33
ATOM     33  O2' 7CH d   1       1.479  18.948  13.816  0.00  0.00    -0.388 OA
ATOM     34  H   7CH d   1       1.032  19.697  14.192  0.00  0.00     0.210 HD
ENDBRANCH   9  33
TORSDOF 3
