REMARK  10 active torsions:
REMARK  status: ('A' for Active; 'I' for Inactive)
REMARK    1  A    between atoms: C_2  and  CA_4 
REMARK    2  A    between atoms: CA_4  and  N_5 
REMARK    3  A    between atoms: CA_4  and  CB_6 
REMARK    4  A    between atoms: CB_6  and  CG_7 
REMARK    5  A    between atoms: CG_7  and  CD2_8 
REMARK    6  A    between atoms: CG_7  and  CD1_11 
REMARK    7  A    between atoms: CD1_11  and  CAH_12 
REMARK    8  A    between atoms: CAH_12  and  CAN_13 
REMARK    9  A    between atoms: CAN_13  and  OAK_15 
REMARK   10  A    between atoms: OAK_15  and  CAA_16 
ROOT
ATOM      1  CG  2QE d   1       4.343  27.511  15.215  0.00  0.00     0.033 C 
ATOM      2  H   2QE d   1       5.317  27.623  14.717  0.00  0.00     0.056 H 
ENDROOT
BRANCH   1   3
ATOM      3  CB  2QE d   1       3.542  28.816  15.023  0.00  0.00    -0.016 C 
ATOM      4  H   2QE d   1       2.500  28.631  15.322  0.00  0.00     0.038 H 
ATOM      5  H   2QE d   1       3.978  29.589  15.673  0.00  0.00     0.038 H 
BRANCH   3   6
ATOM      6  CA  2QE d   1       3.546  29.337  13.582  0.00  0.00     0.183 C 
ATOM      7  H   2QE d   1       3.359  28.479  12.919  0.00  0.00     0.101 H 
BRANCH   6   8
ATOM      8  C   2QE d   1       2.444  30.367  13.350  0.00  0.00     0.204 C 
ATOM      9  O   2QE d   1       2.778  31.426  12.784  0.00  0.00    -0.646 OA
ATOM     10  OXT 2QE d   1       1.289  30.058  13.715  0.00  0.00    -0.646 OA
ENDBRANCH   6   8
BRANCH   6  11
ATOM     11  N   2QE d   1       4.845  29.935  13.204  0.00  0.00    -0.065 N 
ATOM     12  H   2QE d   1       5.581  29.262  13.354  0.00  0.00     0.275 HD
ATOM     13  H   2QE d   1       5.016  30.752  13.770  0.00  0.00     0.275 HD
ATOM     14  H   2QE d   1       4.823  30.198  12.231  0.00  0.00     0.275 HD
ENDBRANCH   6  11
ENDBRANCH   3   6
ENDBRANCH   1   3
BRANCH   1  15
ATOM     15  CD2 2QE d   1       3.592  26.349  14.551  0.00  0.00     0.177 C 
ATOM     16  OAG 2QE d   1       2.390  26.510  14.257  0.00  0.00    -0.648 OA
ATOM     17  OAD 2QE d   1       4.254  25.302  14.333  0.00  0.00    -0.648 OA
ENDBRANCH   1  15
BRANCH   1  18
ATOM     18  CD1 2QE d   1       4.598  27.241  16.708  0.00  0.00    -0.044 C 
ATOM     19  H   2QE d   1       4.944  26.203  16.818  0.00  0.00     0.035 H 
ATOM     20  H   2QE d   1       3.650  27.371  17.250  0.00  0.00     0.035 H 
BRANCH  18  21
ATOM     21  CAH 2QE d   1       5.651  28.173  17.343  0.00  0.00     0.017 C 
ATOM     22  H   2QE d   1       5.759  27.924  18.409  0.00  0.00     0.048 H 
ATOM     23  H   2QE d   1       5.318  29.216  17.242  0.00  0.00     0.048 H 
BRANCH  21  24
ATOM     24  CAN 2QE d   1       7.014  28.007  16.644  0.00  0.00     0.258 C 
ATOM     25  OAE 2QE d   1       7.545  26.887  16.586  0.00  0.00    -0.265 OA
BRANCH  24  26
ATOM     26  OAK 2QE d   1       7.539  29.158  16.145  0.00  0.00    -0.326 OA
BRANCH  26  27
ATOM     27  CAA 2QE d   1       8.643  28.991  15.259  0.00  0.00     0.013 C 
ATOM     28  H   2QE d   1       8.990  29.977  14.915  0.00  0.00     0.067 H 
ATOM     29  H   2QE d   1       8.330  28.390  14.393  0.00  0.00     0.067 H 
ATOM     30  H   2QE d   1       9.461  28.478  15.785  0.00  0.00     0.067 H 
ENDBRANCH  26  27
ENDBRANCH  24  26
ENDBRANCH  21  24
ENDBRANCH  18  21
ENDBRANCH   1  18
TORSDOF 10
