REMARK  8 active torsions:
REMARK  status: ('A' for Active; 'I' for Inactive)
REMARK    1  A    between atoms: O3A_8  and  PB_1 
REMARK    2  A    between atoms: PA_5  and  O3A_8 
REMARK    3  A    between atoms: PA_5  and  O5'_9 
REMARK    4  A    between atoms: O5'_9  and  C5'_10 
REMARK    5  A    between atoms: C5'_10  and  C4'_11 
REMARK    6  A    between atoms: C3'_13  and  O3'_14 
REMARK    7  A    between atoms: C2'_15  and  O2'_16 
REMARK    8  A    between atoms: C1'_17  and  N9_18 
ROOT
ATOM      1  C4' ADP d   1      -5.453 -31.916 -10.140  0.00  0.00     0.089 C 
ATOM      2  O4' ADP d   1      -4.983 -32.340  -8.857  0.00  0.00    -0.353 OA
ATOM      3  C3' ADP d   1      -6.733 -32.654 -10.413  0.00  0.00     0.091 C 
ATOM      4  C2' ADP d   1      -7.162 -33.205  -9.066  0.00  0.00     0.105 C 
ATOM      5  C1' ADP d   1      -5.853 -33.328  -8.296  0.00  0.00     0.139 C 
ATOM      6  H   ADP d   1      -4.709 -32.154 -10.915  0.00  0.00     0.090 H 
ATOM      7  H   ADP d   1      -7.504 -31.967 -10.792  0.00  0.00     0.091 H 
ATOM      8  H   ADP d   1      -7.822 -32.479  -8.569  0.00  0.00     0.093 H 
ATOM      9  H   ADP d   1      -5.433 -34.331  -8.462  0.00  0.00     0.122 H 
ENDROOT
BRANCH   5  10
ATOM     10  N9  ADP d   1      -5.988 -33.120  -6.818  0.00  0.00    -0.294 N 
ATOM     11  C8  ADP d   1      -6.752 -32.198  -6.190  0.00  0.00     0.071 A 
ATOM     12  N7  ADP d   1      -6.627 -32.297  -4.838  0.00  0.00    -0.236 NA
ATOM     13  H   ADP d   1      -7.384 -31.472  -6.699  0.00  0.00     0.144 H 
ATOM     14  C5  ADP d   1      -5.773 -33.287  -4.566  0.00  0.00     0.149 A 
ATOM     15  C6  ADP d   1      -5.212 -33.902  -3.343  0.00  0.00     0.155 A 
ATOM     16  C4  ADP d   1      -5.354 -33.828  -5.874  0.00  0.00     0.167 A 
ATOM     17  N6  ADP d   1      -5.551 -33.464  -2.113  0.00  0.00    -0.382 N 
ATOM     18  N1  ADP d   1      -4.339 -34.934  -3.531  0.00  0.00    -0.222 NA
ATOM     19  H   ADP d   1      -5.146 -33.910  -1.278  0.00  0.00     0.157 HD
ATOM     20  H   ADP d   1      -6.215 -32.684  -2.009  0.00  0.00     0.157 HD
ATOM     21  C2  ADP d   1      -4.004 -35.370  -4.772  0.00  0.00     0.091 A 
ATOM     22  N3  ADP d   1      -4.483 -34.850  -5.913  0.00  0.00    -0.222 NA
ATOM     23  H   ADP d   1      -3.303 -36.193  -4.847  0.00  0.00     0.146 H 
ENDBRANCH   5  10
BRANCH   4  24
ATOM     24  O2' ADP d   1      -7.850 -34.444  -9.127  0.00  0.00    -0.388 OA
ATOM     25  H   ADP d   1      -8.638 -34.342  -9.647  0.00  0.00     0.210 HD
ENDBRANCH   4  24
BRANCH   1  26
ATOM     26  C5' ADP d   1      -5.697 -30.432 -10.115  0.00  0.00     0.058 C 
ATOM     27  H   ADP d   1      -5.944 -30.080 -11.128  0.00  0.00     0.079 H 
ATOM     28  H   ADP d   1      -6.531 -30.205  -9.435  0.00  0.00     0.079 H 
BRANCH  26  29
ATOM     29  O5' ADP d   1      -4.523 -29.789  -9.660  0.00  0.00    -0.287 OA
BRANCH  29  30
ATOM     30  PA  ADP d   1      -4.458 -28.185  -9.499  0.00  0.00     0.418 P 
ATOM     31  O1A ADP d   1      -3.268 -27.873  -8.625  0.00  0.00    -0.624 OA
ATOM     32  O2A ADP d   1      -5.848 -27.722  -9.143  0.00  0.00    -0.624 OA
BRANCH  30  33
ATOM     33  O3A ADP d   1      -4.139 -27.800 -11.037  0.00  0.00    -0.173 OA
BRANCH  33  34
ATOM     34  PB  ADP d   1      -5.074 -26.862 -11.964  0.00  0.00     0.431 P 
ATOM     35  O1B ADP d   1      -5.035 -25.502 -11.319  0.00  0.00    -0.616 OA
ATOM     36  O2B ADP d   1      -4.390 -26.937 -13.308  0.00  0.00    -0.616 OA
ATOM     37  O3B ADP d   1      -6.431 -27.517 -11.917  0.00  0.00    -0.616 OA
ENDBRANCH  33  34
ENDBRANCH  30  33
ENDBRANCH  29  30
ENDBRANCH  26  29
ENDBRANCH   1  26
BRANCH   3  38
ATOM     38  O3' ADP d   1      -6.485 -33.650 -11.395  0.00  0.00    -0.390 OA
ATOM     39  H   ADP d   1      -7.289 -34.123 -11.575  0.00  0.00     0.210 HD
ENDBRANCH   3  38
TORSDOF 8
