REMARK  9 active torsions:
REMARK  status: ('A' for Active; 'I' for Inactive)
REMARK    1  A    between atoms: PB_1  and  O3A_5 
REMARK    2  A    between atoms: O3A_5  and  PA_6 
REMARK    3  A    between atoms: PA_6  and  O5'_9 
REMARK    4  A    between atoms: O5'_9  and  C5'_10 
REMARK    5  A    between atoms: C5'_10  and  C4'_11 
REMARK    6  A    between atoms: C3'_13  and  O3'_14 
REMARK    7  A    between atoms: C2'_15  and  O2'_16 
REMARK    8  A    between atoms: C1'_17  and  N9_18 
REMARK    9  A    between atoms: C2_25  and  N2_26 
ROOT
ATOM      1  C4' GDP d   1      -5.042 -32.143 -10.572  0.00  0.00     0.089 C 
ATOM      2  O4' GDP d   1      -4.085 -33.126 -10.269  0.00  0.00    -0.353 OA
ATOM      3  C3' GDP d   1      -6.379 -32.794 -10.762  0.00  0.00     0.091 C 
ATOM      4  C2' GDP d   1      -6.243 -33.891  -9.768  0.00  0.00     0.105 C 
ATOM      5  C1' GDP d   1      -4.775 -34.251  -9.801  0.00  0.00     0.139 C 
ATOM      6  H   GDP d   1      -4.759 -31.663 -11.520  0.00  0.00     0.090 H 
ATOM      7  H   GDP d   1      -7.199 -32.114 -10.490  0.00  0.00     0.091 H 
ATOM      8  H   GDP d   1      -6.512 -33.523  -8.767  0.00  0.00     0.093 H 
ATOM      9  H   GDP d   1      -4.640 -35.074 -10.519  0.00  0.00     0.122 H 
ENDROOT
BRANCH   5  10
ATOM     10  N9  GDP d   1      -4.241 -34.699  -8.518  0.00  0.00    -0.295 N 
ATOM     11  C8  GDP d   1      -3.287 -35.638  -8.354  0.00  0.00     0.071 A 
ATOM     12  N7  GDP d   1      -3.028 -35.794  -7.065  0.00  0.00    -0.234 NA
ATOM     13  H   GDP d   1      -2.802 -36.186  -9.161  0.00  0.00     0.144 H 
ATOM     14  C5  GDP d   1      -3.796 -34.962  -6.360  0.00  0.00     0.171 A 
ATOM     15  C6  GDP d   1      -3.957 -34.685  -4.968  0.00  0.00     0.292 A 
ATOM     16  C4  GDP d   1      -4.589 -34.239  -7.274  0.00  0.00     0.161 A 
ATOM     17  O6  GDP d   1      -3.290 -35.287  -4.137  0.00  0.00    -0.265 OA
ATOM     18  N1  GDP d   1      -4.885 -33.722  -4.579  0.00  0.00    -0.154 N 
ATOM     19  C2  GDP d   1      -5.703 -32.974  -5.503  0.00  0.00     0.680 A 
ATOM     20  H   GDP d   1      -4.991 -33.538  -3.602  0.00  0.00     0.187 HD
ATOM     21  N3  GDP d   1      -5.558 -33.223  -6.802  0.00  0.00    -0.174 N 
ATOM     22  H   GDP d   1      -6.126 -32.704  -7.487  0.00  0.00     0.186 HD
BRANCH  19  23
ATOM     23  N2  GDP d   1      -6.662 -31.966  -5.042  0.00  0.00    -0.234 N 
ATOM     24  H   GDP d   1      -7.232 -31.448  -5.725  0.00  0.00     0.174 HD
ATOM     25  H   GDP d   1      -6.765 -31.776  -4.035  0.00  0.00     0.174 HD
ENDBRANCH  19  23
ENDBRANCH   5  10
BRANCH   4  26
ATOM     26  O2' GDP d   1      -7.059 -34.967 -10.067  0.00  0.00    -0.388 OA
ATOM     27  H   GDP d   1      -7.966 -34.683 -10.074  0.00  0.00     0.210 HD
ENDBRANCH   4  26
BRANCH   1  28
ATOM     28  C5' GDP d   1      -5.065 -31.074  -9.500  0.00  0.00     0.058 C 
ATOM     29  H   GDP d   1      -6.091 -30.927  -9.131  0.00  0.00     0.079 H 
ATOM     30  H   GDP d   1      -4.411 -31.360  -8.663  0.00  0.00     0.079 H 
BRANCH  28  31
ATOM     31  O5' GDP d   1      -4.595 -29.905 -10.105  0.00  0.00    -0.287 OA
BRANCH  31  32
ATOM     32  PA  GDP d   1      -4.278 -28.596  -9.292  0.00  0.00     0.418 P 
ATOM     33  O1A GDP d   1      -3.138 -28.851  -8.323  0.00  0.00    -0.624 OA
ATOM     34  O2A GDP d   1      -5.510 -28.144  -8.530  0.00  0.00    -0.624 OA
BRANCH  32  35
ATOM     35  O3A GDP d   1      -3.853 -27.484 -10.309  0.00  0.00    -0.173 OA
BRANCH  35  36
ATOM     36  PB  GDP d   1      -4.747 -27.136 -11.544  0.00  0.00     0.431 P 
ATOM     37  O1B GDP d   1      -5.272 -25.733 -11.364  0.00  0.00    -0.616 OA
ATOM     38  O2B GDP d   1      -3.928 -27.200 -12.813  0.00  0.00    -0.616 OA
ATOM     39  O3B GDP d   1      -5.899 -28.086 -11.651  0.00  0.00    -0.616 OA
ENDBRANCH  35  36
ENDBRANCH  32  35
ENDBRANCH  31  32
ENDBRANCH  28  31
ENDBRANCH   1  28
BRANCH   3  40
ATOM     40  O3' GDP d   1      -6.581 -33.224 -12.064  0.00  0.00    -0.390 OA
ATOM     41  H   GDP d   1      -7.438 -33.628 -12.134  0.00  0.00     0.210 HD
ENDBRANCH   3  40
TORSDOF 9
