REMARK  9 active torsions:
REMARK  status: ('A' for Active; 'I' for Inactive)
REMARK    1  A    between atoms: C4_4  and  C18_18 
REMARK    2  A    between atoms: C5_5  and  C11_11 
REMARK    3  A    between atoms: C6_6  and  C17_17 
REMARK    4  A    between atoms: C11_11  and  C12_12 
REMARK    5  A    between atoms: C11_11  and  O15_15 
REMARK    6  A    between atoms: O15_15  and  C16_16 
REMARK    7  A    between atoms: C16_16  and  C25_25 
REMARK    8  A    between atoms: C16_16  and  C26_26 
REMARK    9  A    between atoms: C16_16  and  C27_27 
ROOT
ATOM      1  N1  4BI d   1      18.660  64.403   8.433  0.00  0.00    -0.253 NA
ATOM      2  C2  4BI d   1      18.592  64.586   9.772  0.00  0.00     0.068 A 
ATOM      3  C3  4BI d   1      19.666  64.217  10.665  0.00  0.00     0.004 A 
ATOM      4  C4  4BI d   1      20.864  63.613  10.053  0.00  0.00    -0.002 A 
ATOM      5  C5  4BI d   1      20.931  63.419   8.591  0.00  0.00     0.017 A 
ATOM      6  C6  4BI d   1      19.773  63.840   7.840  0.00  0.00     0.041 A 
ATOM      7  C7  4BI d   1      19.467  64.469  12.086  0.00  0.00    -0.070 A 
ATOM      8  C8  4BI d   1      18.274  65.058  12.586  0.00  0.00    -0.082 A 
ATOM      9  C9  4BI d   1      17.243  65.412  11.689  0.00  0.00    -0.081 A 
ATOM     10  C10 4BI d   1      17.411  65.173  10.295  0.00  0.00    -0.054 A 
ATOM     11  H   4BI d   1      20.252  64.199  12.783  0.00  0.00     0.084 H 
ATOM     12  H   4BI d   1      18.157  65.234  13.649  0.00  0.00     0.083 H 
ATOM     13  H   4BI d   1      16.329  65.863  12.059  0.00  0.00     0.083 H 
ATOM     14  H   4BI d   1      16.613  65.448   9.614  0.00  0.00     0.087 H 
ENDROOT
BRANCH   5  15
ATOM     15  C11 4BI d   1      22.205  62.781   7.937  0.00  0.00     0.151 C 
ATOM     16  H   4BI d   1      22.985  62.797   8.713  0.00  0.00     0.108 H 
BRANCH  15  17
ATOM     17  C12 4BI d   1      21.996  61.284   7.536  0.00  0.00     0.208 C 
ATOM     18  O13 4BI d   1      21.197  60.595   8.238  0.00  0.00    -0.646 OA
ATOM     19  O14 4BI d   1      22.665  60.901   6.529  0.00  0.00    -0.646 OA
ENDBRANCH  15  17
BRANCH  15  20
ATOM     20  O15 4BI d   1      22.737  63.538   6.792  0.00  0.00    -0.360 OA
BRANCH  20  21
ATOM     21  C16 4BI d   1      23.681  64.644   6.956  0.00  0.00     0.051 C 
BRANCH  21  22
ATOM     22  C25 4BI d   1      22.996  65.940   7.393  0.00  0.00    -0.048 C 
ATOM     23  H   4BI d   1      23.749  66.734   7.501  0.00  0.00     0.031 H 
ATOM     24  H   4BI d   1      22.491  65.781   8.357  0.00  0.00     0.031 H 
ATOM     25  H   4BI d   1      22.256  66.237   6.636  0.00  0.00     0.031 H 
ENDBRANCH  21  22
BRANCH  21  26
ATOM     26  C26 4BI d   1      24.828  64.313   7.940  0.00  0.00    -0.048 C 
ATOM     27  H   4BI d   1      25.502  65.178   8.022  0.00  0.00     0.031 H 
ATOM     28  H   4BI d   1      25.390  63.444   7.568  0.00  0.00     0.031 H 
ATOM     29  H   4BI d   1      24.407  64.082   8.930  0.00  0.00     0.031 H 
ENDBRANCH  21  26
BRANCH  21  30
ATOM     30  C27 4BI d   1      24.282  64.856   5.557  0.00  0.00    -0.048 C 
ATOM     31  H   4BI d   1      25.011  65.680   5.592  0.00  0.00     0.031 H 
ATOM     32  H   4BI d   1      23.480  65.106   4.847  0.00  0.00     0.031 H 
ATOM     33  H   4BI d   1      24.786  63.934   5.231  0.00  0.00     0.031 H 
ENDBRANCH  21  30
ENDBRANCH  20  21
ENDBRANCH  15  20
ENDBRANCH   5  15
BRANCH   4  34
ATOM     34  C18 4BI d   1      22.018  63.207  10.926  0.00  0.00    -0.024 A 
ATOM     35  C19 4BI d   1      23.017  64.167  11.321  0.00  0.00    -0.071 A 
ATOM     36  C20 4BI d   1      24.111  63.779  12.144  0.00  0.00    -0.061 A 
ATOM     37  H   4BI d   1      22.934  65.195  10.988  0.00  0.00     0.084 H 
ATOM     38  C21 4BI d   1      24.220  62.432  12.581  0.00  0.00     0.034 A 
ATOM     39  H   4BI d   1      24.858  64.508  12.436  0.00  0.00     0.086 H 
ATOM     40  C22 4BI d   1      23.249  61.466  12.208  0.00  0.00    -0.061 A 
ATOM     41 CL   4BI d   1      25.539  61.966  13.572  0.00  0.00    -0.084 Cl
ATOM     42  C23 4BI d   1      22.153  61.849  11.385  0.00  0.00    -0.071 A 
ATOM     43  H   4BI d   1      23.342  60.441  12.549  0.00  0.00     0.086 H 
ATOM     44  H   4BI d   1      21.412  61.111  11.101  0.00  0.00     0.084 H 
ENDBRANCH   4  34
BRANCH   6  45
ATOM     45  C17 4BI d   1      19.623  63.738   6.341  0.00  0.00    -0.035 C 
ATOM     46  H   4BI d   1      20.529  63.286   5.912  0.00  0.00     0.035 H 
ATOM     47  H   4BI d   1      19.479  64.743   5.918  0.00  0.00     0.035 H 
ATOM     48  H   4BI d   1      18.752  63.111   6.101  0.00  0.00     0.035 H 
ENDBRANCH   6  45
TORSDOF 9
