REMARK  5 active torsions:
REMARK  status: ('A' for Active; 'I' for Inactive)
REMARK    1  A    between atoms: C1_4  and  C20_5 
REMARK    2  A    between atoms: C1_4  and  C_6 
REMARK    3  A    between atoms: N2_11  and  C17_12 
REMARK    4  A    between atoms: N_15  and  C7_18 
REMARK    5  A    between atoms: C10_21  and  C13_22 
REMARK       I    between atoms: C13_22  and  N1_23 
ROOT
ATOM      1  O1  2Q8 d   1       8.676 -12.362 -24.210  0.00  0.00    -0.292 OA
ATOM      2  C18 2Q8 d   1       7.505 -12.711 -24.304  0.00  0.00     0.162 C 
ATOM      3  C19 2Q8 d   1       7.167 -14.138 -24.677  0.00  0.00     0.002 C 
ATOM      4  C1  2Q8 d   1       5.901 -14.315 -25.532  0.00  0.00    -0.036 C 
ATOM      5  C4  2Q8 d   1       6.390 -11.762 -24.105  0.00  0.00     0.041 A 
ATOM      6  C5  2Q8 d   1       6.296 -10.369 -23.739  0.00  0.00    -0.016 A 
ATOM      7  C16 2Q8 d   1       7.431  -9.433 -23.399  0.00  0.00    -0.015 C 
ATOM      8  C15 2Q8 d   1       6.913  -7.995 -23.439  0.00  0.00     0.087 C 
ATOM      9  N2  2Q8 d   1       5.611  -7.811 -22.799  0.00  0.00    -0.069 N 
ATOM     10  C14 2Q8 d   1       4.580  -8.598 -23.471  0.00  0.00     0.121 C 
ATOM     11  C6  2Q8 d   1       4.970 -10.008 -23.788  0.00  0.00     0.050 A 
ATOM     12  N   2Q8 d   1       4.239 -11.118 -24.176  0.00  0.00    -0.316 N 
ATOM     13  C3  2Q8 d   1       5.102 -12.192 -24.374  0.00  0.00     0.032 A 
ATOM     14  C2  2Q8 d   1       4.745 -13.567 -24.855  0.00  0.00    -0.019 C 
ATOM     15  H   2Q8 d   1       7.030 -14.709 -23.747  0.00  0.00     0.046 H 
ATOM     16  H   2Q8 d   1       8.017 -14.552 -25.240  0.00  0.00     0.046 H 
ATOM     17  H   2Q8 d   1       8.242  -9.554 -24.132  0.00  0.00     0.042 H 
ATOM     18  H   2Q8 d   1       7.810  -9.662 -22.392  0.00  0.00     0.042 H 
ATOM     19  H   2Q8 d   1       6.827  -7.688 -24.492  0.00  0.00     0.076 H 
ATOM     20  H   2Q8 d   1       7.643  -7.351 -22.928  0.00  0.00     0.076 H 
ATOM     21  H   2Q8 d   1       5.682  -8.136 -21.847  0.00  0.00     0.279 HD
ATOM     22  H   2Q8 d   1       4.326  -8.093 -24.415  0.00  0.00     0.085 H 
ATOM     23  H   2Q8 d   1       3.694  -8.627 -22.820  0.00  0.00     0.085 H 
ATOM     24  H   2Q8 d   1       4.410 -14.159 -23.991  0.00  0.00     0.043 H 
ATOM     25  H   2Q8 d   1       3.921 -13.476 -25.579  0.00  0.00     0.043 H 
ENDROOT
BRANCH  12  26
ATOM     26  C7  2Q8 d   1       2.810 -11.125 -24.394  0.00  0.00     0.039 A 
ATOM     27  C12 2Q8 d   1       2.228 -10.174 -25.238  0.00  0.00    -0.056 A 
ATOM     28  C11 2Q8 d   1       0.859 -10.183 -25.452  0.00  0.00    -0.066 A 
ATOM     29  H   2Q8 d   1       2.848  -9.430 -25.725  0.00  0.00     0.087 H 
ATOM     30  C10 2Q8 d   1       0.046 -11.146 -24.849  0.00  0.00     0.032 A 
ATOM     31  H   2Q8 d   1       0.413  -9.433 -26.096  0.00  0.00     0.085 H 
ATOM     32  C9  2Q8 d   1       0.633 -12.095 -24.008  0.00  0.00    -0.066 A 
ATOM     33  C8  2Q8 d   1       2.002 -12.086 -23.772  0.00  0.00    -0.056 A 
ATOM     34  H   2Q8 d   1       0.013 -12.847 -23.534  0.00  0.00     0.085 H 
ATOM     35  H   2Q8 d   1       2.444 -12.820 -23.108  0.00  0.00     0.087 H 
BRANCH  30  36
ATOM     36  C13 2Q8 d   1      -1.430 -11.155 -25.155  0.00  0.00     0.249 C 
ATOM     37  N1  2Q8 d   1      -2.248 -11.724 -24.276  0.00  0.00    -0.366 N 
ATOM     38  H   2Q8 d   1      -3.232 -11.746 -24.451  0.00  0.00     0.159 HD
ATOM     39  H   2Q8 d   1      -1.879 -12.130 -23.440  0.00  0.00     0.159 HD
ATOM     40  O   2Q8 d   1      -1.832 -10.650 -26.205  0.00  0.00    -0.268 OA
ENDBRANCH  30  36
ENDBRANCH  12  26
BRANCH   9  41
ATOM     41  C17 2Q8 d   1       5.238  -6.389 -22.771  0.00  0.00     0.067 C 
ATOM     42  H   2Q8 d   1       4.257  -6.277 -22.286  0.00  0.00     0.068 H 
ATOM     43  H   2Q8 d   1       5.184  -6.004 -23.800  0.00  0.00     0.068 H 
ATOM     44  H   2Q8 d   1       5.993  -5.823 -22.206  0.00  0.00     0.068 H 
ENDBRANCH   9  41
BRANCH   4  45
ATOM     45  C20 2Q8 d   1       5.549 -15.797 -25.640  0.00  0.00    -0.069 C 
ATOM     46  H   2Q8 d   1       4.643 -15.915 -26.253  0.00  0.00     0.028 H 
ATOM     47  H   2Q8 d   1       5.367 -16.205 -24.635  0.00  0.00     0.028 H 
ATOM     48  H   2Q8 d   1       6.383 -16.339 -26.110  0.00  0.00     0.028 H 
ENDBRANCH   4  45
BRANCH   4  49
ATOM     49  C   2Q8 d   1       6.138 -13.762 -26.942  0.00  0.00    -0.069 C 
ATOM     50  H   2Q8 d   1       6.393 -12.694 -26.879  0.00  0.00     0.028 H 
ATOM     51  H   2Q8 d   1       5.225 -13.886 -27.543  0.00  0.00     0.028 H 
ATOM     52  H   2Q8 d   1       6.966 -14.309 -27.416  0.00  0.00     0.028 H 
ENDBRANCH   4  49
TORSDOF 5
