REMARK  8 active torsions:
REMARK  status: ('A' for Active; 'I' for Inactive)
REMARK    1  A    between atoms: C3_30  and  N_1 
REMARK    2  A    between atoms: N_1  and  C1_31 
REMARK    3  A    between atoms: C1_31  and  C_2 
REMARK    4  A    between atoms: C22_6  and  C25_7 
REMARK    5  A    between atoms: C22_6  and  C24_8 
REMARK    6  A    between atoms: N3_15  and  C19_16 
REMARK    7  A    between atoms: C5_20  and  N2_19 
REMARK    8  A    between atoms: C1_31  and  C2_32 
ROOT
ATOM      1  O1  2Q9 d   1       9.041 -11.773 -23.875  0.00  0.00    -0.292 OA
ATOM      2  C20 2Q9 d   1       7.902 -12.185 -24.001  0.00  0.00     0.162 C 
ATOM      3  C21 2Q9 d   1       7.658 -13.618 -24.415  0.00  0.00     0.002 C 
ATOM      4  C22 2Q9 d   1       6.421 -13.849 -25.297  0.00  0.00    -0.036 C 
ATOM      5  C23 2Q9 d   1       5.210 -13.190 -24.623  0.00  0.00    -0.019 C 
ATOM      6  C12 2Q9 d   1       5.482 -11.801 -24.124  0.00  0.00     0.032 A 
ATOM      7  C13 2Q9 d   1       6.738 -11.298 -23.838  0.00  0.00     0.041 A 
ATOM      8  C14 2Q9 d   1       6.558  -9.921 -23.442  0.00  0.00    -0.016 A 
ATOM      9  C18 2Q9 d   1       7.627  -8.927 -23.045  0.00  0.00    -0.015 C 
ATOM     10  C17 2Q9 d   1       7.022  -7.519 -23.045  0.00  0.00     0.087 C 
ATOM     11  N3  2Q9 d   1       5.690  -7.432 -22.449  0.00  0.00    -0.069 N 
ATOM     12  C16 2Q9 d   1       4.730  -8.268 -23.164  0.00  0.00     0.121 C 
ATOM     13  C15 2Q9 d   1       5.215  -9.645 -23.498  0.00  0.00     0.050 A 
ATOM     14  N2  2Q9 d   1       4.558 -10.787 -23.919  0.00  0.00    -0.316 N 
ATOM     15  H   2Q9 d   1       7.540 -14.220 -23.502  0.00  0.00     0.046 H 
ATOM     16  H   2Q9 d   1       8.541 -13.965 -24.972  0.00  0.00     0.046 H 
ATOM     17  H   2Q9 d   1       4.906 -13.813 -23.769  0.00  0.00     0.043 H 
ATOM     18  H   2Q9 d   1       4.389 -13.143 -25.353  0.00  0.00     0.043 H 
ATOM     19  H   2Q9 d   1       8.458  -8.972 -23.765  0.00  0.00     0.042 H 
ATOM     20  H   2Q9 d   1       8.000  -9.168 -22.039  0.00  0.00     0.042 H 
ATOM     21  H   2Q9 d   1       6.955  -7.174 -24.087  0.00  0.00     0.076 H 
ATOM     22  H   2Q9 d   1       7.695  -6.856 -22.481  0.00  0.00     0.076 H 
ATOM     23  H   2Q9 d   1       5.753  -7.773 -21.502  0.00  0.00     0.279 HD
ATOM     24  H   2Q9 d   1       4.470  -7.761 -24.105  0.00  0.00     0.085 H 
ATOM     25  H   2Q9 d   1       3.830  -8.366 -22.539  0.00  0.00     0.085 H 
ENDROOT
BRANCH  14  26
ATOM     26  C5  2Q9 d   1       3.149 -10.861 -24.201  0.00  0.00     0.042 A 
ATOM     27  C4  2Q9 d   1       2.597  -9.959 -25.111  0.00  0.00    -0.030 A 
ATOM     28  C3  2Q9 d   1       1.243 -10.015 -25.445  0.00  0.00     0.046 A 
ATOM     29  H   2Q9 d   1       3.229  -9.204 -25.565  0.00  0.00     0.090 H 
ATOM     30  C8  2Q9 d   1       0.443 -11.044 -24.858  0.00  0.00     0.064 A 
ATOM     31  C7  2Q9 d   1       1.012 -11.952 -23.921  0.00  0.00    -0.036 A 
ATOM     32  C9  2Q9 d   1      -0.974 -11.253 -25.268  0.00  0.00     0.254 C 
ATOM     33  C6  2Q9 d   1       2.361 -11.842 -23.593  0.00  0.00    -0.049 A 
ATOM     34  C11 2Q9 d   1       0.189 -13.057 -23.304  0.00  0.00    -0.025 C 
ATOM     35  H   2Q9 d   1       2.799 -12.517 -22.867  0.00  0.00     0.087 H 
ATOM     36  C10 2Q9 d   1      -1.272 -12.678 -23.224  0.00  0.00    -0.001 C 
ATOM     37  H   2Q9 d   1       0.563 -13.258 -22.289  0.00  0.00     0.042 H 
ATOM     38  H   2Q9 d   1       0.290 -13.964 -23.918  0.00  0.00     0.042 H 
ATOM     39  N1  2Q9 d   1      -1.726 -12.036 -24.471  0.00  0.00    -0.356 N 
ATOM     40  H   2Q9 d   1      -1.416 -11.978 -22.387  0.00  0.00     0.064 H 
ATOM     41  H   2Q9 d   1      -1.869 -13.585 -23.050  0.00  0.00     0.064 H 
ATOM     42  H   2Q9 d   1      -2.673 -12.195 -24.749  0.00  0.00     0.162 HD
ATOM     43  O   2Q9 d   1      -1.447 -10.767 -26.290  0.00  0.00    -0.268 OA
BRANCH  28  44
ATOM     44  N   2Q9 d   1       0.714  -9.112 -26.369  0.00  0.00    -0.385 N 
ATOM     45  H   2Q9 d   1      -0.306  -9.142 -26.506  0.00  0.00     0.160 HD
BRANCH  44  46
ATOM     46  C1  2Q9 d   1       1.455  -8.120 -27.170  0.00  0.00     0.003 C 
ATOM     47  H   2Q9 d   1       2.481  -8.490 -27.314  0.00  0.00     0.071 H 
BRANCH  46  48
ATOM     48  C   2Q9 d   1       0.808  -7.994 -28.523  0.00  0.00    -0.058 C 
ATOM     49  H   2Q9 d   1       1.357  -7.255 -29.125  0.00  0.00     0.030 H 
ATOM     50  H   2Q9 d   1      -0.235  -7.666 -28.402  0.00  0.00     0.030 H 
ATOM     51  H   2Q9 d   1       0.829  -8.969 -29.032  0.00  0.00     0.030 H 
ENDBRANCH  46  48
BRANCH  46  52
ATOM     52  C2  2Q9 d   1       1.542  -6.791 -26.463  0.00  0.00    -0.058 C 
ATOM     53  H   2Q9 d   1       2.100  -6.079 -27.089  0.00  0.00     0.030 H 
ATOM     54  H   2Q9 d   1       2.062  -6.920 -25.502  0.00  0.00     0.030 H 
ATOM     55  H   2Q9 d   1       0.528  -6.405 -26.282  0.00  0.00     0.030 H 
ENDBRANCH  46  52
ENDBRANCH  44  46
ENDBRANCH  28  44
ENDBRANCH  14  26
BRANCH   4  56
ATOM     56  C25 2Q9 d   1       6.163 -15.347 -25.444  0.00  0.00    -0.069 C 
ATOM     57  H   2Q9 d   1       5.277 -15.506 -26.076  0.00  0.00     0.028 H 
ATOM     58  H   2Q9 d   1       5.989 -15.788 -24.451  0.00  0.00     0.028 H 
ATOM     59  H   2Q9 d   1       7.037 -15.825 -25.910  0.00  0.00     0.028 H 
ENDBRANCH   4  56
BRANCH   4  60
ATOM     60  C24 2Q9 d   1       6.645 -13.246 -26.689  0.00  0.00    -0.069 C 
ATOM     61  H   2Q9 d   1       6.832 -12.166 -26.595  0.00  0.00     0.028 H 
ATOM     62  H   2Q9 d   1       5.751 -13.411 -27.308  0.00  0.00     0.028 H 
ATOM     63  H   2Q9 d   1       7.513 -13.729 -27.162  0.00  0.00     0.028 H 
ENDBRANCH   4  60
BRANCH  11  64
ATOM     64  C19 2Q9 d   1       5.223  -6.035 -22.400  0.00  0.00     0.067 C 
ATOM     65  H   2Q9 d   1       4.221  -5.999 -21.948  0.00  0.00     0.068 H 
ATOM     66  H   2Q9 d   1       5.180  -5.627 -23.421  0.00  0.00     0.068 H 
ATOM     67  H   2Q9 d   1       5.920  -5.436 -21.795  0.00  0.00     0.068 H 
ENDBRANCH  11  64
TORSDOF 8
