REMARK  8 active torsions:
REMARK  status: ('A' for Active; 'I' for Inactive)
REMARK    1  A    between atoms: C23_4  and  C26_5 
REMARK    2  A    between atoms: C23_4  and  C25_6 
REMARK    3  A    between atoms: N2_13  and  C20_14 
REMARK    4  A    between atoms: N1_17  and  C6_18 
REMARK    5  A    between atoms: C4_28  and  C3_29 
REMARK    6  A    between atoms: C3_29  and  C1_30 
REMARK    7  A    between atoms: C1_30  and  C2_31 
REMARK    8  A    between atoms: C1_30  and  C_32 
ROOT
ATOM      1  O1  FGH d   1       8.850 -12.096 -24.000  0.00  0.00    -0.292 OA
ATOM      2  C21 FGH d   1       7.703 -12.480 -24.124  0.00  0.00     0.162 C 
ATOM      3  C22 FGH d   1       7.433 -13.908 -24.544  0.00  0.00     0.002 C 
ATOM      4  C23 FGH d   1       6.188 -14.122 -25.420  0.00  0.00    -0.036 C 
ATOM      5  C24 FGH d   1       4.996 -13.419 -24.757  0.00  0.00    -0.019 C 
ATOM      6  C13 FGH d   1       5.297 -12.042 -24.243  0.00  0.00     0.032 A 
ATOM      7  C14 FGH d   1       6.560 -11.566 -23.946  0.00  0.00     0.041 A 
ATOM      8  C15 FGH d   1       6.405 -10.187 -23.529  0.00  0.00    -0.016 A 
ATOM      9  C19 FGH d   1       7.489  -9.214 -23.118  0.00  0.00    -0.015 C 
ATOM     10  C18 FGH d   1       6.895  -7.801 -23.046  0.00  0.00     0.087 C 
ATOM     11  N2  FGH d   1       5.559  -7.716 -22.456  0.00  0.00    -0.069 N 
ATOM     12  C17 FGH d   1       4.599  -8.518 -23.208  0.00  0.00     0.121 C 
ATOM     13  C16 FGH d   1       5.068  -9.889 -23.586  0.00  0.00     0.050 A 
ATOM     14  N1  FGH d   1       4.391 -11.013 -24.032  0.00  0.00    -0.316 N 
ATOM     15  H   FGH d   1       7.312 -14.511 -23.632  0.00  0.00     0.046 H 
ATOM     16  H   FGH d   1       8.308 -14.266 -25.107  0.00  0.00     0.046 H 
ATOM     17  H   FGH d   1       4.660 -14.036 -23.911  0.00  0.00     0.043 H 
ATOM     18  H   FGH d   1       4.187 -13.340 -25.498  0.00  0.00     0.043 H 
ATOM     19  H   FGH d   1       8.302  -9.234 -23.858  0.00  0.00     0.042 H 
ATOM     20  H   FGH d   1       7.884  -9.498 -22.131  0.00  0.00     0.042 H 
ATOM     21  H   FGH d   1       6.841  -7.402 -24.070  0.00  0.00     0.076 H 
ATOM     22  H   FGH d   1       7.573  -7.177 -22.445  0.00  0.00     0.076 H 
ATOM     23  H   FGH d   1       5.609  -8.086 -21.520  0.00  0.00     0.279 HD
ATOM     24  H   FGH d   1       4.354  -7.976 -24.133  0.00  0.00     0.085 H 
ATOM     25  H   FGH d   1       3.692  -8.626 -22.595  0.00  0.00     0.085 H 
ENDROOT
BRANCH  14  26
ATOM     26  C6  FGH d   1       2.989 -11.033 -24.367  0.00  0.00     0.040 A 
ATOM     27  C5  FGH d   1       2.500 -10.096 -25.279  0.00  0.00    -0.050 A 
ATOM     28  C4  FGH d   1       1.158 -10.090 -25.642  0.00  0.00    -0.039 A 
ATOM     29  H   FGH d   1       3.175  -9.365 -25.709  0.00  0.00     0.087 H 
ATOM     30  C9  FGH d   1       0.293 -11.091 -25.115  0.00  0.00     0.044 A 
ATOM     31  C8  FGH d   1       0.792 -12.031 -24.166  0.00  0.00    -0.038 A 
ATOM     32  C10 FGH d   1      -1.115 -11.275 -25.561  0.00  0.00     0.252 C 
ATOM     33  C7  FGH d   1       2.136 -11.987 -23.797  0.00  0.00    -0.050 A 
ATOM     34  C12 FGH d   1      -0.120 -13.059 -23.537  0.00  0.00    -0.025 C 
ATOM     35  H   FGH d   1       2.521 -12.691 -23.069  0.00  0.00     0.087 H 
ATOM     36  C11 FGH d   1      -1.542 -12.547 -23.442  0.00  0.00    -0.001 C 
ATOM     37  H   FGH d   1       0.245 -13.292 -22.526  0.00  0.00     0.042 H 
ATOM     38  H   FGH d   1      -0.108 -13.972 -24.150  0.00  0.00     0.042 H 
ATOM     39  N   FGH d   1      -1.934 -11.956 -24.733  0.00  0.00    -0.357 N 
ATOM     40  H   FGH d   1      -1.605 -11.783 -22.654  0.00  0.00     0.064 H 
ATOM     41  H   FGH d   1      -2.217 -13.381 -23.200  0.00  0.00     0.064 H 
ATOM     42  H   FGH d   1      -2.885 -12.069 -25.019  0.00  0.00     0.162 HD
ATOM     43  O   FGH d   1      -1.511 -10.879 -26.651  0.00  0.00    -0.268 OA
BRANCH  28  44
ATOM     44  C3  FGH d   1       0.775  -8.921 -26.524  0.00  0.00    -0.037 C 
ATOM     45  H   FGH d   1       0.069  -9.300 -27.277  0.00  0.00     0.040 H 
ATOM     46  H   FGH d   1       1.693  -8.576 -27.023  0.00  0.00     0.040 H 
BRANCH  44  47
ATOM     47  C1  FGH d   1       0.122  -7.687 -25.869  0.00  0.00    -0.057 C 
ATOM     48  H   FGH d   1      -0.838  -8.021 -25.448  0.00  0.00     0.039 H 
BRANCH  47  49
ATOM     49  C2  FGH d   1      -0.169  -6.626 -26.923  0.00  0.00    -0.073 C 
ATOM     50  H   FGH d   1      -0.634  -5.752 -26.444  0.00  0.00     0.028 H 
ATOM     51  H   FGH d   1      -0.854  -7.038 -27.679  0.00  0.00     0.028 H 
ATOM     52  H   FGH d   1       0.771  -6.322 -27.407  0.00  0.00     0.028 H 
ENDBRANCH  47  49
BRANCH  47  53
ATOM     53  C   FGH d   1       0.917  -7.051 -24.720  0.00  0.00    -0.073 C 
ATOM     54  H   FGH d   1       1.130  -7.813 -23.956  0.00  0.00     0.028 H 
ATOM     55  H   FGH d   1       0.327  -6.237 -24.272  0.00  0.00     0.028 H 
ATOM     56  H   FGH d   1       1.863  -6.647 -25.109  0.00  0.00     0.028 H 
ENDBRANCH  47  53
ENDBRANCH  44  47
ENDBRANCH  28  44
ENDBRANCH  14  26
BRANCH   4  57
ATOM     57  C26 FGH d   1       5.891 -15.616 -25.539  0.00  0.00    -0.069 C 
ATOM     58  H   FGH d   1       5.000 -15.764 -26.166  0.00  0.00     0.028 H 
ATOM     59  H   FGH d   1       5.708 -16.034 -24.538  0.00  0.00     0.028 H 
ATOM     60  H   FGH d   1       6.751 -16.125 -25.998  0.00  0.00     0.028 H 
ENDBRANCH   4  57
BRANCH   4  61
ATOM     61  C25 FGH d   1       6.423 -13.551 -26.823  0.00  0.00    -0.069 C 
ATOM     62  H   FGH d   1       6.638 -12.475 -26.750  0.00  0.00     0.028 H 
ATOM     63  H   FGH d   1       5.523 -13.704 -27.437  0.00  0.00     0.028 H 
ATOM     64  H   FGH d   1       7.277 -14.064 -27.290  0.00  0.00     0.028 H 
ENDBRANCH   4  61
BRANCH  11  65
ATOM     65  C20 FGH d   1       5.106  -6.315 -22.370  0.00  0.00     0.067 C 
ATOM     66  H   FGH d   1       4.101  -6.281 -21.924  0.00  0.00     0.068 H 
ATOM     67  H   FGH d   1       5.074  -5.877 -23.379  0.00  0.00     0.068 H 
ATOM     68  H   FGH d   1       5.805  -5.742 -21.743  0.00  0.00     0.068 H 
ENDBRANCH  11  65
TORSDOF 8
