REMARK  8 active torsions:
REMARK  status: ('A' for Active; 'I' for Inactive)
REMARK    1  A    between atoms: C15_9  and  C17_10 
REMARK    2  A    between atoms: C17_10  and  C18_11 
REMARK    3  A    between atoms: C18_11  and  C20_12 
REMARK    4  A    between atoms: C18_11  and  C19_13 
REMARK    5  A    between atoms: C11_15  and  N_16 
REMARK    6  A    between atoms: C7_20  and  C10_21 
REMARK    7  A    between atoms: C7_20  and  C9_22 
REMARK    8  A    between atoms: C1_27  and  C_28 
ROOT
ATOM      1  O1  2R6 d   1      -1.174 -10.665 -26.440  0.00  0.00    -0.268 OA
ATOM      2  C21 2R6 d   1      -0.771 -11.108 -25.365  0.00  0.00     0.252 C 
ATOM      3  N1  2R6 d   1      -1.591 -11.846 -24.589  0.00  0.00    -0.357 N 
ATOM      4  C22 2R6 d   1      -1.221 -12.550 -23.348  0.00  0.00    -0.001 C 
ATOM      5  C23 2R6 d   1       0.202 -13.050 -23.474  0.00  0.00    -0.025 C 
ATOM      6  C13 2R6 d   1       1.116 -11.967 -23.999  0.00  0.00    -0.038 A 
ATOM      7  C12 2R6 d   1       2.449 -11.947 -23.587  0.00  0.00    -0.050 A 
ATOM      8  C14 2R6 d   1       0.639 -10.956 -24.889  0.00  0.00     0.044 A 
ATOM      9  C15 2R6 d   1       1.521  -9.913 -25.310  0.00  0.00    -0.039 A 
ATOM     10  C16 2R6 d   1       2.852  -9.938 -24.894  0.00  0.00    -0.050 A 
ATOM     11  C11 2R6 d   1       3.311 -10.950 -24.051  0.00  0.00     0.040 A 
ATOM     12  H   2R6 d   1      -2.543 -11.923 -24.884  0.00  0.00     0.162 HD
ATOM     13  H   2R6 d   1      -1.899 -13.402 -23.190  0.00  0.00     0.064 H 
ATOM     14  H   2R6 d   1      -1.296 -11.859 -22.495  0.00  0.00     0.064 H 
ATOM     15  H   2R6 d   1       0.223 -13.904 -24.167  0.00  0.00     0.042 H 
ATOM     16  H   2R6 d   1       0.558 -13.372 -22.484  0.00  0.00     0.042 H 
ATOM     17  H   2R6 d   1       2.816 -12.706 -22.906  0.00  0.00     0.087 H 
ATOM     18  H   2R6 d   1       3.535  -9.165 -25.228  0.00  0.00     0.087 H 
ENDROOT
BRANCH  11  19
ATOM     19  N   2R6 d   1       4.710 -10.997 -23.701  0.00  0.00    -0.324 N 
ATOM     20  C2  2R6 d   1       5.449  -9.914 -23.269  0.00  0.00    -0.008 A 
ATOM     21  C1  2R6 d   1       6.777 -10.194 -23.327  0.00  0.00    -0.030 A 
ATOM     22  H   2R6 d   1       5.027  -8.969 -22.930  0.00  0.00     0.113 H 
ATOM     23  C4  2R6 d   1       6.894 -11.541 -23.822  0.00  0.00     0.040 A 
ATOM     24  C3  2R6 d   1       5.611 -11.998 -24.054  0.00  0.00     0.031 A 
ATOM     25  C5  2R6 d   1       8.022 -12.458 -24.096  0.00  0.00     0.162 C 
ATOM     26  C8  2R6 d   1       5.273 -13.335 -24.647  0.00  0.00    -0.019 C 
ATOM     27  C7  2R6 d   1       6.427 -14.014 -25.397  0.00  0.00    -0.036 C 
ATOM     28  H   2R6 d   1       4.441 -13.196 -25.352  0.00  0.00     0.043 H 
ATOM     29  H   2R6 d   1       4.955 -14.001 -23.831  0.00  0.00     0.043 H 
ATOM     30  C6  2R6 d   1       7.709 -13.862 -24.564  0.00  0.00     0.002 C 
ATOM     31  H   2R6 d   1       8.554 -14.211 -25.176  0.00  0.00     0.046 H 
ATOM     32  H   2R6 d   1       7.612 -14.502 -23.674  0.00  0.00     0.046 H 
ATOM     33  O   2R6 d   1       9.188 -12.099 -23.994  0.00  0.00    -0.292 OA
BRANCH  21  34
ATOM     34  C   2R6 d   1       7.876  -9.234 -22.955  0.00  0.00    -0.049 C 
ATOM     35  H   2R6 d   1       7.435  -8.286 -22.613  0.00  0.00     0.033 H 
ATOM     36  H   2R6 d   1       8.512  -9.046 -23.833  0.00  0.00     0.033 H 
ATOM     37  H   2R6 d   1       8.484  -9.668 -22.148  0.00  0.00     0.033 H 
ENDBRANCH  21  34
BRANCH  27  38
ATOM     38  C10 2R6 d   1       6.614 -13.368 -26.774  0.00  0.00    -0.069 C 
ATOM     39  H   2R6 d   1       7.443 -13.863 -27.302  0.00  0.00     0.028 H 
ATOM     40  H   2R6 d   1       6.844 -12.300 -26.650  0.00  0.00     0.028 H 
ATOM     41  H   2R6 d   1       5.689 -13.478 -27.359  0.00  0.00     0.028 H 
ENDBRANCH  27  38
BRANCH  27  42
ATOM     42  C9  2R6 d   1       6.104 -15.494 -25.589  0.00  0.00    -0.069 C 
ATOM     43  H   2R6 d   1       5.967 -15.970 -24.607  0.00  0.00     0.028 H 
ATOM     44  H   2R6 d   1       6.932 -15.984 -26.122  0.00  0.00     0.028 H 
ATOM     45  H   2R6 d   1       5.180 -15.594 -26.177  0.00  0.00     0.028 H 
ENDBRANCH  27  42
ENDBRANCH  11  19
BRANCH   9  46
ATOM     46  C17 2R6 d   1       1.163  -8.706 -26.148  0.00  0.00    -0.037 C 
ATOM     47  H   2R6 d   1       0.541  -9.062 -26.982  0.00  0.00     0.040 H 
ATOM     48  H   2R6 d   1       2.103  -8.293 -26.542  0.00  0.00     0.040 H 
BRANCH  46  49
ATOM     49  C18 2R6 d   1       0.406  -7.552 -25.477  0.00  0.00    -0.057 C 
ATOM     50  H   2R6 d   1      -0.566  -7.948 -25.148  0.00  0.00     0.039 H 
BRANCH  49  51
ATOM     51  C20 2R6 d   1       0.150  -6.447 -26.495  0.00  0.00    -0.073 C 
ATOM     52  H   2R6 d   1      -0.393  -5.621 -26.011  0.00  0.00     0.028 H 
ATOM     53  H   2R6 d   1      -0.452  -6.845 -27.325  0.00  0.00     0.028 H 
ATOM     54  H   2R6 d   1       1.110  -6.077 -26.884  0.00  0.00     0.028 H 
ENDBRANCH  49  51
BRANCH  49  55
ATOM     55  C19 2R6 d   1       1.098  -6.966 -24.242  0.00  0.00    -0.073 C 
ATOM     56  H   2R6 d   1       1.281  -7.766 -23.510  0.00  0.00     0.028 H 
ATOM     57  H   2R6 d   1       0.454  -6.197 -23.791  0.00  0.00     0.028 H 
ATOM     58  H   2R6 d   1       2.056  -6.514 -24.538  0.00  0.00     0.028 H 
ENDBRANCH  49  55
ENDBRANCH  46  49
ENDBRANCH   9  46
TORSDOF 8
