REMARK  10 active torsions:
REMARK  status: ('A' for Active; 'I' for Inactive)
REMARK    1  A    between atoms: C02_2  and  C03_3 
REMARK    2  A    between atoms: N05A_5  and  C06_6 
REMARK    3  A    between atoms: C14_14  and  C15_15 
REMARK    4  A    between atoms: C18_18  and  C19_19 
REMARK    5  A    between atoms: C19_19  and  N20_20 
REMARK    6  A    between atoms: N20_20  and  C21_21 
REMARK    7  A    between atoms: C21_21  and  C22_22 
REMARK    8  A    between atoms: C21_21  and  S37_37 
REMARK    9  A    between atoms: C25_25  and  C26_26 
REMARK   10  A    between atoms: C29_29  and  C30_30 
ROOT
ATOM      1  C15 2P9 d   1      -2.220  11.401  -0.014  0.00  0.00    -0.007 A 
ATOM      2  C16 2P9 d   1      -2.194  11.940   1.258  0.00  0.00    -0.070 A 
ATOM      3  C17 2P9 d   1      -1.000  12.323   1.839  0.00  0.00    -0.074 A 
ATOM      4  C18 2P9 d   1       0.185  12.185   1.148  0.00  0.00    -0.033 A 
ATOM      5  C38 2P9 d   1       0.180  11.652  -0.141  0.00  0.00    -0.074 A 
ATOM      6  C39 2P9 d   1      -1.031  11.270  -0.720  0.00  0.00    -0.070 A 
ATOM      7  H   2P9 d   1      -3.121  12.064   1.806  0.00  0.00     0.084 H 
ATOM      8  H   2P9 d   1      -0.995  12.734   2.842  0.00  0.00     0.084 H 
ATOM      9  H   2P9 d   1       1.109  11.536  -0.688  0.00  0.00     0.084 H 
ATOM     10  H   2P9 d   1      -1.044  10.869  -1.727  0.00  0.00     0.084 H 
ENDROOT
BRANCH   4  11
ATOM     11  C19 2P9 d   1       1.462  12.617   1.830  0.00  0.00     0.107 C 
ATOM     12  H   2P9 d   1       1.329  12.576   2.921  0.00  0.00     0.083 H 
ATOM     13  H   2P9 d   1       1.711  13.645   1.529  0.00  0.00     0.083 H 
BRANCH  11  14
ATOM     14  N20 2P9 d   1       2.511  11.742   1.446  0.00  0.00    -0.054 N 
ATOM     15  H   2P9 d   1       3.302  12.293   1.151  0.00  0.00     0.279 HD
ATOM     16  H   2P9 d   1       2.193  11.172   0.678  0.00  0.00     0.279 HD
BRANCH  14  17
ATOM     17  C21 2P9 d   1       2.918  10.891   2.509  0.00  0.00     0.170 C 
ATOM     18  H   2P9 d   1       3.493  11.553   3.173  0.00  0.00     0.109 H 
BRANCH  17  19
ATOM     19  C22 2P9 d   1       3.945   9.847   2.080  0.00  0.00     0.004 A 
ATOM     20  C23 2P9 d   1       5.097   9.883   2.848  0.00  0.00    -0.071 A 
ATOM     21  C24 2P9 d   1       6.159   9.031   2.601  0.00  0.00    -0.070 A 
ATOM     22  H   2P9 d   1       5.168  10.595   3.662  0.00  0.00     0.084 H 
ATOM     23  C25 2P9 d   1       6.056   8.140   1.553  0.00  0.00    -0.001 A 
ATOM     24  H   2P9 d   1       7.051   9.063   3.216  0.00  0.00     0.085 H 
ATOM     25  C34 2P9 d   1       4.918   8.089   0.777  0.00  0.00    -0.049 A 
ATOM     26  C35 2P9 d   1       3.852   8.939   1.016  0.00  0.00     0.044 A 
ATOM     27  H   2P9 d   1       4.857   7.372  -0.034  0.00  0.00     0.087 H 
ATOM     28 CL3  2P9 d   1       2.447   8.802  -0.015  0.00  0.00    -0.084 Cl
BRANCH  23  29
ATOM     29  C26 2P9 d   1       7.143   7.175   1.232  0.00  0.00     0.086 A 
ATOM     30  C27 2P9 d   1       8.329   6.906   1.912  0.00  0.00    -0.046 A 
ATOM     31  C28 2P9 d   1       8.975   5.879   1.151  0.00  0.00    -0.041 A 
ATOM     32  H   2P9 d   1       8.688   7.376   2.826  0.00  0.00     0.087 H 
ATOM     33  C29 2P9 d   1       8.099   5.639   0.097  0.00  0.00     0.152 A 
ATOM     34  H   2P9 d   1       9.931   5.397   1.351  0.00  0.00     0.088 H 
ATOM     35  O33 2P9 d   1       7.052   6.408   0.174  0.00  0.00    -0.303 OA
BRANCH  33  36
ATOM     36  C30 2P9 d   1       8.240   4.666  -1.022  0.00  0.00     0.234 C 
ATOM     37  O31 2P9 d   1       9.241   3.913  -1.056  0.00  0.00    -0.642 OA
ATOM     38  O32 2P9 d   1       7.304   4.644  -1.852  0.00  0.00    -0.642 OA
ENDBRANCH  33  36
ENDBRANCH  23  29
ENDBRANCH  17  19
BRANCH  17  39
ATOM     39  S37 2P9 d   1       1.581  10.343   3.545  0.00  0.00    -0.145 SA
ATOM     40  H   2P9 d   1       1.944   9.747   4.272  0.00  0.00     0.104 HD
ENDBRANCH  17  39
ENDBRANCH  14  17
ENDBRANCH  11  14
ENDBRANCH   4  11
BRANCH   1  41
ATOM     41  C14 2P9 d   1      -3.547  11.018  -0.635  0.00  0.00     0.071 A 
ATOM     42  N05 2P9 d   1      -4.620  10.512  -0.025  0.00  0.00    -0.233 N 
ATOM     43  N04 2P9 d   1      -5.591  10.319  -0.863  0.00  0.00    -0.160 NA
ATOM     44  C03 2P9 d   1      -5.232  10.723  -2.064  0.00  0.00     0.156 A 
ATOM     45  C40 2P9 d   1      -3.900  11.200  -2.003  0.00  0.00    -0.018 A 
ATOM     46  H   2P9 d   1      -3.292  11.608  -2.809  0.00  0.00     0.091 H 
BRANCH  42  47
ATOM     47  C06 2P9 d   1      -4.723  10.145   1.339  0.00  0.00     0.060 A 
ATOM     48  C07 2P9 d   1      -4.234   8.908   1.717  0.00  0.00    -0.033 A 
ATOM     49  C08 2P9 d   1      -4.309   8.500   3.035  0.00  0.00     0.058 A 
ATOM     50  H   2P9 d   1      -3.789   8.255   0.975  0.00  0.00     0.089 H 
ATOM     51 CL2  2P9 d   1      -3.668   6.920   3.390  0.00  0.00    -0.082 Cl
ATOM     52  C10 2P9 d   1      -4.888   9.322   4.004  0.00  0.00     0.055 A 
ATOM     53 CL   2P9 d   1      -4.984   8.836   5.676  0.00  0.00    -0.083 Cl
ATOM     54  C12 2P9 d   1      -5.384  10.558   3.610  0.00  0.00    -0.058 A 
ATOM     55  C13 2P9 d   1      -5.305  10.970   2.282  0.00  0.00    -0.053 A 
ATOM     56  H   2P9 d   1      -5.839  11.211   4.346  0.00  0.00     0.086 H 
ATOM     57  H   2P9 d   1      -5.699  11.936   1.989  0.00  0.00     0.087 H 
ENDBRANCH  42  47
BRANCH  44  58
ATOM     58  C02 2P9 d   1      -6.136  10.636  -3.257  0.00  0.00     0.230 C 
ATOM     59  O01 2P9 d   1      -7.247  10.072  -3.118  0.00  0.00    -0.643 OA
ATOM     60  O41 2P9 d   1      -5.754  11.099  -4.357  0.00  0.00    -0.643 OA
ENDBRANCH  44  58
ENDBRANCH   1  41
TORSDOF 10
