REMARK  5 active torsions:
REMARK  status: ('A' for Active; 'I' for Inactive)
REMARK    1  A    between atoms: C1_1  and  C_29 
REMARK    2  A    between atoms: C15_15  and  C17_16 
REMARK    3  A    between atoms: C11_22  and  N_23 
REMARK    4  A    between atoms: C7_25  and  C10_26 
REMARK    5  A    between atoms: C7_25  and  C9_27 
ROOT
ATOM      1  O1  2QA d   1      -1.275 -10.917 -26.350  0.00  0.00    -0.268 OA
ATOM      2  C22 2QA d   1      -0.833 -11.324 -25.281  0.00  0.00     0.252 C 
ATOM      3  N1  2QA d   1      -1.572 -12.163 -24.525  0.00  0.00    -0.357 N 
ATOM      4  C23 2QA d   1      -1.112 -12.833 -23.294  0.00  0.00    -0.001 C 
ATOM      5  C24 2QA d   1       0.337 -13.216 -23.509  0.00  0.00    -0.025 C 
ATOM      6  C13 2QA d   1       1.146 -12.039 -24.002  0.00  0.00    -0.038 A 
ATOM      7  C12 2QA d   1       2.483 -11.936 -23.629  0.00  0.00    -0.050 A 
ATOM      8  C14 2QA d   1       0.552 -11.014 -24.799  0.00  0.00     0.045 A 
ATOM      9  C15 2QA d   1       1.310  -9.857 -25.143  0.00  0.00    -0.035 A 
ATOM     10  C16 2QA d   1       2.658  -9.796 -24.764  0.00  0.00    -0.049 A 
ATOM     11  C11 2QA d   1       3.239 -10.834 -24.032  0.00  0.00     0.040 A 
ATOM     12  H   2QA d   1      -2.509 -12.345 -24.824  0.00  0.00     0.162 HD
ATOM     13  H   2QA d   1      -1.716 -13.733 -23.106  0.00  0.00     0.064 H 
ATOM     14  H   2QA d   1      -1.198 -12.148 -22.437  0.00  0.00     0.064 H 
ATOM     15  H   2QA d   1       0.388 -14.024 -24.254  0.00  0.00     0.042 H 
ATOM     16  H   2QA d   1       0.760 -13.568 -22.557  0.00  0.00     0.042 H 
ATOM     17  H   2QA d   1       2.938 -12.713 -23.025  0.00  0.00     0.087 H 
ATOM     18  H   2QA d   1       3.255  -8.935 -25.042  0.00  0.00     0.087 H 
ENDROOT
BRANCH  11  19
ATOM     19  N   2QA d   1       4.652 -10.789 -23.733  0.00  0.00    -0.324 N 
ATOM     20  C2  2QA d   1       5.335  -9.657 -23.329  0.00  0.00    -0.008 A 
ATOM     21  C1  2QA d   1       6.679  -9.874 -23.370  0.00  0.00    -0.030 A 
ATOM     22  H   2QA d   1       4.865  -8.724 -23.021  0.00  0.00     0.113 H 
ATOM     23  C4  2QA d   1       6.866 -11.228 -23.817  0.00  0.00     0.040 A 
ATOM     24  C3  2QA d   1       5.609 -11.756 -24.046  0.00  0.00     0.031 A 
ATOM     25  C5  2QA d   1       8.049 -12.092 -24.049  0.00  0.00     0.162 C 
ATOM     26  C8  2QA d   1       5.355 -13.129 -24.595  0.00  0.00    -0.019 C 
ATOM     27  C7  2QA d   1       6.548 -13.757 -25.329  0.00  0.00    -0.036 C 
ATOM     28  H   2QA d   1       4.513 -13.066 -25.300  0.00  0.00     0.043 H 
ATOM     29  H   2QA d   1       5.083 -13.788 -23.757  0.00  0.00     0.043 H 
ATOM     30  C6  2QA d   1       7.819 -13.516 -24.500  0.00  0.00     0.002 C 
ATOM     31  H   2QA d   1       7.762 -14.149 -23.602  0.00  0.00     0.046 H 
ATOM     32  H   2QA d   1       8.682 -13.821 -25.110  0.00  0.00     0.046 H 
ATOM     33  O   2QA d   1       9.194 -11.680 -23.909  0.00  0.00    -0.292 OA
BRANCH  21  34
ATOM     34  C   2QA d   1       7.727  -8.846 -23.031  0.00  0.00    -0.049 C 
ATOM     35  H   2QA d   1       7.237  -7.911 -22.722  0.00  0.00     0.033 H 
ATOM     36  H   2QA d   1       8.354  -8.657 -23.915  0.00  0.00     0.033 H 
ATOM     37  H   2QA d   1       8.355  -9.220 -22.209  0.00  0.00     0.033 H 
ENDBRANCH  21  34
BRANCH  27  38
ATOM     38  C10 2QA d   1       6.311 -15.257 -25.487  0.00  0.00    -0.069 C 
ATOM     39  H   2QA d   1       7.165 -15.710 -26.013  0.00  0.00     0.028 H 
ATOM     40  H   2QA d   1       5.392 -15.424 -26.068  0.00  0.00     0.028 H 
ATOM     41  H   2QA d   1       6.206 -15.718 -24.494  0.00  0.00     0.028 H 
ENDBRANCH  27  38
BRANCH  27  42
ATOM     42  C9  2QA d   1       6.700 -13.134 -26.721  0.00  0.00    -0.069 C 
ATOM     43  H   2QA d   1       6.872 -12.052 -26.622  0.00  0.00     0.028 H 
ATOM     44  H   2QA d   1       5.783 -13.308 -27.303  0.00  0.00     0.028 H 
ATOM     45  H   2QA d   1       7.555 -13.595 -27.238  0.00  0.00     0.028 H 
ENDBRANCH  27  42
ENDBRANCH  11  19
BRANCH   9  46
ATOM     46  C17 2QA d   1       0.677  -8.659 -25.839  0.00  0.00    -0.028 C 
ATOM     47  C21 2QA d   1       1.107  -8.397 -27.298  0.00  0.00    -0.058 C 
ATOM     48  C20 2QA d   1       0.643  -6.967 -27.589  0.00  0.00    -0.064 C 
ATOM     49  H   2QA d   1       0.620  -9.109 -27.980  0.00  0.00     0.034 H 
ATOM     50  H   2QA d   1       2.199  -8.479 -27.401  0.00  0.00     0.034 H 
ATOM     51  C19 2QA d   1       0.405  -6.293 -26.250  0.00  0.00    -0.064 C 
ATOM     52  H   2QA d   1      -0.289  -6.984 -28.173  0.00  0.00     0.033 H 
ATOM     53  H   2QA d   1       1.418  -6.426 -28.151  0.00  0.00     0.033 H 
ATOM     54  C18 2QA d   1       0.890  -7.263 -25.196  0.00  0.00    -0.058 C 
ATOM     55  H   2QA d   1      -0.666  -6.086 -26.113  0.00  0.00     0.033 H 
ATOM     56  H   2QA d   1       0.971  -5.352 -26.191  0.00  0.00     0.033 H 
ATOM     57  H   2QA d   1       1.954  -7.095 -24.971  0.00  0.00     0.034 H 
ATOM     58  H   2QA d   1       0.300  -7.164 -24.273  0.00  0.00     0.034 H 
ATOM     59  H   2QA d   1      -0.403  -8.868 -25.837  0.00  0.00     0.047 H 
ENDBRANCH   9  46
TORSDOF 5
