REMARK  6 active torsions:
REMARK  status: ('A' for Active; 'I' for Inactive)
REMARK    1  A    between atoms: C1_1  and  C2_2 
REMARK    2  A    between atoms: C7_7  and  C18_18 
REMARK    3  A    between atoms: N10_10  and  C11_11 
REMARK    4  A    between atoms: C15_15  and  N17_17 
REMARK    5  A    between atoms: C19_19  and  C20_20 
REMARK    6  A    between atoms: C20_20  and  O26_26 
ROOT
ATOM      1  C2  2OQ d   1     -19.056  -2.690  13.702  0.00  0.00     0.125 A 
ATOM      2  N3  2OQ d   1     -18.374  -1.715  13.177  0.00  0.00    -0.233 NA
ATOM      3  C4  2OQ d   1     -18.817  -0.523  13.642  0.00  0.00     0.086 A 
ATOM      4  C5  2OQ d   1     -18.431   0.800  13.395  0.00  0.00    -0.051 A 
ATOM      5  C6  2OQ d   1     -19.073   1.823  14.019  0.00  0.00    -0.062 A 
ATOM      6  C7  2OQ d   1     -20.121   1.572  14.914  0.00  0.00     0.020 A 
ATOM      7  C8  2OQ d   1     -20.513   0.258  15.175  0.00  0.00    -0.036 A 
ATOM      8  C9  2OQ d   1     -19.865  -0.800  14.541  0.00  0.00     0.088 A 
ATOM      9  N10 2OQ d   1     -20.003  -2.189  14.570  0.00  0.00    -0.128 N 
ATOM     10  H   2OQ d   1     -17.620   1.008  12.706  0.00  0.00     0.087 H 
ATOM     11  H   2OQ d   1     -18.770   2.845  13.822  0.00  0.00     0.085 H 
ATOM     12  H   2OQ d   1     -21.321   0.061  15.870  0.00  0.00     0.089 H 
ENDROOT
BRANCH   6  13
ATOM     13  C18 2OQ d   1     -20.770   2.685  15.547  0.00  0.00    -0.064 C 
ATOM     14  C19 2OQ d   1     -21.295   3.599  16.068  0.00  0.00    -0.063 C 
BRANCH  14  15
ATOM     15  C20 2OQ d   1     -21.953   4.757  16.702  0.00  0.00     0.121 C 
ATOM     16  C21 2OQ d   1     -23.461   4.530  16.649  0.00  0.00    -0.026 C 
ATOM     17  C22 2OQ d   1     -24.177   5.747  17.234  0.00  0.00    -0.061 C 
ATOM     18  H   2OQ d   1     -23.719   3.635  17.235  0.00  0.00     0.038 H 
ATOM     19  H   2OQ d   1     -23.774   4.387  15.604  0.00  0.00     0.038 H 
ATOM     20  C23 2OQ d   1     -23.733   5.922  18.683  0.00  0.00    -0.065 C 
ATOM     21  H   2OQ d   1     -25.265   5.591  17.196  0.00  0.00     0.033 H 
ATOM     22  H   2OQ d   1     -23.915   6.645  16.655  0.00  0.00     0.033 H 
ATOM     23  C24 2OQ d   1     -22.218   6.137  18.739  0.00  0.00    -0.061 C 
ATOM     24  H   2OQ d   1     -23.995   5.021  19.257  0.00  0.00     0.033 H 
ATOM     25  H   2OQ d   1     -24.242   6.795  19.118  0.00  0.00     0.033 H 
ATOM     26  C25 2OQ d   1     -21.503   4.909  18.167  0.00  0.00    -0.026 C 
ATOM     27  H   2OQ d   1     -21.908   6.287  19.784  0.00  0.00     0.033 H 
ATOM     28  H   2OQ d   1     -21.952   7.024  18.146  0.00  0.00     0.033 H 
ATOM     29  H   2OQ d   1     -20.413   5.053  18.213  0.00  0.00     0.038 H 
ATOM     30  H   2OQ d   1     -21.779   4.012  18.741  0.00  0.00     0.038 H 
BRANCH  15  31
ATOM     31  O26 2OQ d   1     -21.660   5.958  15.993  0.00  0.00    -0.378 OA
ATOM     32  H   2OQ d   1     -20.724   6.117  16.015  0.00  0.00     0.211 HD
ENDBRANCH  15  31
ENDBRANCH  14  15
ENDBRANCH   6  13
BRANCH   9  33
ATOM     33  C11 2OQ d   1     -20.941  -2.891  15.342  0.00  0.00     0.751 A 
ATOM     34  N12 2OQ d   1     -21.433  -2.350  16.456  0.00  0.00    -0.054 NA
ATOM     35  C13 2OQ d   1     -22.326  -2.995  17.191  0.00  0.00     0.124 A 
ATOM     36  N14 2OQ d   1     -22.744  -4.197  16.830  0.00  0.00    -0.055 NA
ATOM     37  H   2OQ d   1     -22.716  -2.536  18.092  0.00  0.00     0.148 H 
ATOM     38  C15 2OQ d   1     -22.266  -4.752  15.714  0.00  0.00     0.737 A 
ATOM     39  N16 2OQ d   1     -21.370  -4.093  14.982  0.00  0.00     0.130 NA
BRANCH  38  40
ATOM     40  N17 2OQ d   1     -22.697  -6.007  15.313  0.00  0.00    -0.230 N 
ATOM     41  H   2OQ d   1     -23.390  -6.518  15.878  0.00  0.00     0.174 HD
ATOM     42  H   2OQ d   1     -22.324  -6.428  14.450  0.00  0.00     0.174 HD
ENDBRANCH  38  40
ENDBRANCH   9  33
BRANCH   1  43
ATOM     43  C1  2OQ d   1     -18.785  -4.139  13.368  0.00  0.00    -0.020 C 
ATOM     44  H   2OQ d   1     -17.963  -4.200  12.639  0.00  0.00     0.037 H 
ATOM     45  H   2OQ d   1     -19.691  -4.592  12.938  0.00  0.00     0.037 H 
ATOM     46  H   2OQ d   1     -18.504  -4.680  14.284  0.00  0.00     0.037 H 
ENDBRANCH   1  43
TORSDOF 6
