REMARK  10 active torsions:
REMARK  status: ('A' for Active; 'I' for Inactive)
REMARK    1  A    between atoms: C1_1  and  C2_2 
REMARK    2  A    between atoms: C2_2  and  N3_3 
REMARK    3  A    between atoms: N3_3  and  C4_4 
REMARK    4  A    between atoms: C9_9  and  C20_20 
REMARK    5  A    between atoms: N12_12  and  C13_13 
REMARK    6  A    between atoms: C17_17  and  N19_19 
REMARK    7  A    between atoms: C21_21  and  C22_22 
REMARK    8  A    between atoms: C22_22  and  C23_23 
REMARK    9  A    between atoms: C22_22  and  C24_24 
REMARK   10  A    between atoms: C22_22  and  O25_25 
ROOT
ATOM      1  C4  2OO d   1      13.007 -34.203  14.056  0.00  0.00     0.722 A 
ATOM      2  N5  2OO d   1      13.823 -33.412  13.401  0.00  0.00    -0.062 NA
ATOM      3  C6  2OO d   1      13.596 -32.114  13.765  0.00  0.00     0.104 A 
ATOM      4  C7  2OO d   1      14.166 -30.888  13.381  0.00  0.00    -0.051 A 
ATOM      5  C8  2OO d   1      13.735 -29.705  13.938  0.00  0.00    -0.062 A 
ATOM      6  C9  2OO d   1      12.698 -29.709  14.882  0.00  0.00     0.020 A 
ATOM      7  C10 2OO d   1      12.121 -30.920  15.270  0.00  0.00    -0.035 A 
ATOM      8  C11 2OO d   1      12.562 -32.118  14.724  0.00  0.00     0.106 A 
ATOM      9  N12 2OO d   1      12.206 -33.454  14.888  0.00  0.00     0.031 N 
ATOM     10  H   2OO d   1      14.954 -30.874  12.637  0.00  0.00     0.087 H 
ATOM     11  H   2OO d   1      14.198 -28.769  13.646  0.00  0.00     0.085 H 
ATOM     12  H   2OO d   1      11.323 -30.925  16.003  0.00  0.00     0.089 H 
ENDROOT
BRANCH   6  13
ATOM     13  C20 2OO d   1      12.232 -28.485  15.474  0.00  0.00    -0.064 C 
ATOM     14  C21 2OO d   1      11.833 -27.489  15.954  0.00  0.00    -0.064 C 
BRANCH  14  15
ATOM     15  C22 2OO d   1      11.271 -26.279  16.588  0.00  0.00     0.114 C 
BRANCH  15  16
ATOM     16  C23 2OO d   1       9.761 -26.506  16.736  0.00  0.00    -0.038 C 
ATOM     17  H   2OO d   1       9.302 -25.624  17.206  0.00  0.00     0.033 H 
ATOM     18  H   2OO d   1       9.583 -27.391  17.365  0.00  0.00     0.033 H 
ATOM     19  H   2OO d   1       9.315 -26.666  15.743  0.00  0.00     0.033 H 
ENDBRANCH  15  16
BRANCH  15  20
ATOM     20  C24 2OO d   1      11.923 -26.074  17.952  0.00  0.00    -0.038 C 
ATOM     21  H   2OO d   1      13.003 -25.913  17.822  0.00  0.00     0.033 H 
ATOM     22  H   2OO d   1      11.757 -26.965  18.575  0.00  0.00     0.033 H 
ATOM     23  H   2OO d   1      11.478 -25.196  18.443  0.00  0.00     0.033 H 
ENDBRANCH  15  20
BRANCH  15  24
ATOM     24  O25 2OO d   1      11.427 -25.106  15.776  0.00  0.00    -0.378 OA
ATOM     25  H   2OO d   1      12.352 -24.926  15.657  0.00  0.00     0.211 HD
ENDBRANCH  15  24
ENDBRANCH  14  15
ENDBRANCH   6  13
BRANCH   9  26
ATOM     26  C13 2OO d   1      11.238 -33.954  15.754  0.00  0.00     0.765 A 
ATOM     27  N14 2OO d   1      10.891 -35.248  15.730  0.00  0.00    -0.054 NA
ATOM     28  C15 2OO d   1       9.974 -35.714  16.579  0.00  0.00     0.124 A 
ATOM     29  N16 2OO d   1       9.406 -34.890  17.461  0.00  0.00    -0.055 NA
ATOM     30  H   2OO d   1       9.691 -36.760  16.552  0.00  0.00     0.148 H 
ATOM     31  C17 2OO d   1       9.768 -33.596  17.488  0.00  0.00     0.737 A 
ATOM     32  N18 2OO d   1      10.681 -33.135  16.646  0.00  0.00     0.131 NA
BRANCH  31  33
ATOM     33  N19 2OO d   1       9.207 -32.711  18.374  0.00  0.00    -0.230 N 
ATOM     34  H   2OO d   1       8.494 -33.034  19.043  0.00  0.00     0.174 HD
ATOM     35  H   2OO d   1       9.499 -31.723  18.370  0.00  0.00     0.174 HD
ENDBRANCH  31  33
ENDBRANCH   9  26
BRANCH   1  36
ATOM     36  N3  2OO d   1      12.944 -35.582  13.945  0.00  0.00    -0.224 N 
ATOM     37  H   2OO d   1      12.399 -36.117  14.636  0.00  0.00     0.177 HD
BRANCH  36  38
ATOM     38  C2  2OO d   1      13.637 -36.305  12.863  0.00  0.00     0.006 C 
ATOM     39  H   2OO d   1      14.528 -35.734  12.562  0.00  0.00     0.064 H 
ATOM     40  H   2OO d   1      13.943 -37.296  13.231  0.00  0.00     0.064 H 
BRANCH  38  41
ATOM     41  C1  2OO d   1      12.722 -36.482  11.648  0.00  0.00    -0.061 C 
ATOM     42  H   2OO d   1      13.263 -37.023  10.857  0.00  0.00     0.029 H 
ATOM     43  H   2OO d   1      12.416 -35.494  11.273  0.00  0.00     0.029 H 
ATOM     44  H   2OO d   1      11.830 -37.056  11.941  0.00  0.00     0.029 H 
ENDBRANCH  38  41
ENDBRANCH  36  38
ENDBRANCH   1  36
TORSDOF 10
