REMARK  10 active torsions:
REMARK  status: ('A' for Active; 'I' for Inactive)
REMARK    1  A    between atoms: C12_2  and  C13_3 
REMARK       I    between atoms: C12_2  and  N1_4 
REMARK    2  A    between atoms: N1_4  and  C11_5 
REMARK    3  A    between atoms: C5_12  and  O3_19 
REMARK    4  A    between atoms: C3_13  and  O2_17 
REMARK    5  A    between atoms: C1_14  and  O1_15 
REMARK    6  A    between atoms: O1_15  and  C2_16 
REMARK    7  A    between atoms: O2_17  and  C4_18 
REMARK    8  A    between atoms: O3_19  and  C6_20 
REMARK    9  A    between atoms: C17_25  and  O6_28 
REMARK   10  A    between atoms: O6_28  and  C18_29 
ROOT
ATOM      1  C11 LOC d   1      17.915  67.600  44.442  0.00  0.00     0.039 C 
ATOM      2  C14 LOC d   1      17.723  66.149  44.778  0.00  0.00    -0.020 C 
ATOM      3  C15 LOC d   1      18.040  65.760  46.024  0.00  0.00    -0.023 C 
ATOM      4  C10 LOC d   1      19.267  67.793  43.755  0.00  0.00    -0.038 C 
ATOM      5  C9  LOC d   1      19.520  66.794  42.624  0.00  0.00    -0.038 C 
ATOM      6  C8  LOC d   1      18.275  66.660  41.777  0.00  0.00    -0.041 A 
ATOM      7  C7  LOC d   1      18.210  67.228  40.502  0.00  0.00    -0.041 A 
ATOM      8  C5  LOC d   1      17.073  67.123  39.697  0.00  0.00     0.104 A 
ATOM      9  C3  LOC d   1      15.872  66.397  40.181  0.00  0.00     0.136 A 
ATOM     10  C1  LOC d   1      15.893  65.774  41.522  0.00  0.00     0.116 A 
ATOM     11  C22 LOC d   1      17.122  65.915  42.337  0.00  0.00     0.017 A 
ATOM     12  C21 LOC d   1      17.225  65.302  43.701  0.00  0.00    -0.014 C 
ATOM     13  C20 LOC d   1      16.870  64.009  43.775  0.00  0.00    -0.069 C 
ATOM     14  C19 LOC d   1      16.837  63.084  44.900  0.00  0.00    -0.046 C 
ATOM     15  C17 LOC d   1      17.308  63.245  46.140  0.00  0.00     0.118 C 
ATOM     16  C16 LOC d   1      17.976  64.432  46.664  0.00  0.00     0.205 C 
ATOM     17  O5  LOC d   1      18.519  64.315  47.750  0.00  0.00    -0.285 OA
ATOM     18  H   LOC d   1      17.119  67.903  43.746  0.00  0.00     0.080 H 
ATOM     19  H   LOC d   1      18.405  66.558  46.669  0.00  0.00     0.090 H 
ATOM     20  H   LOC d   1      20.061  67.677  44.508  0.00  0.00     0.036 H 
ATOM     21  H   LOC d   1      19.304  68.810  43.337  0.00  0.00     0.036 H 
ATOM     22  H   LOC d   1      19.779  65.814  43.052  0.00  0.00     0.040 H 
ATOM     23  H   LOC d   1      20.351  67.152  41.999  0.00  0.00     0.040 H 
ATOM     24  H   LOC d   1      19.071  67.768  40.125  0.00  0.00     0.088 H 
ATOM     25  H   LOC d   1      16.551  63.576  42.828  0.00  0.00     0.085 H 
ATOM     26  H   LOC d   1      16.361  62.125  44.702  0.00  0.00     0.087 H 
ENDROOT
BRANCH   1  27
ATOM     27  N1  LOC d   1      17.834  68.444  45.623  0.00  0.00    -0.353 N 
ATOM     28  C12 LOC d   1      16.676  68.736  46.213  0.00  0.00     0.214 C 
ATOM     29  O4  LOC d   1      15.609  68.336  45.780  0.00  0.00    -0.274 OA
ATOM     30  H   LOC d   1      18.678  68.819  46.006  0.00  0.00     0.163 HD
BRANCH  28  31
ATOM     31  C13 LOC d   1      16.766  69.587  47.447  0.00  0.00    -0.003 C 
ATOM     32  H   LOC d   1      17.820  69.829  47.650  0.00  0.00     0.040 H 
ATOM     33  H   LOC d   1      16.345  69.038  48.302  0.00  0.00     0.040 H 
ATOM     34  H   LOC d   1      16.200  70.517  47.293  0.00  0.00     0.040 H 
ENDBRANCH  28  31
ENDBRANCH   1  27
BRANCH  15  35
ATOM     35  O6  LOC d   1      17.130  62.131  47.056  0.00  0.00    -0.352 OA
BRANCH  35  36
ATOM     36  C18 LOC d   1      16.602  60.897  46.581  0.00  0.00     0.011 C 
ATOM     37  H   LOC d   1      16.541  60.180  47.413  0.00  0.00     0.067 H 
ATOM     38  H   LOC d   1      17.260  60.494  45.797  0.00  0.00     0.067 H 
ATOM     39  H   LOC d   1      15.597  61.064  46.166  0.00  0.00     0.067 H 
ENDBRANCH  35  36
ENDBRANCH  15  35
BRANCH  10  40
ATOM     40  O1  LOC d   1      14.799  65.100  41.989  0.00  0.00    -0.352 OA
BRANCH  40  41
ATOM     41  C2  LOC d   1      13.841  65.801  42.780  0.00  0.00     0.011 C 
ATOM     42  H   LOC d   1      13.032  65.114  43.070  0.00  0.00     0.067 H 
ATOM     43  H   LOC d   1      13.423  66.635  42.197  0.00  0.00     0.067 H 
ATOM     44  H   LOC d   1      14.329  66.195  43.684  0.00  0.00     0.067 H 
ENDBRANCH  40  41
ENDBRANCH  10  40
BRANCH   9  45
ATOM     45  O2  LOC d   1      14.761  66.285  39.393  0.00  0.00    -0.351 OA
BRANCH  45  46
ATOM     46  C4  LOC d   1      14.611  65.100  38.616  0.00  0.00     0.011 C 
ATOM     47  H   LOC d   1      13.676  65.156  38.039  0.00  0.00     0.067 H 
ATOM     48  H   LOC d   1      14.579  64.226  39.283  0.00  0.00     0.067 H 
ATOM     49  H   LOC d   1      15.462  65.004  37.926  0.00  0.00     0.067 H 
ENDBRANCH  45  46
ENDBRANCH   9  45
BRANCH   8  50
ATOM     50  O3  LOC d   1      17.041  67.692  38.448  0.00  0.00    -0.353 OA
BRANCH  50  51
ATOM     51  C6  LOC d   1      18.242  68.133  37.819  0.00  0.00     0.010 C 
ATOM     52  H   LOC d   1      18.005  68.556  36.832  0.00  0.00     0.066 H 
ATOM     53  H   LOC d   1      18.927  67.281  37.698  0.00  0.00     0.066 H 
ATOM     54  H   LOC d   1      18.721  68.903  38.442  0.00  0.00     0.066 H 
ENDBRANCH  50  51
ENDBRANCH   8  50
TORSDOF 10
