REMARK WARNING: 32 MAX_TORS EXCEEDED!!!
REMARK  40 active torsions:
REMARK  status: ('A' for Active; 'I' for Inactive)
REMARK    1  A    between atoms: C_1  and  CH3_3 
REMARK       I    between atoms: C_1  and  N_4 
REMARK    2  A    between atoms: N_4  and  CA_5 
REMARK    3  A    between atoms: CA_5  and  C_6 
REMARK    4  A    between atoms: CA_5  and  CB_8 
REMARK       I    between atoms: C_6  and  N_10 
REMARK    5  A    between atoms: CB_8  and  OG_9 
REMARK    6  A    between atoms: N_10  and  CA_11 
REMARK    7  A    between atoms: CA_11  and  C_12 
REMARK    8  A    between atoms: CA_11  and  CB_14 
REMARK       I    between atoms: C_12  and  N_20 
REMARK    9  A    between atoms: CB_14  and  CG_15 
REMARK   10  A    between atoms: N_20  and  CA_21 
REMARK   11  A    between atoms: CA_21  and  C_22 
REMARK   12  A    between atoms: CA_21  and  CB_24 
REMARK       I    between atoms: C_22  and  N_27 
REMARK   13  A    between atoms: CB_24  and  CG1_25 
REMARK   14  A    between atoms: CB_24  and  CG2_26 
REMARK   15  A    between atoms: N_27  and  CA_28 
REMARK   16  A    between atoms: CA_28  and  C_29 
REMARK   17  A    between atoms: CA_28  and  CB_31 
REMARK       I    between atoms: C_29  and  N_32 
REMARK   18  A    between atoms: N_32  and  CA_33 
REMARK   19  A    between atoms: CA_33  and  C_34 
REMARK   20  A    between atoms: CA_33  and  CB_36 
REMARK       I    between atoms: C_34  and  N_39 
REMARK   21  A    between atoms: CB_36  and  CG1_37 
REMARK   22  A    between atoms: CB_36  and  CG2_38 
REMARK   23  A    between atoms: N_39  and  CA_40 
REMARK   24  A    between atoms: CA_40  and  C_41 
REMARK   25  A    between atoms: CA_40  and  CB_43 
REMARK       I    between atoms: C_41  and  N_48 
REMARK   26  A    between atoms: CB_43  and  CG_44 
REMARK   27  A    between atoms: CG_44  and  CD_45 
REMARK   28  A    between atoms: N_48  and  CA_49 
REMARK   29  A    between atoms: CA_49  and  C_50 
REMARK   30  A    between atoms: CA_49  and  CB_52 
REMARK       I    between atoms: C_50  and  N_56 
REMARK   31  A    between atoms: CB_52  and  CG_53 
REMARK       I    between atoms: CG_53  and  ND2_55 
REMARK   32  A    between atoms: N_56  and  CA_57 
REMARK   33  A    between atoms: CA_57  and  C_58 
REMARK   34  A    between atoms: CA_57  and  CB_60 
REMARK       I    between atoms: C_58  and  N_61 
REMARK   35  A    between atoms: N_61  and  CA_62 
REMARK   36  A    between atoms: CA_62  and  C_63 
REMARK   37  A    between atoms: CA_62  and  CB_65 
REMARK   38  A    between atoms: CB_65  and  CG_66 
REMARK   39  A    between atoms: CG_66  and  CD1_67 
REMARK   40  A    between atoms: CG_66  and  CD2_68 
ROOT
ATOM      1  CA  VAL d   1      -0.255  15.101  39.198  0.00  0.00     0.092 C 
ATOM      2  H   VAL d   1      -0.641  15.290  40.211  0.00  0.00     0.088 H 
ENDROOT
BRANCH   1   3
ATOM      3  N   VAL d   1       1.113  14.610  39.316  0.00  0.00    -0.346 N 
ATOM      4  C   ALA d   1       1.547  14.023  40.426  0.00  0.00     0.240 C 
ATOM      5  O   ALA d   1       0.845  13.884  41.428  0.00  0.00    -0.271 OA
ATOM      6  H   VAL d   1       1.739  14.718  38.544  0.00  0.00     0.163 HD
BRANCH   4   7
ATOM      7  CA  ALA d   1       2.987  13.517  40.404  0.00  0.00     0.086 C 
ATOM      8  H   ALA d   1       2.969  12.465  40.083  0.00  0.00     0.086 H 
BRANCH   7   9
ATOM      9  N   ALA d   1       3.813  14.260  39.456  0.00  0.00    -0.346 N 
ATOM     10  C   VAL d   1       4.168  13.739  38.286  0.00  0.00     0.241 C 
ATOM     11  O   VAL d   1       3.789  12.631  37.908  0.00  0.00    -0.271 OA
ATOM     12  H   ALA d   1       4.119  15.182  39.693  0.00  0.00     0.163 HD
BRANCH  10  13
ATOM     13  CA  VAL d   1       5.097  14.584  37.416  0.00  0.00     0.092 C 
ATOM     14  H   VAL d   1       5.621  15.304  38.062  0.00  0.00     0.088 H 
BRANCH  13  15
ATOM     15  N   VAL d   1       6.095  13.723  36.793  0.00  0.00    -0.346 N 
ATOM     16  C   HIS d   1       7.040  13.149  37.530  0.00  0.00     0.241 C 
ATOM     17  O   HIS d   1       7.171  13.375  38.731  0.00  0.00    -0.271 OA
ATOM     18  H   VAL d   1       6.068  13.564  35.806  0.00  0.00     0.163 HD
BRANCH  16  19
ATOM     19  CA  HIS d   1       7.962  12.166  36.823  0.00  0.00     0.094 C 
ATOM     20  H   HIS d   1       8.133  12.495  35.787  0.00  0.00     0.088 H 
BRANCH  19  21
ATOM     21  N   HIS d   1       9.237  12.103  37.527  0.00  0.00    -0.346 N 
ATOM     22  C   SER d   1      10.052  13.153  37.616  0.00  0.00     0.243 C 
ATOM     23  O   SER d   1       9.865  14.207  37.003  0.00  0.00    -0.271 OA
ATOM     24  H   HIS d   1       9.509  11.242  37.958  0.00  0.00     0.163 HD
BRANCH  22  25
ATOM     25  CA  SER d   1      11.266  12.985  38.529  0.00  0.00     0.109 C 
ATOM     26  H   SER d   1      11.638  13.985  38.798  0.00  0.00     0.090 H 
BRANCH  25  27
ATOM     27  N   SER d   1      10.892  12.287  39.756  0.00  0.00    -0.346 N 
ATOM     28  C   ACE d   1      10.335  12.959  40.759  0.00  0.00     0.214 C 
ATOM     29  O   ACE d   1      10.257  14.180  40.877  0.00  0.00    -0.274 OA
ATOM     30  H   SER d   1      11.055  11.304  39.842  0.00  0.00     0.163 HD
BRANCH  28  31
ATOM     31  CH3 ACE d   1       9.846  12.000  41.804  0.00  0.00    -0.003 C 
ATOM     32  H   ACE d   1      10.026  10.968  41.468  0.00  0.00     0.040 H 
ATOM     33  H   ACE d   1       8.768  12.150  41.964  0.00  0.00     0.040 H 
ATOM     34  H   ACE d   1      10.385  12.178  42.746  0.00  0.00     0.040 H 
ENDBRANCH  28  31
ENDBRANCH  25  27
BRANCH  25  35
ATOM     35  CB  SER d   1      12.384  12.233  37.805  0.00  0.00     0.044 C 
ATOM     36  H   SER d   1      11.984  11.288  37.409  0.00  0.00     0.077 H 
ATOM     37  H   SER d   1      13.193  12.018  38.518  0.00  0.00     0.077 H 
BRANCH  35  38
ATOM     38  OG  SER d   1      12.903  13.001  36.734  0.00  0.00    -0.398 OA
ATOM     39  H   SER d   1      13.594  12.513  36.302  0.00  0.00     0.209 HD
ENDBRANCH  35  38
ENDBRANCH  25  35
ENDBRANCH  22  25
ENDBRANCH  19  21
BRANCH  19  40
ATOM     40  CB  HIS d   1       7.283  10.794  36.821  0.00  0.00     0.004 C 
ATOM     41  H   HIS d   1       6.234  10.929  36.519  0.00  0.00     0.046 H 
ATOM     42  H   HIS d   1       7.321  10.389  37.843  0.00  0.00     0.046 H 
BRANCH  40  43
ATOM     43  CG  HIS d   1       7.913   9.796  35.897  0.00  0.00     0.053 A 
ATOM     44  ND1 HIS d   1       9.074   9.126  36.204  0.00  0.00    -0.247 NA
ATOM     45  CE1 HIS d   1       9.379   8.303  35.213  0.00  0.00     0.064 A 
ATOM     46  NE2 HIS d   1       8.450   8.410  34.283  0.00  0.00    -0.359 N 
ATOM     47  H   HIS d   1      10.249   7.649  35.173  0.00  0.00     0.143 H 
ATOM     48  CD2 HIS d   1       7.517   9.336  34.686  0.00  0.00     0.002 A 
ATOM     49  H   HIS d   1       8.427   7.885  33.397  0.00  0.00     0.166 HD
ATOM     50  H   HIS d   1       6.628   9.642  34.136  0.00  0.00     0.114 H 
ENDBRANCH  40  43
ENDBRANCH  19  40
ENDBRANCH  16  19
ENDBRANCH  13  15
BRANCH  13  51
ATOM     51  CB  VAL d   1       4.283  15.383  36.373  0.00  0.00    -0.033 C 
ATOM     52  H   VAL d   1       4.987  15.966  35.761  0.00  0.00     0.042 H 
BRANCH  51  53
ATOM     53  CG1 VAL d   1       3.514  14.449  35.451  0.00  0.00    -0.071 C 
ATOM     54  H   VAL d   1       2.945  15.042  34.720  0.00  0.00     0.028 H 
ATOM     55  H   VAL d   1       2.821  13.836  36.045  0.00  0.00     0.028 H 
ATOM     56  H   VAL d   1       4.221  13.794  34.921  0.00  0.00     0.028 H 
ENDBRANCH  51  53
BRANCH  51  57
ATOM     57  CG2 VAL d   1       3.338  16.354  37.069  0.00  0.00    -0.071 C 
ATOM     58  H   VAL d   1       3.915  17.018  37.729  0.00  0.00     0.028 H 
ATOM     59  H   VAL d   1       2.607  15.790  37.666  0.00  0.00     0.028 H 
ATOM     60  H   VAL d   1       2.810  16.956  36.315  0.00  0.00     0.028 H 
ENDBRANCH  51  57
ENDBRANCH  13  51
ENDBRANCH  10  13
ENDBRANCH   7   9
BRANCH   7  61
ATOM     61  CB  ALA d   1       3.596  13.575  41.799  0.00  0.00    -0.049 C 
ATOM     62  H   ALA d   1       2.962  13.011  42.499  0.00  0.00     0.030 H 
ATOM     63  H   ALA d   1       3.663  14.623  42.127  0.00  0.00     0.030 H 
ATOM     64  H   ALA d   1       4.603  13.133  41.778  0.00  0.00     0.030 H 
ENDBRANCH   7  61
ENDBRANCH   4   7
ENDBRANCH   1   3
BRANCH   1  65
ATOM     65  C   VAL d   1      -1.133  14.045  38.535  0.00  0.00     0.241 C 
ATOM     66  O   VAL d   1      -0.899  13.658  37.389  0.00  0.00    -0.271 OA
ATOM     67  N   GLU d   1      -2.141  13.584  39.267  0.00  0.00    -0.346 N 
ATOM     68  H   GLU d   1      -2.335  14.016  40.148  0.00  0.00     0.163 HD
BRANCH  67  69
ATOM     69  CA  GLU d   1      -2.975  12.470  38.832  0.00  0.00     0.090 C 
ATOM     70  H   GLU d   1      -2.498  12.000  37.960  0.00  0.00     0.087 H 
BRANCH  69  71
ATOM     71  C   GLU d   1      -4.368  12.935  38.422  0.00  0.00     0.241 C 
ATOM     72  O   GLU d   1      -5.210  13.226  39.274  0.00  0.00    -0.271 OA
ATOM     73  N   ASN d   1      -4.605  13.007  37.115  0.00  0.00    -0.346 N 
ATOM     74  H   ASN d   1      -3.871  12.782  36.474  0.00  0.00     0.163 HD
BRANCH  73  75
ATOM     75  CA  ASN d   1      -5.908  13.406  36.592  0.00  0.00     0.097 C 
ATOM     76  H   ASN d   1      -6.670  13.114  37.330  0.00  0.00     0.088 H 
BRANCH  75  77
ATOM     77  C   ASN d   1      -6.241  12.716  35.274  0.00  0.00     0.241 C 
ATOM     78  O   ASN d   1      -5.596  12.960  34.257  0.00  0.00    -0.271 OA
ATOM     79  N   ALA d   1      -7.255  11.859  35.293  0.00  0.00    -0.346 N 
ATOM     80  H   ALA d   1      -7.752  11.703  36.146  0.00  0.00     0.163 HD
BRANCH  79  81
ATOM     81  CA  ALA d   1      -7.654  11.142  34.087  0.00  0.00     0.086 C 
ATOM     82  H   ALA d   1      -6.757  10.689  33.639  0.00  0.00     0.086 H 
BRANCH  81  83
ATOM     83  C   ALA d   1      -8.267  12.098  33.071  0.00  0.00     0.240 C 
ATOM     84  O   ALA d   1      -8.884  13.095  33.442  0.00  0.00    -0.271 OA
ATOM     85  N   LEU d   1      -8.088  11.795  31.789  0.00  0.00    -0.345 N 
ATOM     86  H   LEU d   1      -7.503  11.021  31.547  0.00  0.00     0.163 HD
BRANCH  85  87
ATOM     87  CA  LEU d   1      -8.726  12.566  30.729  0.00  0.00     0.096 C 
ATOM     88  H   LEU d   1      -8.461  13.625  30.864  0.00  0.00     0.089 H 
BRANCH  87  89
ATOM     89  C   LEU d   1     -10.244  12.435  30.818  0.00  0.00     0.196 C 
ATOM     90  O   LEU d   1     -10.993  13.208  30.218  0.00  0.00    -0.646 OA
ATOM     91  OXT LEU d   1     -10.758  11.547  31.503  0.00  0.00    -0.646 OA
ENDBRANCH  87  89
BRANCH  87  92
ATOM     92  CB  LEU d   1      -8.226  12.118  29.351  0.00  0.00    -0.034 C 
ATOM     93  H   LEU d   1      -8.970  12.437  28.606  0.00  0.00     0.037 H 
ATOM     94  H   LEU d   1      -8.163  11.020  29.359  0.00  0.00     0.037 H 
BRANCH  92  95
ATOM     95  CG  LEU d   1      -6.861  12.660  28.908  0.00  0.00    -0.059 C 
ATOM     96  H   LEU d   1      -6.891  13.758  28.976  0.00  0.00     0.038 H 
BRANCH  95  97
ATOM     97  CD1 LEU d   1      -5.741  12.160  29.819  0.00  0.00    -0.073 C 
ATOM     98  H   LEU d   1      -4.779  12.566  29.474  0.00  0.00     0.028 H 
ATOM     99  H   LEU d   1      -5.707  11.061  29.789  0.00  0.00     0.028 H 
ATOM    100  H   LEU d   1      -5.931  12.493  30.850  0.00  0.00     0.028 H 
ENDBRANCH  95  97
BRANCH  95 101
ATOM    101  CD2 LEU d   1      -6.581  12.281  27.463  0.00  0.00    -0.073 C 
ATOM    102  H   LEU d   1      -7.397  12.649  26.823  0.00  0.00     0.028 H 
ATOM    103  H   LEU d   1      -6.513  11.187  27.378  0.00  0.00     0.028 H 
ATOM    104  H   LEU d   1      -5.631  12.734  27.143  0.00  0.00     0.028 H 
ENDBRANCH  95 101
ENDBRANCH  92  95
ENDBRANCH  87  92
ENDBRANCH  85  87
ENDBRANCH  81  83
BRANCH  81 105
ATOM    105  CB  ALA d   1      -8.633  10.031  34.432  0.00  0.00    -0.049 C 
ATOM    106  H   ALA d   1      -8.924   9.500  33.513  0.00  0.00     0.030 H 
ATOM    107  H   ALA d   1      -9.527  10.464  34.904  0.00  0.00     0.030 H 
ATOM    108  H   ALA d   1      -8.156   9.325  35.128  0.00  0.00     0.030 H 
ENDBRANCH  81 105
ENDBRANCH  79  81
ENDBRANCH  75  77
BRANCH  75 109
ATOM    109  CB  ASN d   1      -5.973  14.924  36.410  0.00  0.00     0.036 C 
ATOM    110  H   ASN d   1      -6.907  15.176  35.886  0.00  0.00     0.051 H 
ATOM    111  H   ASN d   1      -5.114  15.243  35.802  0.00  0.00     0.051 H 
BRANCH 109 112
ATOM    112  CG  ASN d   1      -5.939  15.671  37.728  0.00  0.00     0.217 C 
ATOM    113  OD1 ASN d   1      -6.959  15.808  38.405  0.00  0.00    -0.274 OA
ATOM    114  ND2 ASN d   1      -4.764  16.162  38.098  0.00  0.00    -0.370 N 
ATOM    115  H   ASN d   1      -4.681  16.665  38.959  0.00  0.00     0.159 HD
ATOM    116  H   ASN d   1      -3.961  16.030  37.517  0.00  0.00     0.159 HD
ENDBRANCH 109 112
ENDBRANCH  75 109
ENDBRANCH  73  75
ENDBRANCH  69  71
BRANCH  69 117
ATOM    117  CB  GLU d   1      -3.074  11.433  39.956  0.00  0.00    -0.029 C 
ATOM    118  H   GLU d   1      -3.278  11.969  40.895  0.00  0.00     0.037 H 
ATOM    119  H   GLU d   1      -2.104  10.919  40.030  0.00  0.00     0.037 H 
BRANCH 117 120
ATOM    120  CG  GLU d   1      -4.152  10.377  39.775  0.00  0.00     0.018 C 
ATOM    121  H   GLU d   1      -3.902   9.763  38.897  0.00  0.00     0.049 H 
ATOM    122  H   GLU d   1      -5.116  10.880  39.608  0.00  0.00     0.049 H 
BRANCH 120 123
ATOM    123  CD  GLU d   1      -4.277   9.470  40.987  0.00  0.00     0.172 C 
ATOM    124  OE1 GLU d   1      -5.144   8.570  40.979  0.00  0.00    -0.648 OA
ATOM    125  OE2 GLU d   1      -3.504   9.659  41.949  0.00  0.00    -0.648 OA
ENDBRANCH 120 123
ENDBRANCH 117 120
ENDBRANCH  69 117
ENDBRANCH  67  69
ENDBRANCH   1  65
BRANCH   1 126
ATOM    126  CB  VAL d   1      -0.319  16.419  38.405  0.00  0.00    -0.033 C 
ATOM    127  H   VAL d   1       0.032  16.229  37.380  0.00  0.00     0.042 H 
BRANCH 126 128
ATOM    128  CG1 VAL d   1      -1.749  16.927  38.339  0.00  0.00    -0.071 C 
ATOM    129  H   VAL d   1      -1.778  17.868  37.770  0.00  0.00     0.028 H 
ATOM    130  H   VAL d   1      -2.123  17.103  39.358  0.00  0.00     0.028 H 
ATOM    131  H   VAL d   1      -2.382  16.178  37.841  0.00  0.00     0.028 H 
ENDBRANCH 126 128
BRANCH 126 132
ATOM    132  CG2 VAL d   1       0.588  17.463  39.042  0.00  0.00    -0.071 C 
ATOM    133  H   VAL d   1       1.618  17.079  39.082  0.00  0.00     0.028 H 
ATOM    134  H   VAL d   1       0.238  17.679  40.062  0.00  0.00     0.028 H 
ATOM    135  H   VAL d   1       0.563  18.385  38.443  0.00  0.00     0.028 H 
ENDBRANCH 126 132
ENDBRANCH   1 126
TORSDOF 40
