REMARK  9 active torsions:
REMARK  status: ('A' for Active; 'I' for Inactive)
REMARK    1  A    between atoms: NBG_6  and  CAR_7 
REMARK    2  A    between atoms: CAR_7  and  CAO_8 
REMARK    3  A    between atoms: CAO_8  and  SAY_9 
REMARK    4  A    between atoms: SAY_9  and  C2_10 
REMARK    5  A    between atoms: C6_12  and  NAW_13 
REMARK    6  A    between atoms: NAW_13  and  CAZ_14 
REMARK    7  A    between atoms: NBH_25  and  CAS_26 
REMARK    8  A    between atoms: CAS_26  and  CBF_27 
REMARK    9  A    between atoms: CBF_27  and  CBA_29 
ROOT
ATOM      1  C2  11V d   1      -6.195   5.558  30.835  0.00  0.00     0.192 A 
ATOM      2  N1  11V d   1      -6.355   4.667  31.815  0.00  0.00    -0.204 NA
ATOM      3  C6  11V d   1      -5.323   3.903  32.191  0.00  0.00     0.146 A 
ATOM      4  N3  11V d   1      -5.004   5.690  30.227  0.00  0.00    -0.203 NA
ATOM      5  C4  11V d   1      -3.968   4.918  30.609  0.00  0.00     0.164 A 
ATOM      6  C5  11V d   1      -4.124   4.014  31.592  0.00  0.00     0.077 A 
ATOM      7  CAL 11V d   1      -2.949   3.397  31.737  0.00  0.00     0.039 A 
ATOM      8  NAT 11V d   1      -2.084   3.928  30.859  0.00  0.00    -0.182 NA
ATOM      9  NBH 11V d   1      -2.706   4.845  30.168  0.00  0.00    -0.250 N 
ATOM     10  H20 11V d   1      -2.730   2.600  32.446  0.00  0.00     0.119 H 
ENDROOT
BRANCH   1  11
ATOM     11  SAY 11V d   1      -7.537   6.499  30.390  0.00  0.00    -0.088 SA
BRANCH  11  12
ATOM     12  CAO 11V d   1      -6.682   7.935  29.661  0.00  0.00     0.007 C 
ATOM     13  H12 11V d   1      -7.025   8.844  30.177  0.00  0.00     0.052 H 
ATOM     14  H13 11V d   1      -5.600   7.811  29.815  0.00  0.00     0.052 H 
BRANCH  12  15
ATOM     15  CAR 11V d   1      -6.941   8.101  28.169  0.00  0.00     0.092 C 
ATOM     16  H10 11V d   1      -6.342   7.374  27.602  0.00  0.00     0.077 H 
ATOM     17  H11 11V d   1      -8.008   7.943  27.955  0.00  0.00     0.077 H 
BRANCH  15  18
ATOM     18  NBG 11V d   1      -6.555   9.461  27.797  0.00  0.00    -0.066 N 
ATOM     19  CAP 11V d   1      -5.103   9.538  27.562  0.00  0.00     0.103 C 
ATOM     20  CAM 11V d   1      -4.709  10.984  27.336  0.00  0.00     0.042 C 
ATOM     21  H1  11V d   1      -4.567   9.144  28.438  0.00  0.00     0.079 H 
ATOM     22  H2  11V d   1      -4.842   8.943  26.674  0.00  0.00     0.079 H 
ATOM     23  OAX 11V d   1      -5.468  11.520  26.225  0.00  0.00    -0.388 OA
ATOM     24  H3  11V d   1      -3.634  11.040  27.108  0.00  0.00     0.076 H 
ATOM     25  H4  11V d   1      -4.923  11.569  28.243  0.00  0.00     0.076 H 
ATOM     26  CAN 11V d   1      -6.920  11.419  26.350  0.00  0.00     0.042 C 
ATOM     27  CAQ 11V d   1      -7.324   9.972  26.647  0.00  0.00     0.103 C 
ATOM     28  H5  11V d   1      -7.389  11.742  25.409  0.00  0.00     0.076 H 
ATOM     29  H6  11V d   1      -7.260  12.067  27.171  0.00  0.00     0.076 H 
ATOM     30  H7  11V d   1      -7.119   9.348  25.765  0.00  0.00     0.079 H 
ATOM     31  H8  11V d   1      -8.398   9.934  26.881  0.00  0.00     0.079 H 
ATOM     32  H9  11V d   1      -6.766  10.057  28.582  0.00  0.00     0.280 HD
ENDBRANCH  15  18
ENDBRANCH  12  15
ENDBRANCH  11  12
ENDBRANCH   1  11
BRANCH   3  33
ATOM     33  NAW 11V d   1      -5.474   3.010  33.173  0.00  0.00    -0.340 N 
ATOM     34  H14 11V d   1      -4.855   2.190  33.245  0.00  0.00     0.167 HD
BRANCH  33  35
ATOM     35  CAZ 11V d   1      -6.463   3.217  34.067  0.00  0.00     0.033 A 
ATOM     36  CAH 11V d   1      -7.769   2.790  33.800  0.00  0.00    -0.057 A 
ATOM     37  CAD 11V d   1      -8.780   2.997  34.741  0.00  0.00    -0.081 A 
ATOM     38  H15 11V d   1      -7.996   2.298  32.861  0.00  0.00     0.086 H 
ATOM     39  CAB 11V d   1      -8.491   3.624  35.958  0.00  0.00    -0.083 A 
ATOM     40  H16 11V d   1      -9.792   2.671  34.528  0.00  0.00     0.083 H 
ATOM     41  CAE 11V d   1      -7.189   4.045  36.239  0.00  0.00    -0.081 A 
ATOM     42  H17 11V d   1      -9.279   3.784  36.685  0.00  0.00     0.083 H 
ATOM     43  CAI 11V d   1      -6.186   3.849  35.288  0.00  0.00    -0.057 A 
ATOM     44  H18 11V d   1      -6.960   4.519  37.186  0.00  0.00     0.083 H 
ATOM     45  H19 11V d   1      -5.178   4.190  35.496  0.00  0.00     0.086 H 
ENDBRANCH  33  35
ENDBRANCH   3  33
BRANCH   9  46
ATOM     46  CAS 11V d   1      -2.165   5.716  29.064  0.00  0.00     0.038 C 
ATOM     47  H21 11V d   1      -2.997   6.256  28.588  0.00  0.00     0.070 H 
ATOM     48  H22 11V d   1      -1.662   5.084  28.317  0.00  0.00     0.070 H 
BRANCH  46  49
ATOM     49  CBF 11V d   1      -1.155   6.735  29.631  0.00  0.00     0.060 C 
ATOM     50 CLA  11V d   1      -1.908   7.626  31.031  0.00  0.00    -0.118 Cl
ATOM     51  H23 11V d   1      -0.291   6.172  30.014  0.00  0.00     0.074 H 
BRANCH  49  52
ATOM     52  CBA 11V d   1      -0.675   7.625  28.648  0.00  0.00    -0.038 A 
ATOM     53  CAJ 11V d   1       0.666   7.553  28.269  0.00  0.00    -0.075 A 
ATOM     54  CAF 11V d   1       1.191   8.413  27.303  0.00  0.00    -0.082 A 
ATOM     55  H24 11V d   1       1.312   6.816  28.733  0.00  0.00     0.084 H 
ATOM     56  CAC 11V d   1       0.369   9.359  26.701  0.00  0.00    -0.083 A 
ATOM     57  H25 11V d   1       2.236   8.344  27.023  0.00  0.00     0.083 H 
ATOM     58  CAG 11V d   1      -0.975   9.443  27.076  0.00  0.00    -0.082 A 
ATOM     59  H26 11V d   1       0.768  10.027  25.946  0.00  0.00     0.083 H 
ATOM     60  CAK 11V d   1      -1.500   8.580  28.043  0.00  0.00    -0.075 A 
ATOM     61  H27 11V d   1      -1.616  10.184  26.613  0.00  0.00     0.083 H 
ATOM     62  H28 11V d   1      -2.545   8.651  28.324  0.00  0.00     0.084 H 
ENDBRANCH  49  52
ENDBRANCH  46  49
ENDBRANCH   9  46
TORSDOF 9
