REMARK  4 active torsions:
REMARK  status: ('A' for Active; 'I' for Inactive)
REMARK    1  A    between atoms: N_1  and  CA_2 
REMARK    2  A    between atoms: CA_2  and  C_3 
REMARK    3  A    between atoms: CA_2  and  CB_5 
REMARK    4  A    between atoms: CB_5  and  CG_6 
ROOT
ATOM      1  CA  ASP d   1     -14.539   1.511 -16.446  0.00  0.00     0.191 C 
ATOM      2  H   ASP d   1     -14.054   0.607 -16.050  0.00  0.00     0.102 H 
ENDROOT
BRANCH   1   3
ATOM      3  N   ASP d   1     -13.605   2.642 -16.250  0.00  0.00    -0.065 N 
ATOM      4  H   ASP d   1     -13.444   2.778 -15.264  0.00  0.00     0.275 HD
ATOM      5  H   ASP d   1     -14.004   3.479 -16.644  0.00  0.00     0.275 HD
ATOM      6  H   ASP d   1     -12.730   2.439 -16.708  0.00  0.00     0.275 HD
ENDBRANCH   1   3
BRANCH   1   7
ATOM      7  C   ASP d   1     -14.796   1.287 -17.919  0.00  0.00     0.205 C 
ATOM      8  O   ASP d   1     -13.999   1.778 -18.735  0.00  0.00    -0.646 OA
ATOM      9  OXT ASP d   1     -15.776   0.606 -18.297  0.00  0.00    -0.646 OA
ENDBRANCH   1   7
BRANCH   1  10
ATOM     10  CB  ASP d   1     -15.851   1.707 -15.669  0.00  0.00     0.051 C 
ATOM     11  H   ASP d   1     -16.672   1.857 -16.386  0.00  0.00     0.053 H 
ATOM     12  H   ASP d   1     -15.757   2.596 -15.028  0.00  0.00     0.053 H 
BRANCH  10  13
ATOM     13  CG  ASP d   1     -16.174   0.487 -14.788  0.00  0.00     0.175 C 
ATOM     14  OD1 ASP d   1     -16.823  -0.441 -15.297  0.00  0.00    -0.648 OA
ATOM     15  OD2 ASP d   1     -15.742   0.438 -13.605  0.00  0.00    -0.648 OA
ENDBRANCH  10  13
ENDBRANCH   1  10
TORSDOF 4
