REMARK  6 active torsions:
REMARK  status: ('A' for Active; 'I' for Inactive)
REMARK    1  A    between atoms: C1_1  and  C2_4 
REMARK    2  A    between atoms: C2_4  and  C3_5 
REMARK    3  A    between atoms: C3_5  and  O7_6 
REMARK    4  A    between atoms: C3_5  and  C4_7 
REMARK    5  A    between atoms: C3_5  and  C6_11 
REMARK    6  A    between atoms: C4_7  and  C5_8 
ROOT
ATOM      1  C3  CIT d   1      18.097   2.469   3.342  0.00  0.00     0.164 C 
ENDROOT
BRANCH   1   2
ATOM      2  C2  CIT d   1      16.728   2.366   4.095  0.00  0.00     0.054 C 
ATOM      3  H   CIT d   1      16.282   1.384   3.878  0.00  0.00     0.054 H 
ATOM      4  H   CIT d   1      16.915   2.453   5.175  0.00  0.00     0.054 H 
BRANCH   2   5
ATOM      5  C1  CIT d   1      15.735   3.453   3.684  0.00  0.00     0.176 C 
ATOM      6  O1  CIT d   1      15.923   4.082   2.607  0.00  0.00    -0.648 OA
ATOM      7  O2  CIT d   1      14.767   3.683   4.432  0.00  0.00    -0.648 OA
ENDBRANCH   2   5
ENDBRANCH   1   2
BRANCH   1   8
ATOM      8  O7  CIT d   1      17.951   2.732   1.898  0.00  0.00    -0.378 OA
ATOM      9  H   CIT d   1      17.492   3.554   1.772  0.00  0.00     0.211 HD
ENDBRANCH   1   8
BRANCH   1  10
ATOM     10  C4  CIT d   1      18.941   3.623   3.888  0.00  0.00     0.054 C 
ATOM     11  H   CIT d   1      19.052   3.474   4.972  0.00  0.00     0.054 H 
ATOM     12  H   CIT d   1      18.393   4.558   3.700  0.00  0.00     0.054 H 
BRANCH  10  13
ATOM     13  C5  CIT d   1      20.345   3.775   3.291  0.00  0.00     0.176 C 
ATOM     14  O3  CIT d   1      20.833   4.933   3.248  0.00  0.00    -0.648 OA
ATOM     15  O4  CIT d   1      20.982   2.782   2.890  0.00  0.00    -0.648 OA
ENDBRANCH  10  13
ENDBRANCH   1  10
BRANCH   1  16
ATOM     16  C6  CIT d   1      18.815   1.141   3.660  0.00  0.00     0.210 C 
ATOM     17  O5  CIT d   1      19.080   0.335   2.763  0.00  0.00    -0.646 OA
ATOM     18  O6  CIT d   1      19.164   0.884   4.838  0.00  0.00    -0.646 OA
ENDBRANCH   1  16
TORSDOF 6
