REMARK  32 active torsions:
REMARK  status: ('A' for Active; 'I' for Inactive)
REMARK    1  A    between atoms: C_1  and  CH3_3 
REMARK       I    between atoms: N_4  and  C_1 
REMARK    2  A    between atoms: C_6  and  CA_5 
REMARK       I    between atoms: N_11  and  C_6 
REMARK    3  A    between atoms: CA_12  and  N_11 
REMARK    4  A    between atoms: C_13  and  CA_12 
REMARK    5  A    between atoms: CA_12  and  CB_15 
REMARK       I    between atoms: N_41  and  C_13 
REMARK    6  A    between atoms: CB_15  and  CG_16 
REMARK    7  A    between atoms: CG_16  and  CD1_17 
REMARK    8  A    between atoms: CG_16  and  CD2_18 
REMARK    9  A    between atoms: CA_20  and  C_19 
REMARK       I    between atoms: C_19  and  N_44 
REMARK   10  A    between atoms: CA_20  and  CB_21 
REMARK   11  A    between atoms: CA_20  and  N_41 
REMARK   12  A    between atoms: CB_21  and  C12_22 
REMARK   13  A    between atoms: N14_24  and  CCA_43 
REMARK   14  A    between atoms: N16_26  and  C17_27 
REMARK   15  A    between atoms: C17_27  and  C18_28 
REMARK   16  A    between atoms: C18_28  and  C19_29 
REMARK   17  A    between atoms: C19_29  and  C20_30 
REMARK   18  A    between atoms: C20_30  and  C21_31 
REMARK   19  A    between atoms: C21_31  and  C22_32 
REMARK   20  A    between atoms: C22_32  and  C23_33 
REMARK   21  A    between atoms: C23_33  and  C24_34 
REMARK   22  A    between atoms: C24_34  and  C25_35 
REMARK   23  A    between atoms: N_44  and  CA_45 
REMARK   24  A    between atoms: CA_45  and  C_46 
REMARK   25  A    between atoms: CA_45  and  CB_48 
REMARK       I    between atoms: C_46  and  N_50 
REMARK   26  A    between atoms: CB_48  and  OG_49 
REMARK   27  A    between atoms: N_50  and  CA_51 
REMARK   28  A    between atoms: CA_51  and  CB_52 
REMARK   29  A    between atoms: CA_51  and  C_59 
REMARK   30  A    between atoms: CB_52  and  CG2_53 
REMARK   31  A    between atoms: CB_52  and  OG1_54 
REMARK   32  A    between atoms: OG1_54  and  P_55 
REMARK       I    between atoms: C_59  and  N_61 
ROOT
ATOM      1  CA  2SO d   1      10.957  12.750  12.310  0.00  0.00     0.094 C 
ATOM      2  H   2SO d   1      10.599  11.881  11.739  0.00  0.00     0.088 H 
ENDROOT
BRANCH   1   3
ATOM      3  C   2SO d   1      10.932  12.420  13.770  0.00  0.00     0.241 C 
ATOM      4  O   2SO d   1      10.447  13.185  14.604  0.00  0.00    -0.271 OA
ATOM      5  N   SER d   1      11.481  11.229  14.076  0.00  0.00    -0.344 N 
ATOM      6  H   SER d   1      11.855  10.666  13.338  0.00  0.00     0.163 HD
BRANCH   5   7
ATOM      7  CA  SER d   1      11.550  10.731  15.444  0.00  0.00     0.109 C 
ATOM      8  H   SER d   1      10.583  10.938  15.926  0.00  0.00     0.090 H 
BRANCH   7   9
ATOM      9  C   SER d   1      12.580  11.484  16.238  0.00  0.00     0.243 C 
ATOM     10  O   SER d   1      13.329  12.326  15.726  0.00  0.00    -0.271 OA
ATOM     11  N   TPO d   1      12.658  11.209  17.542  0.00  0.00    -0.344 N 
ATOM     12  H   TPO d   1      12.046  10.515  17.923  0.00  0.00     0.163 HD
BRANCH  11  13
ATOM     13  CA  TPO d   1      13.604  11.882  18.440  0.00  0.00     0.114 C 
ATOM     14  H   TPO d   1      13.361  12.954  18.396  0.00  0.00     0.091 H 
BRANCH  13  15
ATOM     15  CB  TPO d   1      13.325  11.392  19.862  0.00  0.00     0.076 C 
ATOM     16  H   TPO d   1      13.626  10.336  19.929  0.00  0.00     0.087 H 
BRANCH  15  17
ATOM     17  CG2 TPO d   1      14.043  12.191  20.944  0.00  0.00    -0.049 C 
ATOM     18  H   TPO d   1      13.792  11.778  21.932  0.00  0.00     0.031 H 
ATOM     19  H   TPO d   1      13.726  13.243  20.895  0.00  0.00     0.031 H 
ATOM     20  H   TPO d   1      15.130  12.128  20.786  0.00  0.00     0.031 H 
ENDBRANCH  15  17
BRANCH  15  21
ATOM     21  OG1 TPO d   1      11.940  11.527  20.164  0.00  0.00    -0.275 OA
BRANCH  21  22
ATOM     22  P   TPO d   1      11.046  10.198  20.361  0.00  0.00     0.422 P 
ATOM     23  O1P TPO d   1      11.024   9.517  19.057  0.00  0.00    -0.617 OA
ATOM     24  O2P TPO d   1       9.637  10.814  20.777  0.00  0.00    -0.617 OA
ATOM     25  O3P TPO d   1      11.670   9.350  21.504  0.00  0.00    -0.617 OA
ENDBRANCH  21  22
ENDBRANCH  15  21
ENDBRANCH  13  15
BRANCH  13  26
ATOM     26  C   TPO d   1      15.065  11.784  18.142  0.00  0.00     0.240 C 
ATOM     27  O   TPO d   1      15.555  10.723  17.859  0.00  0.00    -0.271 OA
ATOM     28  N   NH2 d   1      15.768  12.954  18.217  0.00  0.00    -0.368 N 
ATOM     29  H   NH2 d   1      16.750  12.960  18.030  0.00  0.00     0.159 HD
ATOM     30  H   NH2 d   1      15.300  13.804  18.459  0.00  0.00     0.159 HD
ENDBRANCH  13  26
ENDBRANCH  11  13
ENDBRANCH   7   9
BRANCH   7  31
ATOM     31  CB  SER d   1      11.695   9.208  15.393  0.00  0.00     0.044 C 
ATOM     32  H   SER d   1      10.848   8.778  14.839  0.00  0.00     0.077 H 
ATOM     33  H   SER d   1      11.705   8.807  16.417  0.00  0.00     0.077 H 
BRANCH  31  34
ATOM     34  OG  SER d   1      12.914   8.866  14.737  0.00  0.00    -0.398 OA
ATOM     35  H   SER d   1      13.645   9.238  15.216  0.00  0.00     0.209 HD
ENDBRANCH  31  34
ENDBRANCH   7  31
ENDBRANCH   5   7
ENDBRANCH   1   3
BRANCH   1  36
ATOM     36  CB  2SO d   1      12.384  13.023  11.835  0.00  0.00     0.002 C 
ATOM     37  H   2SO d   1      12.394  13.055  10.736  0.00  0.00     0.046 H 
ATOM     38  H   2SO d   1      13.038  12.210  12.184  0.00  0.00     0.046 H 
BRANCH  36  39
ATOM     39  C12 2SO d   1      12.906  14.330  12.365  0.00  0.00     0.030 A 
ATOM     40  C13 2SO d   1      13.426  14.570  13.588  0.00  0.00     0.002 A 
ATOM     41  N14 2SO d   1      13.757  15.888  13.617  0.00  0.00    -0.355 N 
ATOM     42  H   2SO d   1      13.555  13.849  14.393  0.00  0.00     0.114 H 
ATOM     43  C15 2SO d   1      13.454  16.432  12.471  0.00  0.00     0.044 A 
ATOM     44  N16 2SO d   1      12.921  15.510  11.653  0.00  0.00    -0.345 N 
ATOM     45  H   2SO d   1      13.610  17.479  12.215  0.00  0.00     0.141 H 
BRANCH  41  46
ATOM     46  CCA 2SO d   1      14.364  16.595  14.770  0.00  0.00    -0.014 C 
ATOM     47  H   2SO d   1      14.508  15.887  15.600  0.00  0.00     0.057 H 
ATOM     48  H   2SO d   1      13.698  17.409  15.093  0.00  0.00     0.057 H 
ATOM     49  H   2SO d   1      15.337  17.014  14.473  0.00  0.00     0.057 H 
ENDBRANCH  41  46
BRANCH  44  50
ATOM     50  C17 2SO d   1      12.447  15.704  10.282  0.00  0.00     0.001 C 
ATOM     51  H   2SO d   1      12.144  16.750  10.127  0.00  0.00     0.065 H 
ATOM     52  H   2SO d   1      11.594  15.041  10.075  0.00  0.00     0.065 H 
BRANCH  50  53
ATOM     53  C18 2SO d   1      13.618  15.355   9.379  0.00  0.00    -0.050 C 
ATOM     54  H   2SO d   1      13.959  14.334   9.606  0.00  0.00     0.035 H 
ATOM     55  H   2SO d   1      14.439  16.065   9.559  0.00  0.00     0.035 H 
BRANCH  53  56
ATOM     56  C19 2SO d   1      13.204  15.430   7.925  0.00  0.00    -0.064 C 
ATOM     57  H   2SO d   1      12.889  16.453   7.673  0.00  0.00     0.033 H 
ATOM     58  H   2SO d   1      12.376  14.732   7.730  0.00  0.00     0.033 H 
BRANCH  56  59
ATOM     59  C20 2SO d   1      14.432  15.037   7.099  0.00  0.00    -0.065 C 
ATOM     60  H   2SO d   1      14.915  14.152   7.538  0.00  0.00     0.033 H 
ATOM     61  H   2SO d   1      15.150  15.870   7.070  0.00  0.00     0.033 H 
BRANCH  59  62
ATOM     62  C21 2SO d   1      13.944  14.723   5.700  0.00  0.00    -0.065 C 
ATOM     63  H   2SO d   1      13.407  15.592   5.292  0.00  0.00     0.033 H 
ATOM     64  H   2SO d   1      13.268  13.855   5.730  0.00  0.00     0.033 H 
BRANCH  62  65
ATOM     65  C22 2SO d   1      15.157  14.402   4.811  0.00  0.00    -0.065 C 
ATOM     66  H   2SO d   1      16.001  15.051   5.087  0.00  0.00     0.033 H 
ATOM     67  H   2SO d   1      14.897  14.567   3.755  0.00  0.00     0.033 H 
BRANCH  65  68
ATOM     68  C23 2SO d   1      15.545  12.927   5.026  0.00  0.00    -0.061 C 
ATOM     69  H   2SO d   1      14.654  12.294   4.906  0.00  0.00     0.033 H 
ATOM     70  H   2SO d   1      15.951  12.800   6.040  0.00  0.00     0.033 H 
BRANCH  68  71
ATOM     71  C24 2SO d   1      16.615  12.510   3.988  0.00  0.00    -0.041 C 
ATOM     72  H   2SO d   1      16.969  11.498   4.233  0.00  0.00     0.040 H 
ATOM     73  H   2SO d   1      17.456  13.217   4.045  0.00  0.00     0.040 H 
BRANCH  71  74
ATOM     74  C25 2SO d   1      16.076  12.507   2.567  0.00  0.00    -0.058 A 
ATOM     75  C26 2SO d   1      15.149  11.555   2.195  0.00  0.00    -0.077 A 
ATOM     76  C27 2SO d   1      14.638  11.526   0.915  0.00  0.00    -0.082 A 
ATOM     77  H   2SO d   1      14.818  10.820   2.919  0.00  0.00     0.084 H 
ATOM     78  C28 2SO d   1      15.058  12.459  -0.007  0.00  0.00    -0.083 A 
ATOM     79  H   2SO d   1      13.910  10.773   0.636  0.00  0.00     0.083 H 
ATOM     80  C29 2SO d   1      15.984  13.417   0.351  0.00  0.00    -0.082 A 
ATOM     81  H   2SO d   1      14.660  12.441  -1.015  0.00  0.00     0.083 H 
ATOM     82  C30 2SO d   1      16.496  13.448   1.634  0.00  0.00    -0.077 A 
ATOM     83  H   2SO d   1      16.312  14.149  -0.378  0.00  0.00     0.083 H 
ATOM     84  H   2SO d   1      17.222  14.203   1.912  0.00  0.00     0.084 H 
ENDBRANCH  71  74
ENDBRANCH  68  71
ENDBRANCH  65  68
ENDBRANCH  62  65
ENDBRANCH  59  62
ENDBRANCH  56  59
ENDBRANCH  53  56
ENDBRANCH  50  53
ENDBRANCH  44  50
ENDBRANCH  36  39
ENDBRANCH   1  36
BRANCH   1  85
ATOM     85  N   2SO d   1       9.960  13.831  12.154  0.00  0.00    -0.346 N 
ATOM     86  C   LEU d   1       9.400  14.091  10.960  0.00  0.00     0.241 C 
ATOM     87  O   LEU d   1       9.709  13.438   9.959  0.00  0.00    -0.271 OA
ATOM     88  H   2SO d   1       9.698  14.377  12.950  0.00  0.00     0.163 HD
BRANCH  86  89
ATOM     89  CA  LEU d   1       8.374  15.212  10.882  0.00  0.00     0.089 C 
ATOM     90  H   LEU d   1       7.401  14.753  10.653  0.00  0.00     0.087 H 
BRANCH  89  91
ATOM     91  N   LEU d   1       8.239  15.923  12.169  0.00  0.00    -0.346 N 
ATOM     92  C   PRO d   1       7.265  15.624  13.064  0.00  0.00     0.241 C 
ATOM     93  O   PRO d   1       6.435  14.743  12.856  0.00  0.00    -0.271 OA
ATOM     94  H   LEU d   1       8.889  16.651  12.388  0.00  0.00     0.163 HD
BRANCH  92  95
ATOM     95  CA  PRO d   1       7.214  16.419  14.356  0.00  0.00     0.091 C 
ATOM     96  N   PRO d   1       5.828  16.680  14.802  0.00  0.00    -0.339 N 
ATOM     97  C   ACE d   1       4.908  17.406  14.124  0.00  0.00     0.216 C 
ATOM     98  CD  PRO d   1       5.602  16.026  16.103  0.00  0.00    -0.001 C 
ATOM     99  O   ACE d   1       5.197  17.906  13.051  0.00  0.00    -0.274 OA
ATOM    100  CG  PRO d   1       6.955  15.588  16.679  0.00  0.00    -0.048 C 
ATOM    101  H   PRO d   1       4.956  15.146  15.967  0.00  0.00     0.064 H 
ATOM    102  H   PRO d   1       5.118  16.733  16.793  0.00  0.00     0.064 H 
ATOM    103  CB  PRO d   1       7.881  15.533  15.439  0.00  0.00    -0.036 C 
ATOM    104  H   PRO d   1       7.324  16.320  17.412  0.00  0.00     0.035 H 
ATOM    105  H   PRO d   1       6.877  14.599  17.155  0.00  0.00     0.035 H 
ATOM    106  H   PRO d   1       8.877  15.925  15.691  0.00  0.00     0.036 H 
ATOM    107  H   PRO d   1       7.974  14.498  15.079  0.00  0.00     0.036 H 
ATOM    108  H   PRO d   1       7.753  17.370  14.235  0.00  0.00     0.087 H 
BRANCH  97 109
ATOM    109  CH3 ACE d   1       3.522  17.591  14.701  0.00  0.00    -0.003 C 
ATOM    110  H   ACE d   1       3.454  17.070  15.667  0.00  0.00     0.040 H 
ATOM    111  H   ACE d   1       2.777  17.174  14.007  0.00  0.00     0.040 H 
ATOM    112  H   ACE d   1       3.326  18.663  14.849  0.00  0.00     0.040 H 
ENDBRANCH  97 109
ENDBRANCH  92  95
ENDBRANCH  89  91
BRANCH  89 113
ATOM    113  CB  LEU d   1       8.703  16.193   9.750  0.00  0.00    -0.035 C 
ATOM    114  H   LEU d   1       8.926  15.626   8.834  0.00  0.00     0.037 H 
ATOM    115  H   LEU d   1       9.582  16.790  10.034  0.00  0.00     0.037 H 
BRANCH 113 116
ATOM    116  CG  LEU d   1       7.530  17.126   9.486  0.00  0.00    -0.059 C 
ATOM    117  H   LEU d   1       7.314  17.737  10.375  0.00  0.00     0.038 H 
BRANCH 116 118
ATOM    118  CD1 LEU d   1       7.945  17.999   8.288  0.00  0.00    -0.073 C 
ATOM    119  H   LEU d   1       7.133  18.700   8.046  0.00  0.00     0.028 H 
ATOM    120  H   LEU d   1       8.146  17.356   7.418  0.00  0.00     0.028 H 
ATOM    121  H   LEU d   1       8.853  18.564   8.543  0.00  0.00     0.028 H 
ENDBRANCH 116 118
BRANCH 116 122
ATOM    122  CD2 LEU d   1       6.291  16.350   9.060  0.00  0.00    -0.073 C 
ATOM    123  H   LEU d   1       5.957  15.709   9.889  0.00  0.00     0.028 H 
ATOM    124  H   LEU d   1       6.532  15.725   8.187  0.00  0.00     0.028 H 
ATOM    125  H   LEU d   1       5.489  17.055   8.796  0.00  0.00     0.028 H 
ENDBRANCH 116 122
ENDBRANCH 113 116
ENDBRANCH  89 113
ENDBRANCH  86  89
ENDBRANCH   1  85
TORSDOF 32
