REMARK  14 active torsions:
REMARK  status: ('A' for Active; 'I' for Inactive)
REMARK       I    between atoms: C7_6  and  N1_1 
REMARK    1  A    between atoms: N1_1  and  C8_7 
REMARK    2  A    between atoms: C28_17  and  N3_2 
REMARK    3  A    between atoms: C4_3  and  O2_23 
REMARK    4  A    between atoms: C6_5  and  C7_6 
REMARK    5  A    between atoms: C15_10  and  C29_34 
REMARK    6  A    between atoms: C11_32  and  C17_11 
REMARK    7  A    between atoms: C20_12  and  C28_17 
REMARK    8  A    between atoms: C28_17  and  N2_26 
REMARK    9  A    between atoms: C25_20  and  N4_21 
REMARK   10  A    between atoms: O2_23  and  C9_24 
REMARK   11  A    between atoms: C9_24  and  C18_25 
REMARK   12  A    between atoms: O3_31  and  C2_29 
REMARK   13  A    between atoms: O3_31  and  C11_32 
REMARK   14  A    between atoms: C29_34  and  N5_35 
ROOT
ATOM      1  C4  NTX d   1      19.347   6.066  26.031  0.00  0.00     0.072 A 
ATOM      2  C5  NTX d   1      19.875   5.126  25.130  0.00  0.00    -0.035 A 
ATOM      3  C6  NTX d   1      19.049   4.637  24.110  0.00  0.00     0.037 A 
ATOM      4  C3  NTX d   1      18.010   6.509  25.886  0.00  0.00    -0.019 A 
ATOM      5  C2  NTX d   1      17.151   6.023  24.866  0.00  0.00     0.072 A 
ATOM      6  C1  NTX d   1      17.706   5.078  23.985  0.00  0.00    -0.035 A 
ATOM      7  H   NTX d   1      20.900   4.786  25.222  0.00  0.00     0.089 H 
ATOM      8  H   NTX d   1      17.628   7.248  26.581  0.00  0.00     0.092 H 
ATOM      9  H   NTX d   1      17.091   4.675  23.188  0.00  0.00     0.089 H 
ENDROOT
BRANCH   3  10
ATOM     10  C7  NTX d   1      19.585   3.654  23.107  0.00  0.00     0.252 C 
ATOM     11  N1  NTX d   1      20.568   2.773  23.355  0.00  0.00    -0.352 N 
ATOM     12  H   NTX d   1      20.990   2.719  24.260  0.00  0.00     0.163 HD
ATOM     13  O1  NTX d   1      19.095   3.731  21.998  0.00  0.00    -0.268 OA
BRANCH  11  14
ATOM     14  C8  NTX d   1      21.015   1.880  22.252  0.00  0.00     0.012 C 
ATOM     15  C23 NTX d   1      22.528   2.117  22.047  0.00  0.00    -0.044 C 
ATOM     16  C24 NTX d   1      23.201   1.013  21.234  0.00  0.00    -0.037 C 
ATOM     17  H   NTX d   1      23.011   2.170  23.034  0.00  0.00     0.036 H 
ATOM     18  H   NTX d   1      22.665   3.073  21.520  0.00  0.00     0.036 H 
ATOM     19  C25 NTX d   1      22.922  -0.315  21.927  0.00  0.00     0.100 C 
ATOM     20  H   NTX d   1      24.286   1.190  21.189  0.00  0.00     0.036 H 
ATOM     21  H   NTX d   1      22.789   0.996  20.214  0.00  0.00     0.036 H 
ATOM     22  C26 NTX d   1      21.436  -0.610  21.738  0.00  0.00    -0.037 C 
ATOM     23  H   NTX d   1      23.120  -0.200  23.003  0.00  0.00     0.083 H 
ATOM     24  C27 NTX d   1      20.676   0.411  22.599  0.00  0.00    -0.044 C 
ATOM     25  H   NTX d   1      21.206  -1.633  22.070  0.00  0.00     0.036 H 
ATOM     26  H   NTX d   1      21.158  -0.497  20.680  0.00  0.00     0.036 H 
ATOM     27  H   NTX d   1      19.597   0.258  22.451  0.00  0.00     0.036 H 
ATOM     28  H   NTX d   1      20.930   0.234  23.655  0.00  0.00     0.036 H 
ATOM     29  H   NTX d   1      20.485   2.148  21.326  0.00  0.00     0.072 H 
BRANCH  19  30
ATOM     30  N4  NTX d   1      23.783  -1.372  21.437  0.00  0.00    -0.075 N 
ATOM     31  H   NTX d   1      24.747  -1.119  21.590  0.00  0.00     0.274 HD
ATOM     32  H   NTX d   1      23.623  -1.506  20.451  0.00  0.00     0.274 HD
ATOM     33  H   NTX d   1      23.578  -2.227  21.929  0.00  0.00     0.274 HD
ENDBRANCH  19  30
ENDBRANCH  11  14
ENDBRANCH   3  10
BRANCH   1  34
ATOM     34  O2  NTX d   1      20.096   6.590  27.063  0.00  0.00    -0.347 OA
BRANCH  34  35
ATOM     35  C9  NTX d   1      21.366   6.139  27.595  0.00  0.00     0.050 C 
ATOM     36  H   NTX d   1      22.079   5.890  26.795  0.00  0.00     0.082 H 
ATOM     37  H   NTX d   1      21.245   5.272  28.261  0.00  0.00     0.082 H 
BRANCH  35  38
ATOM     38  C18 NTX d   1      21.785   7.379  28.356  0.00  0.00    -0.033 A 
ATOM     39  C10 NTX d   1      22.602   8.308  27.714  0.00  0.00    -0.075 A 
ATOM     40  C22 NTX d   1      22.971   9.477  28.382  0.00  0.00    -0.081 A 
ATOM     41  H   NTX d   1      22.948   8.124  26.703  0.00  0.00     0.084 H 
ATOM     42  C21 NTX d   1      22.518   9.717  29.676  0.00  0.00    -0.069 A 
ATOM     43  H   NTX d   1      23.612  10.200  27.891  0.00  0.00     0.083 H 
ATOM     44  C20 NTX d   1      21.676   8.805  30.319  0.00  0.00     0.007 A 
ATOM     45  H   NTX d   1      22.822  10.621  30.191  0.00  0.00     0.085 H 
ATOM     46  C19 NTX d   1      21.299   7.629  29.669  0.00  0.00    -0.061 A 
ATOM     47  H   NTX d   1      20.645   6.916  30.158  0.00  0.00     0.085 H 
BRANCH  44  48
ATOM     48  C28 NTX d   1      21.223   9.208  31.691  0.00  0.00     0.102 C 
BRANCH  48  49
ATOM     49  N3  NTX d   1      20.187   8.694  32.364  0.00  0.00    -0.385 N 
ATOM     50  H   NTX d   1      19.960   9.044  33.306  0.00  0.00     0.157 HD
ATOM     51  H   NTX d   1      19.617   7.948  31.940  0.00  0.00     0.157 HD
ENDBRANCH  48  49
BRANCH  48  52
ATOM     52  N2  NTX d   1      21.906  10.200  32.241  0.00  0.00    -0.385 N 
ATOM     53  H   NTX d   1      22.707  10.612  31.742  0.00  0.00     0.157 HD
ATOM     54  H   NTX d   1      21.636  10.560  33.168  0.00  0.00     0.157 HD
ENDBRANCH  48  52
ENDBRANCH  44  48
ENDBRANCH  35  38
ENDBRANCH  34  35
ENDBRANCH   1  34
BRANCH   5  55
ATOM     55  O3  NTX d   1      15.809   6.444  24.716  0.00  0.00    -0.347 OA
BRANCH  55  56
ATOM     56  C11 NTX d   1      15.154   7.413  25.580  0.00  0.00     0.050 C 
ATOM     57  H   NTX d   1      14.203   6.971  25.913  0.00  0.00     0.082 H 
ATOM     58  H   NTX d   1      15.807   7.576  26.450  0.00  0.00     0.082 H 
BRANCH  56  59
ATOM     59  C17 NTX d   1      14.837   8.791  24.975  0.00  0.00    -0.033 A 
ATOM     60  C16 NTX d   1      14.279   9.804  25.784  0.00  0.00    -0.061 A 
ATOM     61  C15 NTX d   1      13.978  11.069  25.232  0.00  0.00     0.007 A 
ATOM     62  H   NTX d   1      14.081   9.611  26.832  0.00  0.00     0.085 H 
ATOM     63  C14 NTX d   1      14.247  11.322  23.866  0.00  0.00    -0.069 A 
ATOM     64  C13 NTX d   1      14.791  10.320  23.052  0.00  0.00    -0.081 A 
ATOM     65  H   NTX d   1      14.031  12.298  23.447  0.00  0.00     0.085 H 
ATOM     66  C12 NTX d   1      15.088   9.064  23.616  0.00  0.00    -0.075 A 
ATOM     67  H   NTX d   1      14.981  10.509  22.002  0.00  0.00     0.083 H 
ATOM     68  H   NTX d   1      15.519   8.291  22.991  0.00  0.00     0.084 H 
BRANCH  61  69
ATOM     69  C29 NTX d   1      13.397  12.192  26.077  0.00  0.00     0.102 C 
ATOM     70  N6  NTX d   1      13.564  13.459  25.679  0.00  0.00    -0.385 N 
ATOM     71  H   NTX d   1      14.076  13.662  24.809  0.00  0.00     0.157 HD
ATOM     72  H   NTX d   1      13.181  14.231  26.243  0.00  0.00     0.157 HD
BRANCH  69  73
ATOM     73  N5  NTX d   1      12.721  11.999  27.219  0.00  0.00    -0.385 N 
ATOM     74  H   NTX d   1      12.354  12.806  27.743  0.00  0.00     0.157 HD
ATOM     75  H   NTX d   1      12.569  11.043  27.572  0.00  0.00     0.157 HD
ENDBRANCH  69  73
ENDBRANCH  61  69
ENDBRANCH  56  59
ENDBRANCH  55  56
ENDBRANCH   5  55
TORSDOF 14
