REMARK  12 active torsions:
REMARK  status: ('A' for Active; 'I' for Inactive)
REMARK       I    between atoms: C7_6  and  N1_1 
REMARK    1  A    between atoms: N1_1  and  C8_7 
REMARK    2  A    between atoms: C26_16  and  N3_2 
REMARK    3  A    between atoms: C4_3  and  O3_21 
REMARK    4  A    between atoms: C6_5  and  C7_6 
REMARK    5  A    between atoms: O3_21  and  C10_8 
REMARK    6  A    between atoms: C13_9  and  C27_33 
REMARK    7  A    between atoms: C18_23  and  C26_16 
REMARK    8  A    between atoms: C26_16  and  N4_24 
REMARK    9  A    between atoms: C23_18  and  N2_19 
REMARK   10  A    between atoms: O2_29  and  C2_27 
REMARK   11  A    between atoms: O2_29  and  C9_30 
REMARK   12  A    between atoms: C27_33  and  N5_34 
ROOT
ATOM      1  C4  NT4 d   1      16.650   7.680  23.788  0.00  0.00     0.079 A 
ATOM      2  C5  NT4 d   1      17.165   7.782  25.083  0.00  0.00    -0.035 A 
ATOM      3  C6  NT4 d   1      18.150   6.881  25.527  0.00  0.00     0.037 A 
ATOM      4  C3  NT4 d   1      17.039   6.663  22.976  0.00  0.00    -0.018 A 
ATOM      5  C2  NT4 d   1      17.995   5.763  23.384  0.00  0.00     0.079 A 
ATOM      6  C1  NT4 d   1      18.562   5.843  24.674  0.00  0.00    -0.035 A 
ATOM      7  H   NT4 d   1      16.804   8.558  25.748  0.00  0.00     0.089 H 
ATOM      8  H   NT4 d   1      16.590   6.560  21.995  0.00  0.00     0.092 H 
ATOM      9  H   NT4 d   1      19.300   5.119  25.000  0.00  0.00     0.089 H 
ENDROOT
BRANCH   3  10
ATOM     10  C7  NT4 d   1      18.720   7.103  26.918  0.00  0.00     0.252 C 
ATOM     11  N1  NT4 d   1      19.983   7.539  26.960  0.00  0.00    -0.352 N 
ATOM     12  H   NT4 d   1      20.414   7.700  26.072  0.00  0.00     0.163 HD
ATOM     13  O1  NT4 d   1      18.038   6.935  27.906  0.00  0.00    -0.268 OA
BRANCH  11  14
ATOM     14  C8  NT4 d   1      20.810   7.809  28.111  0.00  0.00     0.012 C 
ATOM     15  C21 NT4 d   1      21.946   8.680  27.609  0.00  0.00    -0.044 C 
ATOM     16  C22 NT4 d   1      22.971   9.022  28.699  0.00  0.00    -0.037 C 
ATOM     17  H   NT4 d   1      21.522   9.618  27.221  0.00  0.00     0.036 H 
ATOM     18  H   NT4 d   1      22.463   8.147  26.797  0.00  0.00     0.036 H 
ATOM     19  C23 NT4 d   1      22.207   9.824  29.731  0.00  0.00     0.100 C 
ATOM     20  H   NT4 d   1      23.794   9.619  28.280  0.00  0.00     0.036 H 
ATOM     21  H   NT4 d   1      23.376   8.103  29.148  0.00  0.00     0.036 H 
ATOM     22  C24 NT4 d   1      21.183   8.867  30.361  0.00  0.00    -0.037 C 
ATOM     23  H   NT4 d   1      21.657  10.624  29.214  0.00  0.00     0.083 H 
ATOM     24  C25 NT4 d   1      20.109   8.429  29.342  0.00  0.00    -0.044 C 
ATOM     25  H   NT4 d   1      20.690   9.376  31.202  0.00  0.00     0.036 H 
ATOM     26  H   NT4 d   1      21.709   7.974  30.730  0.00  0.00     0.036 H 
ATOM     27  H   NT4 d   1      19.445   7.683  29.803  0.00  0.00     0.036 H 
ATOM     28  H   NT4 d   1      19.518   9.303  29.029  0.00  0.00     0.036 H 
ATOM     29  H   NT4 d   1      21.230   6.849  28.447  0.00  0.00     0.072 H 
BRANCH  19  30
ATOM     30  N2  NT4 d   1      23.095  10.473  30.708  0.00  0.00    -0.075 N 
ATOM     31  H   NT4 d   1      23.736  11.083  30.226  0.00  0.00     0.274 HD
ATOM     32  H   NT4 d   1      23.613   9.769  31.210  0.00  0.00     0.274 HD
ATOM     33  H   NT4 d   1      22.544  11.011  31.358  0.00  0.00     0.274 HD
ENDBRANCH  19  30
ENDBRANCH  11  14
ENDBRANCH   3  10
BRANCH   1  34
ATOM     34  O3  NT4 d   1      15.687   8.463  23.254  0.00  0.00    -0.311 OA
BRANCH  34  35
ATOM     35  C10 NT4 d   1      15.071   9.466  23.968  0.00  0.00     0.076 A 
ATOM     36  C20 NT4 d   1      15.148  10.789  23.511  0.00  0.00    -0.049 A 
ATOM     37  C19 NT4 d   1      14.529  11.791  24.253  0.00  0.00    -0.067 A 
ATOM     38  H   NT4 d   1      15.680  11.027  22.597  0.00  0.00     0.087 H 
ATOM     39  C18 NT4 d   1      13.839  11.480  25.413  0.00  0.00     0.007 A 
ATOM     40  H   NT4 d   1      14.587  12.821  23.921  0.00  0.00     0.085 H 
ATOM     41  C17 NT4 d   1      13.738  10.136  25.836  0.00  0.00    -0.067 A 
ATOM     42  C16 NT4 d   1      14.377   9.135  25.116  0.00  0.00    -0.049 A 
ATOM     43  H   NT4 d   1      13.163   9.887  26.721  0.00  0.00     0.085 H 
ATOM     44  H   NT4 d   1      14.332   8.105  25.451  0.00  0.00     0.087 H 
BRANCH  39  45
ATOM     45  C26 NT4 d   1      13.096  12.525  26.215  0.00  0.00     0.102 C 
BRANCH  45  46
ATOM     46  N3  NT4 d   1      13.088  13.774  25.829  0.00  0.00    -0.385 N 
ATOM     47  H   NT4 d   1      12.580  14.480  26.380  0.00  0.00     0.157 HD
ATOM     48  H   NT4 d   1      13.590  14.052  24.974  0.00  0.00     0.157 HD
ENDBRANCH  45  46
BRANCH  45  49
ATOM     49  N4  NT4 d   1      12.319  12.176  27.237  0.00  0.00    -0.385 N 
ATOM     50  H   NT4 d   1      12.305  11.199  27.563  0.00  0.00     0.157 HD
ATOM     51  H   NT4 d   1      11.732  12.883  27.702  0.00  0.00     0.157 HD
ENDBRANCH  45  49
ENDBRANCH  39  45
ENDBRANCH  34  35
ENDBRANCH   1  34
BRANCH   5  52
ATOM     52  O2  NT4 d   1      18.210   4.838  22.371  0.00  0.00    -0.311 OA
BRANCH  52  53
ATOM     53  C9  NT4 d   1      19.326   4.162  22.085  0.00  0.00     0.076 A 
ATOM     54  C15 NT4 d   1      20.600   4.645  22.419  0.00  0.00    -0.049 A 
ATOM     55  C14 NT4 d   1      21.719   3.870  22.073  0.00  0.00    -0.067 A 
ATOM     56  H   NT4 d   1      20.718   5.593  22.931  0.00  0.00     0.087 H 
ATOM     57  C13 NT4 d   1      21.540   2.622  21.427  0.00  0.00     0.007 A 
ATOM     58  H   NT4 d   1      22.717   4.226  22.300  0.00  0.00     0.085 H 
ATOM     59  C12 NT4 d   1      20.236   2.161  21.114  0.00  0.00    -0.067 A 
ATOM     60  C11 NT4 d   1      19.127   2.940  21.436  0.00  0.00    -0.049 A 
ATOM     61  H   NT4 d   1      20.102   1.203  20.625  0.00  0.00     0.085 H 
ATOM     62  H   NT4 d   1      18.127   2.604  21.188  0.00  0.00     0.087 H 
BRANCH  57  63
ATOM     63  C27 NT4 d   1      22.731   1.735  21.082  0.00  0.00     0.102 C 
ATOM     64  N6  NT4 d   1      22.902   1.172  19.868  0.00  0.00    -0.385 N 
ATOM     65  H   NT4 d   1      22.231   1.366  19.111  0.00  0.00     0.157 HD
ATOM     66  H   NT4 d   1      23.703   0.548  19.698  0.00  0.00     0.157 HD
BRANCH  63  67
ATOM     67  N5  NT4 d   1      23.613   1.467  22.043  0.00  0.00    -0.385 N 
ATOM     68  H   NT4 d   1      24.428   0.871  21.842  0.00  0.00     0.157 HD
ATOM     69  H   NT4 d   1      23.480   1.856  22.987  0.00  0.00     0.157 HD
ENDBRANCH  63  67
ENDBRANCH  57  63
ENDBRANCH  52  53
ENDBRANCH   5  52
TORSDOF 12
