REMARK  27 active torsions:
REMARK  status: ('A' for Active; 'I' for Inactive)
REMARK    1  A    between atoms: N_1  and  CA_2 
REMARK    2  A    between atoms: CA_2  and  C_3 
REMARK    3  A    between atoms: CA_2  and  CB_5 
REMARK       I    between atoms: C_3  and  N_8 
REMARK    4  A    between atoms: CB_5  and  CG1_6 
REMARK    5  A    between atoms: CB_5  and  CG2_7 
REMARK    6  A    between atoms: N_8  and  CA_9 
REMARK    7  A    between atoms: CA_9  and  C_10 
REMARK    8  A    between atoms: CA_9  and  CB_12 
REMARK       I    between atoms: C_10  and  N_16 
REMARK    9  A    between atoms: CB_12  and  CG_13 
REMARK   10  A    between atoms: CG_13  and  CD1_14 
REMARK   11  A    between atoms: CG_13  and  CD2_15 
REMARK   12  A    between atoms: N_16  and  CA_17 
REMARK   13  A    between atoms: CA_17  and  C_18 
REMARK   14  A    between atoms: CA_17  and  CB_20 
REMARK       I    between atoms: C_18  and  N_22 
REMARK   15  A    between atoms: CB_20  and  OG_21 
REMARK   16  A    between atoms: N_22  and  CA_23 
REMARK   17  A    between atoms: CA_23  and  CB_24 
REMARK   18  A    between atoms: CA_23  and  C_31 
REMARK   19  A    between atoms: CB_24  and  CG2_25 
REMARK   20  A    between atoms: CB_24  and  OG1_26 
REMARK   21  A    between atoms: OG1_26  and  P_27 
REMARK       I    between atoms: C_31  and  N_33 
REMARK   22  A    between atoms: N_33  and  CA_34 
REMARK   23  A    between atoms: CA_34  and  C_35 
REMARK   24  A    between atoms: CA_34  and  CB_37 
REMARK       I    between atoms: C_35  and  N_41 
REMARK   25  A    between atoms: CB_37  and  CG_38 
REMARK   26  A    between atoms: CG_38  and  CD1_39 
REMARK   27  A    between atoms: CG_38  and  CD2_40 
ROOT
ATOM      1  CA  SER d   1       1.143  11.064  13.204  0.00  0.00     0.109 C 
ATOM      2  H   SER d   1       2.130  11.210  12.741  0.00  0.00     0.090 H 
ENDROOT
BRANCH   1   3
ATOM      3  N   SER d   1       1.167  11.635  14.542  0.00  0.00    -0.344 N 
ATOM      4  C   LEU d   1       1.669  12.843  14.760  0.00  0.00     0.241 C 
ATOM      5  O   LEU d   1       2.337  13.458  13.929  0.00  0.00    -0.271 OA
ATOM      6  H   SER d   1       0.799  11.109  15.309  0.00  0.00     0.163 HD
BRANCH   4   7
ATOM      7  CA  LEU d   1       1.330  13.475  16.090  0.00  0.00     0.089 C 
ATOM      8  H   LEU d   1       1.337  12.722  16.892  0.00  0.00     0.087 H 
BRANCH   7   9
ATOM      9  N   LEU d   1       2.305  14.516  16.372  0.00  0.00    -0.346 N 
ATOM     10  C   VAL d   1       3.005  14.552  17.499  0.00  0.00     0.249 C 
ATOM     11  O   VAL d   1       2.962  13.645  18.337  0.00  0.00    -0.271 OA
ATOM     12  H   LEU d   1       2.454  15.232  15.691  0.00  0.00     0.163 HD
BRANCH  10  13
ATOM     13  CA  VAL d   1       3.847  15.823  17.733  0.00  0.00     0.178 C 
ATOM     14  H   VAL d   1       3.216  16.681  17.456  0.00  0.00     0.099 H 
BRANCH  13  15
ATOM     15  N   VAL d   1       4.194  15.978  19.140  0.00  0.00    -0.066 N 
ATOM     16  H   VAL d   1       3.356  15.937  19.699  0.00  0.00     0.275 HD
ATOM     17  H   VAL d   1       4.647  16.868  19.278  0.00  0.00     0.275 HD
ATOM     18  H   VAL d   1       4.819  15.236  19.416  0.00  0.00     0.275 HD
ENDBRANCH  13  15
BRANCH  13  19
ATOM     19  CB  VAL d   1       5.112  15.880  16.831  0.00  0.00    -0.025 C 
ATOM     20  H   VAL d   1       5.750  16.694  17.206  0.00  0.00     0.042 H 
BRANCH  19  21
ATOM     21  CG1 VAL d   1       5.912  14.595  16.919  0.00  0.00    -0.071 C 
ATOM     22  H   VAL d   1       6.797  14.669  16.270  0.00  0.00     0.028 H 
ATOM     23  H   VAL d   1       5.287  13.751  16.591  0.00  0.00     0.028 H 
ATOM     24  H   VAL d   1       6.232  14.433  17.959  0.00  0.00     0.028 H 
ENDBRANCH  19  21
BRANCH  19  25
ATOM     25  CG2 VAL d   1       4.753  16.206  15.389  0.00  0.00    -0.071 C 
ATOM     26  H   VAL d   1       4.175  17.141  15.358  0.00  0.00     0.028 H 
ATOM     27  H   VAL d   1       4.151  15.388  14.967  0.00  0.00     0.028 H 
ATOM     28  H   VAL d   1       5.674  16.325  14.800  0.00  0.00     0.028 H 
ENDBRANCH  19  25
ENDBRANCH  13  19
ENDBRANCH  10  13
ENDBRANCH   7   9
BRANCH   7  29
ATOM     29  CB  LEU d   1      -0.065  14.095  15.950  0.00  0.00    -0.035 C 
ATOM     30  H   LEU d   1      -0.785  13.264  15.931  0.00  0.00     0.037 H 
ATOM     31  H   LEU d   1      -0.087  14.621  14.984  0.00  0.00     0.037 H 
BRANCH  29  32
ATOM     32  CG  LEU d   1      -0.552  15.081  17.004  0.00  0.00    -0.059 C 
ATOM     33  H   LEU d   1       0.240  15.812  17.225  0.00  0.00     0.038 H 
BRANCH  32  34
ATOM     34  CD1 LEU d   1      -1.765  15.793  16.477  0.00  0.00    -0.073 C 
ATOM     35  H   LEU d   1      -2.126  16.509  17.230  0.00  0.00     0.028 H 
ATOM     36  H   LEU d   1      -2.555  15.059  16.260  0.00  0.00     0.028 H 
ATOM     37  H   LEU d   1      -1.502  16.333  15.555  0.00  0.00     0.028 H 
ENDBRANCH  32  34
BRANCH  32  38
ATOM     38  CD2 LEU d   1      -0.907  14.336  18.247  0.00  0.00    -0.073 C 
ATOM     39  H   LEU d   1      -0.016  13.816  18.630  0.00  0.00     0.028 H 
ATOM     40  H   LEU d   1      -1.693  13.600  18.022  0.00  0.00     0.028 H 
ATOM     41  H   LEU d   1      -1.274  15.043  19.006  0.00  0.00     0.028 H 
ENDBRANCH  32  38
ENDBRANCH  29  32
ENDBRANCH   7  29
ENDBRANCH   4   7
ENDBRANCH   1   3
BRANCH   1  42
ATOM     42  C   SER d   1       0.100  11.822  12.387  0.00  0.00     0.243 C 
ATOM     43  O   SER d   1      -0.498  12.786  12.882  0.00  0.00    -0.271 OA
ATOM     44  N   TPO d   1      -0.107  11.395  11.144  0.00  0.00    -0.344 N 
ATOM     45  H   TPO d   1       0.316  10.536  10.856  0.00  0.00     0.163 HD
BRANCH  44  46
ATOM     46  CA  TPO d   1      -0.928  12.130  10.179  0.00  0.00     0.114 C 
ATOM     47  H   TPO d   1      -0.502  13.140  10.085  0.00  0.00     0.091 H 
BRANCH  46  48
ATOM     48  CB  TPO d   1      -0.840  11.451   8.802  0.00  0.00     0.076 C 
ATOM     49  H   TPO d   1      -1.144  10.395   8.859  0.00  0.00     0.087 H 
BRANCH  48  50
ATOM     50  CG2 TPO d   1      -1.716  12.214   7.811  0.00  0.00    -0.049 C 
ATOM     51  H   TPO d   1      -1.657  11.733   6.824  0.00  0.00     0.031 H 
ATOM     52  H   TPO d   1      -1.363  13.253   7.734  0.00  0.00     0.031 H 
ATOM     53  H   TPO d   1      -2.759  12.206   8.161  0.00  0.00     0.031 H 
ENDBRANCH  48  50
BRANCH  48  54
ATOM     54  OG1 TPO d   1       0.518  11.580   8.387  0.00  0.00    -0.275 OA
BRANCH  54  55
ATOM     55  P   TPO d   1       1.341  10.182   8.308  0.00  0.00     0.422 P 
ATOM     56  O1P TPO d   1       2.682  10.630   7.865  0.00  0.00    -0.617 OA
ATOM     57  O2P TPO d   1       1.375   9.476   9.746  0.00  0.00    -0.617 OA
ATOM     58  O3P TPO d   1       0.641   9.245   7.207  0.00  0.00    -0.617 OA
ENDBRANCH  54  55
ENDBRANCH  48  54
ENDBRANCH  46  48
BRANCH  46  59
ATOM     59  C   TPO d   1      -2.383  12.294  10.628  0.00  0.00     0.243 C 
ATOM     60  O   TPO d   1      -3.026  11.330  11.078  0.00  0.00    -0.271 OA
ATOM     61  N   LEU d   1      -2.882  13.528  10.543  0.00  0.00    -0.346 N 
ATOM     62  H   LEU d   1      -2.317  14.265  10.172  0.00  0.00     0.163 HD
BRANCH  61  63
ATOM     63  CA  LEU d   1      -4.247  13.817  10.986  0.00  0.00     0.089 C 
ATOM     64  H   LEU d   1      -4.396  13.354  11.973  0.00  0.00     0.087 H 
BRANCH  63  65
ATOM     65  C   LEU d   1      -5.257  13.237  10.017  0.00  0.00     0.238 C 
ATOM     66  O   LEU d   1      -4.986  13.136   8.814  0.00  0.00    -0.271 OA
ATOM     67  N   NH2 d   1      -6.416  12.849  10.542  0.00  0.00    -0.368 N 
ATOM     68  H   NH2 d   1      -7.125  12.458   9.955  0.00  0.00     0.159 HD
ATOM     69  H   NH2 d   1      -6.579  12.949  11.524  0.00  0.00     0.159 HD
ENDBRANCH  63  65
BRANCH  63  70
ATOM     70  CB  LEU d   1      -4.486  15.323  11.110  0.00  0.00    -0.035 C 
ATOM     71  H   LEU d   1      -5.501  15.460  11.511  0.00  0.00     0.037 H 
ATOM     72  H   LEU d   1      -4.432  15.746  10.096  0.00  0.00     0.037 H 
BRANCH  70  73
ATOM     73  CG  LEU d   1      -3.543  16.133  11.987  0.00  0.00    -0.059 C 
ATOM     74  H   LEU d   1      -2.598  16.282  11.445  0.00  0.00     0.038 H 
BRANCH  73  75
ATOM     75  CD1 LEU d   1      -4.160  17.491  12.279  0.00  0.00    -0.073 C 
ATOM     76  H   LEU d   1      -3.477  18.075  12.913  0.00  0.00     0.028 H 
ATOM     77  H   LEU d   1      -5.118  17.354  12.802  0.00  0.00     0.028 H 
ATOM     78  H   LEU d   1      -4.331  18.027  11.334  0.00  0.00     0.028 H 
ENDBRANCH  73  75
BRANCH  73  79
ATOM     79  CD2 LEU d   1      -3.250  15.409  13.262  0.00  0.00    -0.073 C 
ATOM     80  H   LEU d   1      -2.804  14.430  13.033  0.00  0.00     0.028 H 
ATOM     81  H   LEU d   1      -4.184  15.265  13.825  0.00  0.00     0.028 H 
ATOM     82  H   LEU d   1      -2.546  16.000  13.866  0.00  0.00     0.028 H 
ENDBRANCH  73  79
ENDBRANCH  70  73
ENDBRANCH  63  70
ENDBRANCH  61  63
ENDBRANCH  46  59
ENDBRANCH  44  46
ENDBRANCH   1  42
BRANCH   1  83
ATOM     83  CB  SER d   1       0.852   9.563  13.230  0.00  0.00     0.044 C 
ATOM     84  H   SER d   1       1.654   9.059  13.790  0.00  0.00     0.077 H 
ATOM     85  H   SER d   1       0.837   9.190  12.195  0.00  0.00     0.077 H 
BRANCH  83  86
ATOM     86  OG  SER d   1      -0.396   9.253  13.844  0.00  0.00    -0.398 OA
ATOM     87  H   SER d   1      -1.098   9.677  13.364  0.00  0.00     0.209 HD
ENDBRANCH  83  86
ENDBRANCH   1  83
TORSDOF 27
