REMARK  8 active torsions:
REMARK  status: ('A' for Active; 'I' for Inactive)
REMARK    1  A    between atoms: O3A_8  and  PB_1 
REMARK    2  A    between atoms: PA_5  and  O3A_8 
REMARK    3  A    between atoms: PA_5  and  O5'_9 
REMARK    4  A    between atoms: O5'_9  and  C5'_10 
REMARK    5  A    between atoms: C5'_10  and  C4'_11 
REMARK    6  A    between atoms: C3'_13  and  O3'_14 
REMARK    7  A    between atoms: C2'_15  and  O2'_16 
REMARK    8  A    between atoms: C1'_17  and  N9_18 
ROOT
ATOM      1  C4' ADP d   1      79.311 -15.927   6.436  0.00  0.00     0.089 C 
ATOM      2  O4' ADP d   1      79.383 -15.987   7.862  0.00  0.00    -0.353 OA
ATOM      3  C3' ADP d   1      78.808 -17.280   5.958  0.00  0.00     0.091 C 
ATOM      4  C2' ADP d   1      78.328 -17.978   7.218  0.00  0.00     0.105 C 
ATOM      5  C1' ADP d   1      79.220 -17.343   8.272  0.00  0.00     0.139 C 
ATOM      6  H   ADP d   1      80.310 -15.743   6.014  0.00  0.00     0.090 H 
ATOM      7  H   ADP d   1      77.988 -17.169   5.233  0.00  0.00     0.091 H 
ATOM      8  H   ADP d   1      77.264 -17.775   7.409  0.00  0.00     0.093 H 
ATOM      9  H   ADP d   1      80.189 -17.864   8.252  0.00  0.00     0.122 H 
ENDROOT
BRANCH   5  10
ATOM     10  N9  ADP d   1      78.753 -17.327   9.676  0.00  0.00    -0.294 N 
ATOM     11  C8  ADP d   1      77.627 -16.802  10.205  0.00  0.00     0.071 A 
ATOM     12  N7  ADP d   1      77.625 -16.972  11.557  0.00  0.00    -0.236 NA
ATOM     13  H   ADP d   1      76.837 -16.315   9.635  0.00  0.00     0.144 H 
ATOM     14  C5  ADP d   1      78.775 -17.597  11.886  0.00  0.00     0.149 A 
ATOM     15  C6  ADP d   1      79.417 -18.076  13.123  0.00  0.00     0.155 A 
ATOM     16  C4  ADP d   1      79.506 -17.820  10.643  0.00  0.00     0.167 A 
ATOM     17  N6  ADP d   1      78.812 -17.921  14.322  0.00  0.00    -0.382 N 
ATOM     18  N1  ADP d   1      80.618 -18.674  13.010  0.00  0.00    -0.222 NA
ATOM     19  H   ADP d   1      79.272 -18.261  15.179  0.00  0.00     0.157 HD
ATOM     20  H   ADP d   1      77.891 -17.463  14.379  0.00  0.00     0.157 HD
ATOM     21  C2  ADP d   1      81.242 -18.832  11.818  0.00  0.00     0.091 A 
ATOM     22  N3  ADP d   1      80.712 -18.431  10.655  0.00  0.00    -0.222 NA
ATOM     23  H   ADP d   1      82.217 -19.306  11.805  0.00  0.00     0.146 H 
ENDBRANCH   5  10
BRANCH   4  24
ATOM     24  O2' ADP d   1      78.545 -19.390   7.163  0.00  0.00    -0.388 OA
ATOM     25  H   ADP d   1      78.072 -19.753   6.423  0.00  0.00     0.210 HD
ENDBRANCH   4  24
BRANCH   1  26
ATOM     26  C5' ADP d   1      78.397 -14.781   6.050  0.00  0.00     0.058 C 
ATOM     27  H   ADP d   1      78.217 -14.786   4.965  0.00  0.00     0.079 H 
ATOM     28  H   ADP d   1      77.437 -14.864   6.581  0.00  0.00     0.079 H 
BRANCH  26  29
ATOM     29  O5' ADP d   1      79.068 -13.593   6.431  0.00  0.00    -0.287 OA
BRANCH  29  30
ATOM     30  PA  ADP d   1      78.252 -12.345   7.008  0.00  0.00     0.418 P 
ATOM     31  O1A ADP d   1      79.044 -11.710   8.131  0.00  0.00    -0.624 OA
ATOM     32  O2A ADP d   1      76.804 -12.731   7.188  0.00  0.00    -0.624 OA
BRANCH  30  33
ATOM     33  O3A ADP d   1      78.401 -11.364   5.739  0.00  0.00    -0.173 OA
BRANCH  33  34
ATOM     34  PB  ADP d   1      77.425 -11.318   4.460  0.00  0.00     0.431 P 
ATOM     35  O1B ADP d   1      78.388 -10.980   3.335  0.00  0.00    -0.616 OA
ATOM     36  O2B ADP d   1      76.451 -10.201   4.804  0.00  0.00    -0.616 OA
ATOM     37  O3B ADP d   1      76.786 -12.672   4.361  0.00  0.00    -0.616 OA
ENDBRANCH  33  34
ENDBRANCH  30  33
ENDBRANCH  29  30
ENDBRANCH  26  29
ENDBRANCH   1  26
BRANCH   3  38
ATOM     38  O3' ADP d   1      79.903 -17.998   5.361  0.00  0.00    -0.390 OA
ATOM     39  H   ADP d   1      80.242 -17.502   4.625  0.00  0.00     0.210 HD
ENDBRANCH   3  38
TORSDOF 8
