REMARK  6 active torsions:
REMARK  status: ('A' for Active; 'I' for Inactive)
REMARK    1  A    between atoms: N_1  and  CA_2 
REMARK    2  A    between atoms: CA_2  and  CB_3 
REMARK    3  A    between atoms: CA_2  and  C_4 
REMARK       I    between atoms: C_4  and  N_6 
REMARK    4  A    between atoms: N_6  and  CA_7 
REMARK    5  A    between atoms: CA_7  and  CB_8 
REMARK    6  A    between atoms: CA_7  and  C_9 
ROOT
ATOM      1  C   DAL d   1     -45.368   3.902 -31.868  0.00  0.00     0.248 C 
ATOM      2  O   DAL d   1     -44.460   3.428 -31.186  0.00  0.00    -0.271 OA
ATOM      3  N   DAL d   1     -46.003   4.988 -31.512  0.00  0.00    -0.345 N 
ATOM      4  H   DAL d   1     -46.904   5.224 -31.875  0.00  0.00     0.163 HD
ENDROOT
BRANCH   1   5
ATOM      5  CA  DAL d   1     -46.053   3.063 -32.938  0.00  0.00     0.172 C 
ATOM      6  H   DAL d   1     -47.124   3.316 -32.946  0.00  0.00     0.098 H 
BRANCH   5   7
ATOM      7  N   DAL d   1     -45.915   1.644 -32.635  0.00  0.00    -0.067 N 
ATOM      8  H   DAL d   1     -46.373   1.102 -33.351  0.00  0.00     0.275 HD
ATOM      9  H   DAL d   1     -46.340   1.448 -31.742  0.00  0.00     0.275 HD
ATOM     10  H   DAL d   1     -44.937   1.401 -32.603  0.00  0.00     0.275 HD
ENDBRANCH   5   7
BRANCH   5  11
ATOM     11  CB  DAL d   1     -45.475   3.372 -34.310  0.00  0.00    -0.042 C 
ATOM     12  H   DAL d   1     -45.587   4.446 -34.522  0.00  0.00     0.030 H 
ATOM     13  H   DAL d   1     -46.011   2.789 -35.074  0.00  0.00     0.030 H 
ATOM     14  H   DAL d   1     -44.408   3.105 -34.327  0.00  0.00     0.030 H 
ENDBRANCH   5  11
ENDBRANCH   1   5
BRANCH   3  15
ATOM     15  CA  DAL d   1     -45.302   5.833 -30.546  0.00  0.00     0.093 C 
ATOM     16  H   DAL d   1     -45.072   5.242 -29.647  0.00  0.00     0.089 H 
BRANCH  15  17
ATOM     17  CB  DAL d   1     -46.296   6.931 -30.206  0.00  0.00    -0.048 C 
ATOM     18  H   DAL d   1     -45.846   7.620 -29.477  0.00  0.00     0.030 H 
ATOM     19  H   DAL d   1     -47.204   6.483 -29.776  0.00  0.00     0.030 H 
ATOM     20  H   DAL d   1     -46.558   7.484 -31.120  0.00  0.00     0.030 H 
ENDBRANCH  15  17
BRANCH  15  21
ATOM     21  C   DAL d   1     -43.999   6.431 -31.064  0.00  0.00     0.196 C 
ATOM     22  O   DAL d   1     -43.821   6.618 -32.269  0.00  0.00    -0.646 OA
ATOM     23  OXT DAL d   1     -43.096   6.743 -30.290  0.00  0.00    -0.646 OA
ENDBRANCH  15  21
ENDBRANCH   3  15
TORSDOF 6
