REMARK  10 active torsions:
REMARK  status: ('A' for Active; 'I' for Inactive)
REMARK    1  A    between atoms: CBB_3  and  CAV_4 
REMARK    2  A    between atoms: CBB_3  and  NAT_7 
REMARK       I    between atoms: NAT_7  and  CAW_8 
REMARK       I    between atoms: CAW_8  and  N_10 
REMARK    3  A    between atoms: N_10  and  CA_11 
REMARK    4  A    between atoms: CA_11  and  C_12 
REMARK    5  A    between atoms: CA_11  and  CB_15 
REMARK    6  A    between atoms: CB_15  and  CAM_16 
REMARK    7  A    between atoms: CAM_16  and  CAL_17 
REMARK    8  A    between atoms: CAL_17  and  CAN_18 
REMARK    9  A    between atoms: CAN_18  and  NAR_19 
REMARK       I    between atoms: NAR_19  and  CAX_20 
REMARK   10  A    between atoms: CAX_20  and  CAZ_22 
ROOT
ATOM      1  CB  2R7 d   1      20.999  45.315  43.335  0.00  0.00    -0.036 C 
ATOM      2  H   2R7 d   1      20.709  46.364  43.173  0.00  0.00     0.036 H 
ATOM      3  H   2R7 d   1      20.880  44.753  42.397  0.00  0.00     0.036 H 
ENDROOT
BRANCH   1   4
ATOM      4  CA  2R7 d   1      19.971  44.707  44.371  0.00  0.00     0.098 C 
ATOM      5  H   2R7 d   1      20.053  43.615  44.474  0.00  0.00     0.089 H 
BRANCH   4   6
ATOM      6  N   2R7 d   1      18.720  45.150  43.800  0.00  0.00    -0.329 N 
ATOM      7  CAW 2R7 d   1      18.074  44.597  42.760  0.00  0.00     0.317 C 
ATOM      8  NAT 2R7 d   1      16.950  45.259  42.369  0.00  0.00    -0.324 N 
ATOM      9  OAC 2R7 d   1      18.424  43.510  42.271  0.00  0.00    -0.247 OA
ATOM     10  H   2R7 d   1      16.636  46.035  42.916  0.00  0.00     0.165 HD
ATOM     11  H   2R7 d   1      18.292  45.949  44.222  0.00  0.00     0.165 HD
BRANCH   8  12
ATOM     12  CBB 2R7 d   1      16.167  44.873  41.156  0.00  0.00     0.123 A 
ATOM     13  CAP 2R7 d   1      15.297  43.663  41.387  0.00  0.00    -0.029 A 
ATOM     14  CAQ 2R7 d   1      14.750  45.058  41.155  0.00  0.00    -0.029 A 
ATOM     15  H   2R7 d   1      15.200  42.888  40.613  0.00  0.00     0.037 H 
ATOM     16  H   2R7 d   1      15.239  43.197  42.382  0.00  0.00     0.037 H 
ATOM     17  H   2R7 d   1      14.270  45.601  41.983  0.00  0.00     0.037 H 
ATOM     18  H   2R7 d   1      14.231  45.291  40.214  0.00  0.00     0.037 H 
BRANCH  12  19
ATOM     19  CAV 2R7 d   1      17.099  44.722  40.065  0.00  0.00     0.202 C 
ATOM     20  OAF 2R7 d   1      16.808  43.855  39.195  0.00  0.00    -0.646 OA
ATOM     21  OAB 2R7 d   1      18.102  45.451  40.041  0.00  0.00    -0.646 OA
ENDBRANCH  12  19
ENDBRANCH   8  12
ENDBRANCH   4   6
BRANCH   4  22
ATOM     22  C   2R7 d   1      20.115  45.436  45.736  0.00  0.00     0.196 C 
ATOM     23  OXT 2R7 d   1      20.664  44.728  46.637  0.00  0.00    -0.646 OA
ATOM     24  O   2R7 d   1      19.671  46.655  45.823  0.00  0.00    -0.646 OA
ENDBRANCH   4  22
ENDBRANCH   1   4
BRANCH   1  25
ATOM     25  CAM 2R7 d   1      22.493  45.311  43.672  0.00  0.00    -0.061 C 
ATOM     26  H   2R7 d   1      22.834  44.276  43.820  0.00  0.00     0.033 H 
ATOM     27  H   2R7 d   1      22.664  45.889  44.592  0.00  0.00     0.033 H 
BRANCH  25  28
ATOM     28  CAL 2R7 d   1      23.289  45.960  42.491  0.00  0.00    -0.050 C 
ATOM     29  H   2R7 d   1      22.736  45.778  41.557  0.00  0.00     0.035 H 
ATOM     30  H   2R7 d   1      24.277  45.480  42.432  0.00  0.00     0.035 H 
BRANCH  28  31
ATOM     31  CAN 2R7 d   1      23.496  47.496  42.650  0.00  0.00    -0.004 C 
ATOM     32  H   2R7 d   1      22.617  48.015  42.240  0.00  0.00     0.064 H 
ATOM     33  H   2R7 d   1      24.393  47.792  42.086  0.00  0.00     0.064 H 
BRANCH  31  34
ATOM     34  NAR 2R7 d   1      23.670  47.902  44.075  0.00  0.00    -0.357 N 
ATOM     35  CAX 2R7 d   1      23.219  49.061  44.592  0.00  0.00     0.251 C 
ATOM     36  OAD 2R7 d   1      22.578  49.873  43.910  0.00  0.00    -0.268 OA
ATOM     37  H   2R7 d   1      24.152  47.273  44.685  0.00  0.00     0.162 HD
BRANCH  35  38
ATOM     38  CAZ 2R7 d   1      23.359  49.283  46.142  0.00  0.00     0.032 A 
ATOM     39  CAJ 2R7 d   1      23.368  50.589  46.686  0.00  0.00    -0.067 A 
ATOM     40  CAH 2R7 d   1      23.466  50.809  48.084  0.00  0.00    -0.066 A 
ATOM     41  H   2R7 d   1      23.298  51.441  46.019  0.00  0.00     0.085 H 
ATOM     42  CAY 2R7 d   1      23.535  49.762  49.018  0.00  0.00     0.006 A 
ATOM     43  H   2R7 d   1      23.489  51.830  48.447  0.00  0.00     0.085 H 
ATOM     44  IAG 2R7 d   1      23.663  50.140  51.187  0.00  0.00    -0.045 I 
ATOM     45  CAI 2R7 d   1      23.513  48.464  48.471  0.00  0.00    -0.066 A 
ATOM     46  CAK 2R7 d   1      23.422  48.222  47.068  0.00  0.00    -0.067 A 
ATOM     47  H   2R7 d   1      23.567  47.615  49.143  0.00  0.00     0.085 H 
ATOM     48  H   2R7 d   1      23.401  47.200  46.706  0.00  0.00     0.085 H 
ENDBRANCH  35  38
ENDBRANCH  31  34
ENDBRANCH  28  31
ENDBRANCH  25  28
ENDBRANCH   1  25
TORSDOF 10
