REMARK  12 active torsions:
REMARK  status: ('A' for Active; 'I' for Inactive)
REMARK    1  A    between atoms: CBB_3  and  CAQ_4 
REMARK    2  A    between atoms: CAQ_4  and  CBD_5 
REMARK    3  A    between atoms: CBD_5  and  CAW_6 
REMARK    4  A    between atoms: CBD_5  and  NAT_9 
REMARK       I    between atoms: NAT_9  and  CAX_10 
REMARK       I    between atoms: CAX_10  and  N_12 
REMARK    5  A    between atoms: N_12  and  CA_13 
REMARK    6  A    between atoms: CA_13  and  C_14 
REMARK    7  A    between atoms: CA_13  and  CB_17 
REMARK    8  A    between atoms: CB_17  and  CAM_18 
REMARK    9  A    between atoms: CAM_18  and  CAL_19 
REMARK   10  A    between atoms: CAL_19  and  CAN_20 
REMARK   11  A    between atoms: CAN_20  and  NAR_21 
REMARK       I    between atoms: NAR_21  and  CAY_22 
REMARK   12  A    between atoms: CAY_22  and  CBA_24 
ROOT
ATOM      1  CB  2QS d   1      21.079  46.110  43.181  0.00  0.00    -0.036 C 
ATOM      2  H   2QS d   1      20.704  47.084  42.835  0.00  0.00     0.036 H 
ATOM      3  H   2QS d   1      21.279  45.464  42.313  0.00  0.00     0.036 H 
ENDROOT
BRANCH   1   4
ATOM      4  CA  2QS d   1      20.023  45.446  44.081  0.00  0.00     0.098 C 
ATOM      5  H   2QS d   1      20.168  44.356  44.108  0.00  0.00     0.089 H 
BRANCH   4   6
ATOM      6  N   2QS d   1      18.694  45.775  43.564  0.00  0.00    -0.329 N 
ATOM      7  CAX 2QS d   1      18.030  45.070  42.660  0.00  0.00     0.317 C 
ATOM      8  NAT 2QS d   1      16.847  45.596  42.369  0.00  0.00    -0.328 N 
ATOM      9  OAC 2QS d   1      18.458  44.045  42.108  0.00  0.00    -0.247 OA
ATOM     10  H   2QS d   1      16.570  46.405  42.888  0.00  0.00     0.165 HD
ATOM     11  H   2QS d   1      18.252  46.598  43.922  0.00  0.00     0.165 HD
BRANCH   8  12
ATOM     12  CBD 2QS d   1      15.904  45.101  41.354  0.00  0.00     0.100 C 
ATOM     13  H   2QS d   1      15.476  44.114  41.581  0.00  0.00     0.089 H 
BRANCH  12  14
ATOM     14  CAQ 2QS d   1      14.801  46.232  41.446  0.00  0.00    -0.011 C 
ATOM     15  H   2QS d   1      14.556  46.303  42.516  0.00  0.00     0.040 H 
ATOM     16  H   2QS d   1      15.310  47.152  41.125  0.00  0.00     0.040 H 
BRANCH  14  17
ATOM     17  CBB 2QS d   1      13.395  46.258  40.699  0.00  0.00     0.061 A 
ATOM     18  CAP 2QS d   1      12.956  47.640  40.700  0.00  0.00     0.044 A 
ATOM     19  OAU 2QS d   1      13.196  47.075  39.466  0.00  0.00    -0.381 OA
ATOM     20  H   2QS d   1      11.923  47.878  40.993  0.00  0.00     0.078 H 
ATOM     21  H   2QS d   1      13.633  48.421  41.077  0.00  0.00     0.078 H 
ATOM     22  H   2QS d   1      12.774  45.374  40.908  0.00  0.00     0.086 H 
ENDBRANCH  14  17
ENDBRANCH  12  14
BRANCH  12  23
ATOM     23  CAW 2QS d   1      16.761  45.029  40.078  0.00  0.00     0.196 C 
ATOM     24  OAF 2QS d   1      17.604  45.934  39.908  0.00  0.00    -0.646 OA
ATOM     25  OAB 2QS d   1      16.676  44.007  39.343  0.00  0.00    -0.646 OA
ENDBRANCH  12  23
ENDBRANCH   8  12
ENDBRANCH   4   6
BRANCH   4  26
ATOM     26  C   2QS d   1      20.150  46.043  45.482  0.00  0.00     0.196 C 
ATOM     27  OXT 2QS d   1      20.707  45.324  46.340  0.00  0.00    -0.646 OA
ATOM     28  O   2QS d   1      19.707  47.208  45.674  0.00  0.00    -0.646 OA
ENDBRANCH   4  26
ENDBRANCH   1   4
BRANCH   1  29
ATOM     29  CAM 2QS d   1      22.367  46.313  43.969  0.00  0.00    -0.061 C 
ATOM     30  H   2QS d   1      22.685  45.347  44.389  0.00  0.00     0.033 H 
ATOM     31  H   2QS d   1      22.177  47.023  44.787  0.00  0.00     0.033 H 
BRANCH  29  32
ATOM     32  CAL 2QS d   1      23.495  46.866  43.080  0.00  0.00    -0.050 C 
ATOM     33  H   2QS d   1      23.200  46.792  42.023  0.00  0.00     0.035 H 
ATOM     34  H   2QS d   1      24.414  46.284  43.246  0.00  0.00     0.035 H 
BRANCH  32  35
ATOM     35  CAN 2QS d   1      23.747  48.341  43.442  0.00  0.00    -0.004 C 
ATOM     36  H   2QS d   1      22.966  48.964  42.982  0.00  0.00     0.064 H 
ATOM     37  H   2QS d   1      24.732  48.644  43.056  0.00  0.00     0.064 H 
BRANCH  35  38
ATOM     38  NAR 2QS d   1      23.720  48.535  44.911  0.00  0.00    -0.357 N 
ATOM     39  CAY 2QS d   1      23.328  49.683  45.468  0.00  0.00     0.251 C 
ATOM     40  OAD 2QS d   1      22.864  50.630  44.841  0.00  0.00    -0.268 OA
ATOM     41  H   2QS d   1      24.005  47.782  45.504  0.00  0.00     0.162 HD
BRANCH  39  42
ATOM     42  CBA 2QS d   1      23.314  49.718  46.995  0.00  0.00     0.032 A 
ATOM     43  CAJ 2QS d   1      23.650  50.865  47.709  0.00  0.00    -0.067 A 
ATOM     44  CAH 2QS d   1      23.597  50.859  49.103  0.00  0.00    -0.066 A 
ATOM     45  H   2QS d   1      23.953  51.763  47.182  0.00  0.00     0.085 H 
ATOM     46  CAZ 2QS d   1      23.189  49.692  49.734  0.00  0.00     0.006 A 
ATOM     47  H   2QS d   1      23.866  51.739  49.676  0.00  0.00     0.085 H 
ATOM     48  IAG 2QS d   1      23.033  49.550  51.788  0.00  0.00    -0.045 I 
ATOM     49  CAI 2QS d   1      22.832  48.564  49.016  0.00  0.00    -0.066 A 
ATOM     50  CAK 2QS d   1      22.898  48.575  47.644  0.00  0.00    -0.067 A 
ATOM     51  H   2QS d   1      22.500  47.672  49.536  0.00  0.00     0.085 H 
ATOM     52  H   2QS d   1      22.625  47.693  47.077  0.00  0.00     0.085 H 
ENDBRANCH  39  42
ENDBRANCH  35  38
ENDBRANCH  32  35
ENDBRANCH  29  32
ENDBRANCH   1  29
TORSDOF 12
