REMARK  12 active torsions:
REMARK  status: ('A' for Active; 'I' for Inactive)
REMARK    1  A    between atoms: CBA_7  and  CAY_8 
REMARK       I    between atoms: CAY_8  and  NAS_10 
REMARK    2  A    between atoms: NAS_10  and  CAP_11 
REMARK    3  A    between atoms: CAP_11  and  CAN_12 
REMARK    4  A    between atoms: CAN_12  and  CAO_13 
REMARK    5  A    between atoms: CAO_13  and  CAR_14 
REMARK    6  A    between atoms: CAR_14  and  CBC_15 
REMARK    7  A    between atoms: CBC_15  and  CAW_16 
REMARK    8  A    between atoms: CBC_15  and  NAU_19 
REMARK       I    between atoms: NAU_19  and  CAX_20 
REMARK       I    between atoms: CAX_20  and  N_22 
REMARK    9  A    between atoms: N_22  and  CA_23 
REMARK   10  A    between atoms: CA_23  and  C_24 
REMARK   11  A    between atoms: CA_23  and  CB_27 
REMARK   12  A    between atoms: CB_27  and  CAI_28 
ROOT
ATOM      1  CAI 2QQ d   1      14.413  46.149  40.972  0.00  0.00    -0.115 C 
ATOM      2  CAA 2QQ d   1      14.250  47.288  40.708  0.00  0.00    -0.154 C 
ATOM      3  H   2QQ d   1      14.104  48.307  40.472  0.00  0.00     0.166 H 
ENDROOT
BRANCH   1   4
ATOM      4  CB  2QQ d   1      14.601  44.746  41.295  0.00  0.00     0.018 C 
ATOM      5  H   2QQ d   1      13.983  44.525  42.178  0.00  0.00     0.055 H 
ATOM      6  H   2QQ d   1      14.239  44.159  40.438  0.00  0.00     0.055 H 
BRANCH   4   7
ATOM      7  CA  2QQ d   1      16.041  44.275  41.606  0.00  0.00     0.107 C 
ATOM      8  H   2QQ d   1      16.024  43.202  41.846  0.00  0.00     0.091 H 
BRANCH   7   9
ATOM      9  N   2QQ d   1      16.661  45.009  42.719  0.00  0.00    -0.328 N 
ATOM     10  CAX 2QQ d   1      17.905  44.600  43.058  0.00  0.00     0.317 C 
ATOM     11  NAU 2QQ d   1      18.579  45.340  43.919  0.00  0.00    -0.329 N 
ATOM     12  OAD 2QQ d   1      18.379  43.552  42.575  0.00  0.00    -0.247 OA
ATOM     13  H   2QQ d   1      18.164  46.187  44.252  0.00  0.00     0.165 HD
ATOM     14  H   2QQ d   1      16.196  45.758  43.192  0.00  0.00     0.165 HD
BRANCH  11  15
ATOM     15  CBC 2QQ d   1      19.916  44.969  44.409  0.00  0.00     0.098 C 
ATOM     16  H   2QQ d   1      20.036  43.877  44.465  0.00  0.00     0.089 H 
BRANCH  15  17
ATOM     17  CAR 2QQ d   1      20.938  45.607  43.403  0.00  0.00    -0.036 C 
ATOM     18  H   2QQ d   1      20.660  45.294  42.386  0.00  0.00     0.036 H 
ATOM     19  H   2QQ d   1      20.862  46.701  43.484  0.00  0.00     0.036 H 
BRANCH  17  20
ATOM     20  CAO 2QQ d   1      22.420  45.203  43.647  0.00  0.00    -0.061 C 
ATOM     21  H   2QQ d   1      22.718  45.517  44.658  0.00  0.00     0.033 H 
ATOM     22  H   2QQ d   1      22.516  44.111  43.558  0.00  0.00     0.033 H 
BRANCH  20  23
ATOM     23  CAN 2QQ d   1      23.363  45.893  42.592  0.00  0.00    -0.050 C 
ATOM     24  H   2QQ d   1      24.375  45.481  42.716  0.00  0.00     0.035 H 
ATOM     25  H   2QQ d   1      22.988  45.649  41.587  0.00  0.00     0.035 H 
BRANCH  23  26
ATOM     26  CAP 2QQ d   1      23.452  47.425  42.711  0.00  0.00    -0.004 C 
ATOM     27  H   2QQ d   1      24.281  47.780  42.081  0.00  0.00     0.064 H 
ATOM     28  H   2QQ d   1      22.507  47.862  42.355  0.00  0.00     0.064 H 
BRANCH  26  29
ATOM     29  NAS 2QQ d   1      23.688  47.873  44.102  0.00  0.00    -0.357 N 
ATOM     30  CAY 2QQ d   1      23.063  48.951  44.626  0.00  0.00     0.251 C 
ATOM     31  OAE 2QQ d   1      22.203  49.519  43.940  0.00  0.00    -0.268 OA
ATOM     32  H   2QQ d   1      24.331  47.362  44.672  0.00  0.00     0.162 HD
BRANCH  30  33
ATOM     33  CBA 2QQ d   1      23.223  49.324  46.165  0.00  0.00     0.032 A 
ATOM     34  CAL 2QQ d   1      23.406  48.339  47.141  0.00  0.00    -0.067 A 
ATOM     35  CAJ 2QQ d   1      23.504  48.610  48.541  0.00  0.00    -0.066 A 
ATOM     36  H   2QQ d   1      23.478  47.307  46.816  0.00  0.00     0.085 H 
ATOM     37  CAZ 2QQ d   1      23.415  49.888  49.139  0.00  0.00     0.006 A 
ATOM     38  H   2QQ d   1      23.660  47.764  49.200  0.00  0.00     0.085 H 
ATOM     39  IAH 2QQ d   1      23.567  50.199  51.377  0.00  0.00    -0.045 I 
ATOM     40  CAK 2QQ d   1      23.218  50.880  48.131  0.00  0.00    -0.066 A 
ATOM     41  CAM 2QQ d   1      23.100  50.634  46.722  0.00  0.00    -0.067 A 
ATOM     42  H   2QQ d   1      23.152  51.911  48.459  0.00  0.00     0.085 H 
ATOM     43  H   2QQ d   1      22.911  51.470  46.058  0.00  0.00     0.085 H 
ENDBRANCH  30  33
ENDBRANCH  26  29
ENDBRANCH  23  26
ENDBRANCH  20  23
ENDBRANCH  17  20
ENDBRANCH  15  17
BRANCH  15  44
ATOM     44  CAW 2QQ d   1      20.117  45.610  45.772  0.00  0.00     0.196 C 
ATOM     45  OAG 2QQ d   1      19.612  46.758  45.991  0.00  0.00    -0.646 OA
ATOM     46  OAC 2QQ d   1      20.753  44.895  46.573  0.00  0.00    -0.646 OA
ENDBRANCH  15  44
ENDBRANCH  11  15
ENDBRANCH   7   9
BRANCH   7  47
ATOM     47  C   2QQ d   1      16.927  44.536  40.318  0.00  0.00     0.197 C 
ATOM     48  OXT 2QQ d   1      16.789  43.752  39.347  0.00  0.00    -0.646 OA
ATOM     49  O   2QQ d   1      17.753  45.495  40.330  0.00  0.00    -0.646 OA
ENDBRANCH   7  47
ENDBRANCH   4   7
ENDBRANCH   1   4
TORSDOF 12
