REMARK  12 active torsions:
REMARK  status: ('A' for Active; 'I' for Inactive)
REMARK    1  A    between atoms: CBB_3  and  OAG_4 
REMARK    2  A    between atoms: CBE_7  and  CBG_8 
REMARK    3  A    between atoms: CBG_8  and  CAY_9 
REMARK    4  A    between atoms: CBG_8  and  NAW_12 
REMARK       I    between atoms: NAW_12  and  CAZ_13 
REMARK       I    between atoms: CAZ_13  and  N_15 
REMARK    5  A    between atoms: N_15  and  CA_16 
REMARK    6  A    between atoms: CA_16  and  C_17 
REMARK    7  A    between atoms: CA_16  and  CB_20 
REMARK    8  A    between atoms: CB_20  and  CAR_21 
REMARK    9  A    between atoms: CAR_21  and  CAQ_22 
REMARK   10  A    between atoms: CAQ_22  and  CAS_23 
REMARK   11  A    between atoms: CAS_23  and  NAU_24 
REMARK       I    between atoms: NAU_24  and  CBA_25 
REMARK   12  A    between atoms: CBA_25  and  CBD_27 
ROOT
ATOM      1  CA  2QM d   1      19.999  44.826  44.577  0.00  0.00     0.098 C 
ATOM      2  H   2QM d   1      19.850  43.753  44.767  0.00  0.00     0.089 H 
ENDROOT
BRANCH   1   3
ATOM      3  N   2QM d   1      18.795  45.365  43.931  0.00  0.00    -0.329 N 
ATOM      4  CAZ 2QM d   1      18.156  44.751  42.932  0.00  0.00     0.317 C 
ATOM      5  NAW 2QM d   1      17.010  45.294  42.544  0.00  0.00    -0.324 N 
ATOM      6  OAC 2QM d   1      18.505  43.661  42.473  0.00  0.00    -0.247 OA
ATOM      7  H   2QM d   1      16.597  46.025  43.087  0.00  0.00     0.165 HD
ATOM      8  H   2QM d   1      18.434  46.239  44.257  0.00  0.00     0.165 HD
BRANCH   5   9
ATOM      9  CBG 2QM d   1      16.343  44.825  41.317  0.00  0.00     0.123 C 
ATOM     10  H   2QM d   1      15.848  43.858  41.488  0.00  0.00     0.097 H 
BRANCH   9  11
ATOM     11  CBE 2QM d   1      15.337  45.869  40.892  0.00  0.00    -0.025 A 
ATOM     12  CAO 2QM d   1      14.015  45.615  41.239  0.00  0.00    -0.072 A 
ATOM     13  CAI 2QM d   1      13.040  46.517  40.873  0.00  0.00    -0.050 A 
ATOM     14  H   2QM d   1      13.755  44.719  41.790  0.00  0.00     0.084 H 
ATOM     15  CBB 2QM d   1      13.356  47.637  40.111  0.00  0.00     0.065 A 
ATOM     16  H   2QM d   1      12.014  46.352  41.183  0.00  0.00     0.087 H 
ATOM     17  CAJ 2QM d   1      14.665  47.908  39.722  0.00  0.00    -0.050 A 
ATOM     18  CAP 2QM d   1      15.655  46.987  40.118  0.00  0.00    -0.072 A 
ATOM     19  H   2QM d   1      14.912  48.789  39.140  0.00  0.00     0.087 H 
ATOM     20  H   2QM d   1      16.683  47.149  39.816  0.00  0.00     0.084 H 
BRANCH  15  21
ATOM     21  OAG 2QM d   1      12.354  48.487  39.756  0.00  0.00    -0.361 OA
ATOM     22  H   2QM d   1      11.709  48.017  39.240  0.00  0.00     0.217 HD
ENDBRANCH  15  21
ENDBRANCH   9  11
BRANCH   9  23
ATOM     23  CAY 2QM d   1      17.422  44.702  40.209  0.00  0.00     0.201 C 
ATOM     24  OAF 2QM d   1      17.216  43.862  39.270  0.00  0.00    -0.646 OA
ATOM     25  OAB 2QM d   1      18.403  45.500  40.255  0.00  0.00    -0.646 OA
ENDBRANCH   9  23
ENDBRANCH   5   9
ENDBRANCH   1   3
BRANCH   1  26
ATOM     26  C   2QM d   1      20.193  45.561  45.914  0.00  0.00     0.196 C 
ATOM     27  OXT 2QM d   1      19.672  46.726  46.066  0.00  0.00    -0.646 OA
ATOM     28  O   2QM d   1      20.828  44.884  46.746  0.00  0.00    -0.646 OA
ENDBRANCH   1  26
BRANCH   1  29
ATOM     29  CB  2QM d   1      21.270  45.002  43.708  0.00  0.00    -0.036 C 
ATOM     30  H   2QM d   1      21.101  44.505  42.741  0.00  0.00     0.036 H 
ATOM     31  H   2QM d   1      22.114  44.522  44.225  0.00  0.00     0.036 H 
BRANCH  29  32
ATOM     32  CAR 2QM d   1      21.626  46.426  43.449  0.00  0.00    -0.061 C 
ATOM     33  H   2QM d   1      21.746  46.952  44.407  0.00  0.00     0.033 H 
ATOM     34  H   2QM d   1      20.824  46.903  42.867  0.00  0.00     0.033 H 
BRANCH  32  35
ATOM     35  CAQ 2QM d   1      22.962  46.500  42.647  0.00  0.00    -0.050 C 
ATOM     36  H   2QM d   1      22.772  46.271  41.588  0.00  0.00     0.035 H 
ATOM     37  H   2QM d   1      23.681  45.775  43.056  0.00  0.00     0.035 H 
BRANCH  35  38
ATOM     38  CAS 2QM d   1      23.521  47.902  42.775  0.00  0.00    -0.004 C 
ATOM     39  H   2QM d   1      22.811  48.622  42.342  0.00  0.00     0.064 H 
ATOM     40  H   2QM d   1      24.480  47.966  42.240  0.00  0.00     0.064 H 
BRANCH  38  41
ATOM     41  NAU 2QM d   1      23.729  48.211  44.194  0.00  0.00    -0.357 N 
ATOM     42  CBA 2QM d   1      23.277  49.336  44.758  0.00  0.00     0.251 C 
ATOM     43  OAD 2QM d   1      22.601  50.141  44.110  0.00  0.00    -0.268 OA
ATOM     44  H   2QM d   1      24.228  47.555  44.761  0.00  0.00     0.162 HD
BRANCH  42  45
ATOM     45  CBD 2QM d   1      23.447  49.548  46.303  0.00  0.00     0.032 A 
ATOM     46  CAM 2QM d   1      23.558  50.831  46.860  0.00  0.00    -0.067 A 
ATOM     47  CAK 2QM d   1      23.678  51.034  48.265  0.00  0.00    -0.066 A 
ATOM     48  H   2QM d   1      23.552  51.693  46.202  0.00  0.00     0.085 H 
ATOM     49  CBC 2QM d   1      23.631  50.006  49.225  0.00  0.00     0.006 A 
ATOM     50  H   2QM d   1      23.815  52.050  48.619  0.00  0.00     0.085 H 
ATOM     51  IAH 2QM d   1      23.768  50.327  51.380  0.00  0.00    -0.045 I 
ATOM     52  CAL 2QM d   1      23.473  48.726  48.638  0.00  0.00    -0.066 A 
ATOM     53  CAN 2QM d   1      23.391  48.503  47.229  0.00  0.00    -0.067 A 
ATOM     54  H   2QM d   1      23.411  47.867  49.296  0.00  0.00     0.085 H 
ATOM     55  H   2QM d   1      23.282  47.488  46.866  0.00  0.00     0.085 H 
ENDBRANCH  42  45
ENDBRANCH  38  41
ENDBRANCH  35  38
ENDBRANCH  32  35
ENDBRANCH  29  32
ENDBRANCH   1  29
TORSDOF 12
