REMARK  4 active torsions:
REMARK  status: ('A' for Active; 'I' for Inactive)
REMARK    1  A    between atoms: C1_1  and  C2_4 
REMARK    2  A    between atoms: C2_4  and  C3_6 
REMARK    3  A    between atoms: C3_6  and  C4_7 
REMARK    4  A    between atoms: C4_7  and  C5_8 
ROOT
ATOM      1  C3  AKG d   1      15.449   4.920   1.901  0.00  0.00     0.010 C 
ATOM      2  H   AKG d   1      15.463   5.296   0.867  0.00  0.00     0.045 H 
ATOM      3  H   AKG d   1      15.869   5.682   2.574  0.00  0.00     0.045 H 
ENDROOT
BRANCH   1   4
ATOM      4  C2  AKG d   1      16.299   3.645   1.987  0.00  0.00     0.225 C 
ATOM      5  O5  AKG d   1      15.817   2.608   1.595  0.00  0.00    -0.286 OA
BRANCH   4   6
ATOM      6  C1  AKG d   1      17.682   3.585   2.570  0.00  0.00     0.246 C 
ATOM      7  O1  AKG d   1      18.143   2.414   2.921  0.00  0.00    -0.642 OA
ATOM      8  O2  AKG d   1      18.345   4.677   2.689  0.00  0.00    -0.642 OA
ENDBRANCH   4   6
ENDBRANCH   1   4
BRANCH   1   9
ATOM      9  C4  AKG d   1      13.993   4.622   2.315  0.00  0.00     0.022 C 
ATOM     10  H   AKG d   1      14.007   4.029   3.242  0.00  0.00     0.049 H 
ATOM     11  H   AKG d   1      13.513   4.040   1.514  0.00  0.00     0.049 H 
BRANCH   9  12
ATOM     12  C5  AKG d   1      13.166   5.892   2.559  0.00  0.00     0.172 C 
ATOM     13  O3  AKG d   1      13.623   7.014   2.208  0.00  0.00    -0.648 OA
ATOM     14  O4  AKG d   1      12.034   5.795   3.110  0.00  0.00    -0.648 OA
ENDBRANCH   9  12
ENDBRANCH   1   9
TORSDOF 4
