REMARK  4 active torsions:
REMARK  status: ('A' for Active; 'I' for Inactive)
REMARK    1  A    between atoms: N_1  and  CA_2 
REMARK    2  A    between atoms: CA_2  and  C_3 
REMARK    3  A    between atoms: CA_2  and  CB_5 
REMARK    4  A    between atoms: CB_5  and  CG_6 
ROOT
ATOM      1  CB  HIS d   1     -79.188  -8.238  40.413  0.00  0.00     0.013 C 
ATOM      2  H   HIS d   1     -79.566  -8.922  39.639  0.00  0.00     0.046 H 
ATOM      3  H   HIS d   1     -79.721  -7.278  40.346  0.00  0.00     0.046 H 
ENDROOT
BRANCH   1   4
ATOM      4  CA  HIS d   1     -77.704  -7.984  40.147  0.00  0.00     0.187 C 
ATOM      5  H   HIS d   1     -77.600  -7.449  39.191  0.00  0.00     0.101 H 
BRANCH   4   6
ATOM      6  N   HIS d   1     -76.978  -9.248  40.056  0.00  0.00    -0.065 N 
ATOM      7  H   HIS d   1     -77.369  -9.807  39.314  0.00  0.00     0.275 HD
ATOM      8  H   HIS d   1     -77.058  -9.745  40.929  0.00  0.00     0.275 HD
ATOM      9  H   HIS d   1     -76.006  -9.064  39.862  0.00  0.00     0.275 HD
ENDBRANCH   4   6
BRANCH   4  10
ATOM     10  C   HIS d   1     -77.135  -7.118  41.260  0.00  0.00     0.204 C 
ATOM     11  O   HIS d   1     -76.385  -7.618  42.091  0.00  0.00    -0.646 OA
ATOM     12  OXT HIS d   1     -77.445  -5.929  41.389  0.00  0.00    -0.646 OA
ENDBRANCH   4  10
ENDBRANCH   1   4
BRANCH   1  13
ATOM     13  CG  HIS d   1     -79.469  -8.840  41.752  0.00  0.00     0.053 A 
ATOM     14  ND1 HIS d   1     -78.595  -9.720  42.375  0.00  0.00    -0.247 NA
ATOM     15  CE1 HIS d   1     -79.098 -10.094  43.532  0.00  0.00     0.064 A 
ATOM     16  NE2 HIS d   1     -80.265  -9.489  43.700  0.00  0.00    -0.359 N 
ATOM     17  H   HIS d   1     -78.633 -10.785  44.234  0.00  0.00     0.143 H 
ATOM     18  CD2 HIS d   1     -80.515  -8.706  42.602  0.00  0.00     0.002 A 
ATOM     19  H   HIS d   1     -80.882  -9.590  44.519  0.00  0.00     0.166 HD
ATOM     20  H   HIS d   1     -81.397  -8.087  42.442  0.00  0.00     0.114 H 
ENDBRANCH   1  13
TORSDOF 4
