REMARK  9 active torsions:
REMARK  status: ('A' for Active; 'I' for Inactive)
REMARK    1  A    between atoms: CAZ_8  and  OAX_9 
REMARK    2  A    between atoms: OAX_9  and  CAP_10 
REMARK    3  A    between atoms: CAP_10  and  CAO_11 
REMARK    4  A    between atoms: CAO_11  and  CAU_12 
REMARK    5  A    between atoms: CAU_12  and  NBD_13 
REMARK    6  A    between atoms: CBC_18  and  CBE_19 
REMARK    7  A    between atoms: CBE_19  and  CBB_20 
REMARK    8  A    between atoms: CBE_19  and  OAB_25 
REMARK    9  A    between atoms: CBE_19  and  CBA_26 
ROOT
ATOM      1  CAK 2S6 d   1     -10.709  19.253 -13.378  0.00  0.00    -0.049 A 
ATOM      2  CAI 2S6 d   1     -10.145  20.416 -13.874  0.00  0.00    -0.060 A 
ATOM      3  CAY 2S6 d   1      -8.774  20.546 -13.956  0.00  0.00     0.044 A 
ATOM      4  CAC 2S6 d   1      -8.200  21.737 -14.473  0.00  0.00     0.099 C 
ATOM      5  NAA 2S6 d   1      -7.771  22.705 -14.905  0.00  0.00    -0.191 NA
ATOM      6  CAJ 2S6 d   1      -7.982  19.487 -13.526  0.00  0.00    -0.060 A 
ATOM      7  CAL 2S6 d   1      -8.536  18.294 -13.046  0.00  0.00    -0.049 A 
ATOM      8  CAZ 2S6 d   1      -9.914  18.172 -12.988  0.00  0.00     0.068 A 
ATOM      9  H   2S6 d   1     -11.787  19.180 -13.291  0.00  0.00     0.087 H 
ATOM     10  H   2S6 d   1     -10.784  21.229 -14.200  0.00  0.00     0.086 H 
ATOM     11  H   2S6 d   1      -6.903  19.588 -13.563  0.00  0.00     0.086 H 
ATOM     12  H   2S6 d   1      -7.897  17.480 -12.725  0.00  0.00     0.087 H 
ENDROOT
BRANCH   8  13
ATOM     13  OAX 2S6 d   1     -10.543  17.040 -12.546  0.00  0.00    -0.351 OA
BRANCH  13  14
ATOM     14  CAP 2S6 d   1      -9.797  15.874 -12.164  0.00  0.00     0.028 C 
ATOM     15  H   2S6 d   1      -8.909  16.166 -11.585  0.00  0.00     0.075 H 
ATOM     16  H   2S6 d   1      -9.484  15.315 -13.058  0.00  0.00     0.075 H 
BRANCH  14  17
ATOM     17  CAO 2S6 d   1     -10.745  15.002 -11.290  0.00  0.00    -0.022 C 
ATOM     18  H   2S6 d   1     -11.356  15.632 -10.627  0.00  0.00     0.038 H 
ATOM     19  H   2S6 d   1     -10.170  14.284 -10.686  0.00  0.00     0.038 H 
BRANCH  17  20
ATOM     20  CAU 2S6 d   1     -11.608  14.287 -12.292  0.00  0.00     0.085 C 
ATOM     21  H   2S6 d   1     -10.984  13.568 -12.843  0.00  0.00     0.076 H 
ATOM     22  H   2S6 d   1     -12.020  15.028 -12.993  0.00  0.00     0.076 H 
BRANCH  20  23
ATOM     23  NBD 2S6 d   1     -12.754  13.540 -11.653  0.00  0.00    -0.071 N 
ATOM     24  CAW 2S6 d   1     -13.454  12.705 -12.623  0.00  0.00     0.084 C 
ATOM     25  CAT 2S6 d   1     -14.631  11.958 -12.029  0.00  0.00    -0.036 C 
ATOM     26  H   2S6 d   1     -12.743  11.971 -13.030  0.00  0.00     0.076 H 
ATOM     27  H   2S6 d   1     -13.822  13.348 -13.436  0.00  0.00     0.076 H 
ATOM     28  CBC 2S6 d   1     -14.119  10.985 -10.979  0.00  0.00    -0.017 C 
ATOM     29  H   2S6 d   1     -15.154  11.403 -12.822  0.00  0.00     0.036 H 
ATOM     30  H   2S6 d   1     -15.325  12.673 -11.562  0.00  0.00     0.036 H 
ATOM     31  CAS 2S6 d   1     -13.229  11.722  -9.895  0.00  0.00    -0.036 C 
ATOM     32  H   2S6 d   1     -13.432  10.308 -11.508  0.00  0.00     0.045 H 
ATOM     33  CAV 2S6 d   1     -12.140  12.496 -10.716  0.00  0.00     0.084 C 
ATOM     34  H   2S6 d   1     -13.839  12.423  -9.306  0.00  0.00     0.036 H 
ATOM     35  H   2S6 d   1     -12.758  10.991  -9.221  0.00  0.00     0.036 H 
ATOM     36  H   2S6 d   1     -11.463  13.005 -10.014  0.00  0.00     0.076 H 
ATOM     37  H   2S6 d   1     -11.569  11.773 -11.317  0.00  0.00     0.076 H 
ATOM     38  H   2S6 d   1     -13.379  14.173 -11.180  0.00  0.00     0.279 HD
BRANCH  28  39
ATOM     39  CBE 2S6 d   1     -15.242  10.057 -10.405  0.00  0.00     0.092 C 
BRANCH  39  40
ATOM     40  CBB 2S6 d   1     -14.606   9.085  -9.378  0.00  0.00    -0.020 C 
ATOM     41  CAQ 2S6 d   1     -13.507   8.107  -9.894  0.00  0.00    -0.059 C 
ATOM     42  CAM 2S6 d   1     -13.287   7.289  -8.597  0.00  0.00    -0.065 C 
ATOM     43  H   2S6 d   1     -12.596   8.638 -10.207  0.00  0.00     0.033 H 
ATOM     44  H   2S6 d   1     -13.868   7.479 -10.722  0.00  0.00     0.033 H 
ATOM     45  CAN 2S6 d   1     -14.698   7.232  -7.884  0.00  0.00    -0.065 C 
ATOM     46  H   2S6 d   1     -12.550   7.787  -7.950  0.00  0.00     0.033 H 
ATOM     47  H   2S6 d   1     -12.938   6.274  -8.838  0.00  0.00     0.033 H 
ATOM     48  CAR 2S6 d   1     -15.639   8.085  -8.667  0.00  0.00    -0.059 C 
ATOM     49  H   2S6 d   1     -14.614   7.614  -6.856  0.00  0.00     0.033 H 
ATOM     50  H   2S6 d   1     -15.064   6.195  -7.861  0.00  0.00     0.033 H 
ATOM     51  H   2S6 d   1     -16.205   7.495  -9.403  0.00  0.00     0.033 H 
ATOM     52  H   2S6 d   1     -16.340   8.623  -8.012  0.00  0.00     0.033 H 
ATOM     53  H   2S6 d   1     -14.154   9.726  -8.607  0.00  0.00     0.045 H 
ENDBRANCH  39  40
BRANCH  39  54
ATOM     54  OAB 2S6 d   1     -16.159  10.896  -9.732  0.00  0.00    -0.384 OA
ATOM     55  H   2S6 d   1     -16.554  11.495 -10.354  0.00  0.00     0.211 HD
ENDBRANCH  39  54
BRANCH  39  56
ATOM     56  CBA 2S6 d   1     -15.923   9.306 -11.422  0.00  0.00    -0.023 A 
ATOM     57  CAG 2S6 d   1     -17.309   9.166 -11.400  0.00  0.00    -0.074 A 
ATOM     58  CAE 2S6 d   1     -17.981   8.419 -12.370  0.00  0.00    -0.082 A 
ATOM     59  H   2S6 d   1     -17.878   9.647 -10.613  0.00  0.00     0.084 H 
ATOM     60  CAD 2S6 d   1     -17.243   7.844 -13.417  0.00  0.00    -0.083 A 
ATOM     61  H   2S6 d   1     -19.055   8.285 -12.315  0.00  0.00     0.083 H 
ATOM     62  CAF 2S6 d   1     -15.877   7.964 -13.468  0.00  0.00    -0.082 A 
ATOM     63  H   2S6 d   1     -17.760   7.297 -14.197  0.00  0.00     0.083 H 
ATOM     64  CAH 2S6 d   1     -15.238   8.722 -12.504  0.00  0.00    -0.074 A 
ATOM     65  H   2S6 d   1     -15.309   7.473 -14.250  0.00  0.00     0.083 H 
ATOM     66  H   2S6 d   1     -14.168   8.872 -12.585  0.00  0.00     0.084 H 
ENDBRANCH  39  56
ENDBRANCH  28  39
ENDBRANCH  20  23
ENDBRANCH  17  20
ENDBRANCH  14  17
ENDBRANCH  13  14
ENDBRANCH   8  13
TORSDOF 9
