REMARK  9 active torsions:
REMARK  status: ('A' for Active; 'I' for Inactive)
REMARK    1  A    between atoms: CAZ_8  and  OAX_9 
REMARK    2  A    between atoms: OAX_9  and  CAP_10 
REMARK    3  A    between atoms: CAP_10  and  CAO_11 
REMARK    4  A    between atoms: CAO_11  and  CAU_12 
REMARK    5  A    between atoms: CAU_12  and  NBD_13 
REMARK    6  A    between atoms: CBC_18  and  CBE_19 
REMARK    7  A    between atoms: CBE_19  and  CBB_20 
REMARK    8  A    between atoms: CBE_19  and  OAB_25 
REMARK    9  A    between atoms: CBE_19  and  CBA_26 
ROOT
ATOM      1  CAK 2VK d   1      10.780  19.297  13.269  0.00  0.00    -0.049 A 
ATOM      2  CAI 2VK d   1      10.191  20.434  13.790  0.00  0.00    -0.060 A 
ATOM      3  CAY 2VK d   1       8.825  20.446  14.014  0.00  0.00     0.044 A 
ATOM      4  CAC 2VK d   1       8.263  21.582  14.530  0.00  0.00     0.099 C 
ATOM      5  NAA 2VK d   1       7.858  22.449  14.920  0.00  0.00    -0.191 NA
ATOM      6  CAJ 2VK d   1       8.041  19.334  13.723  0.00  0.00    -0.060 A 
ATOM      7  CAL 2VK d   1       8.632  18.190  13.200  0.00  0.00    -0.049 A 
ATOM      8  CAZ 2VK d   1      10.003  18.185  12.978  0.00  0.00     0.068 A 
ATOM      9  H   2VK d   1      11.848  19.274  13.088  0.00  0.00     0.087 H 
ATOM     10  H   2VK d   1      10.792  21.306  14.021  0.00  0.00     0.086 H 
ATOM     11  H   2VK d   1       6.973  19.360  13.904  0.00  0.00     0.086 H 
ATOM     12  H   2VK d   1       8.033  17.316  12.969  0.00  0.00     0.087 H 
ENDROOT
BRANCH   8  13
ATOM     13  OAX 2VK d   1      10.643  17.109  12.471  0.00  0.00    -0.351 OA
BRANCH  13  14
ATOM     14  CAP 2VK d   1       9.907  15.921  12.225  0.00  0.00     0.028 C 
ATOM     15  H   2VK d   1       8.994  16.148  11.655  0.00  0.00     0.075 H 
ATOM     16  H   2VK d   1       9.635  15.436  13.174  0.00  0.00     0.075 H 
BRANCH  14  17
ATOM     17  CAO 2VK d   1      10.833  15.013  11.409  0.00  0.00    -0.022 C 
ATOM     18  H   2VK d   1      11.413  15.627  10.704  0.00  0.00     0.038 H 
ATOM     19  H   2VK d   1      10.226  14.287  10.849  0.00  0.00     0.038 H 
BRANCH  17  20
ATOM     20  CAU 2VK d   1      11.799  14.257  12.334  0.00  0.00     0.085 C 
ATOM     21  H   2VK d   1      11.222  13.546  12.944  0.00  0.00     0.076 H 
ATOM     22  H   2VK d   1      12.300  14.983  12.992  0.00  0.00     0.076 H 
BRANCH  20  23
ATOM     23  NBD 2VK d   1      12.827  13.511  11.581  0.00  0.00    -0.071 N 
ATOM     24  CAW 2VK d   1      13.855  13.041  12.528  0.00  0.00     0.084 C 
ATOM     25  CAT 2VK d   1      14.916  12.163  11.859  0.00  0.00    -0.036 C 
ATOM     26  H   2VK d   1      13.363  12.457  13.320  0.00  0.00     0.076 H 
ATOM     27  H   2VK d   1      14.351  13.916  12.972  0.00  0.00     0.076 H 
ATOM     28  CBC 2VK d   1      14.252  10.944  11.232  0.00  0.00    -0.017 C 
ATOM     29  H   2VK d   1      15.647  11.834  12.613  0.00  0.00     0.036 H 
ATOM     30  H   2VK d   1      15.430  12.742  11.078  0.00  0.00     0.036 H 
ATOM     31  CAS 2VK d   1      13.234  11.450  10.215  0.00  0.00    -0.036 C 
ATOM     32  H   2VK d   1      13.713  10.391  12.015  0.00  0.00     0.045 H 
ATOM     33  CAV 2VK d   1      12.207  12.348  10.918  0.00  0.00     0.084 C 
ATOM     34  H   2VK d   1      13.752  12.027   9.435  0.00  0.00     0.036 H 
ATOM     35  H   2VK d   1      12.718  10.594   9.756  0.00  0.00     0.036 H 
ATOM     36  H   2VK d   1      11.487  12.712  10.170  0.00  0.00     0.076 H 
ATOM     37  H   2VK d   1      11.678  11.751  11.676  0.00  0.00     0.076 H 
ATOM     38  H   2VK d   1      13.247  14.112  10.889  0.00  0.00     0.279 HD
BRANCH  28  39
ATOM     39  CBE 2VK d   1      15.308   9.987  10.623  0.00  0.00     0.092 C 
BRANCH  39  40
ATOM     40  CBB 2VK d   1      16.259   9.481  11.721  0.00  0.00    -0.020 C 
ATOM     41  CAQ 2VK d   1      17.393   8.610  11.158  0.00  0.00    -0.059 C 
ATOM     42  CAM 2VK d   1      17.854   7.745  12.347  0.00  0.00    -0.065 C 
ATOM     43  H   2VK d   1      18.219   9.238  10.793  0.00  0.00     0.033 H 
ATOM     44  H   2VK d   1      17.024   7.976  10.338  0.00  0.00     0.033 H 
ATOM     45  CAN 2VK d   1      16.877   8.059  13.432  0.00  0.00    -0.065 C 
ATOM     46  H   2VK d   1      18.876   8.015  12.652  0.00  0.00     0.033 H 
ATOM     47  H   2VK d   1      17.819   6.676  12.088  0.00  0.00     0.033 H 
ATOM     48  CAR 2VK d   1      15.631   8.537  12.711  0.00  0.00    -0.059 C 
ATOM     49  H   2VK d   1      17.270   8.848  14.090  0.00  0.00     0.033 H 
ATOM     50  H   2VK d   1      16.658   7.160  14.028  0.00  0.00     0.033 H 
ATOM     51  H   2VK d   1      15.104   7.710  12.212  0.00  0.00     0.033 H 
ATOM     52  H   2VK d   1      14.939   9.056  13.390  0.00  0.00     0.033 H 
ATOM     53  H   2VK d   1      16.669  10.358  12.244  0.00  0.00     0.045 H 
ENDBRANCH  39  40
BRANCH  39  54
ATOM     54  OAB 2VK d   1      16.083  10.715   9.744  0.00  0.00    -0.384 OA
ATOM     55  H   2VK d   1      16.488  11.440  10.206  0.00  0.00     0.211 HD
ENDBRANCH  39  54
BRANCH  39  56
ATOM     56  CBA 2VK d   1      14.687   8.882   9.928  0.00  0.00    -0.023 A 
ATOM     57  CAG 2VK d   1      13.554   8.285  10.462  0.00  0.00    -0.074 A 
ATOM     58  CAE 2VK d   1      12.967   7.211   9.805  0.00  0.00    -0.082 A 
ATOM     59  H   2VK d   1      13.129   8.655  11.388  0.00  0.00     0.084 H 
ATOM     60  CAD 2VK d   1      13.491   6.712   8.622  0.00  0.00    -0.083 A 
ATOM     61  H   2VK d   1      12.080   6.753  10.226  0.00  0.00     0.083 H 
ATOM     62  CAF 2VK d   1      14.630   7.295   8.089  0.00  0.00    -0.082 A 
ATOM     63  H   2VK d   1      13.016   5.877   8.120  0.00  0.00     0.083 H 
ATOM     64  CAH 2VK d   1      15.225   8.375   8.745  0.00  0.00    -0.074 A 
ATOM     65  H   2VK d   1      15.057   6.915   7.168  0.00  0.00     0.083 H 
ATOM     66  H   2VK d   1      16.118   8.826   8.329  0.00  0.00     0.084 H 
ENDBRANCH  39  56
ENDBRANCH  28  39
ENDBRANCH  20  23
ENDBRANCH  17  20
ENDBRANCH  14  17
ENDBRANCH  13  14
ENDBRANCH   8  13
TORSDOF 9
