REMARK  15 active torsions:
REMARK  status: ('A' for Active; 'I' for Inactive)
REMARK    1  A    between atoms: NAP_5  and  CAO_6 
REMARK    2  A    between atoms: CAO_6  and  CAN_7 
REMARK    3  A    between atoms: CAN_7  and  OAM_8 
REMARK    4  A    between atoms: OAM_8  and  CAJ_9 
REMARK    5  A    between atoms: CAG_14  and  NAF_15 
REMARK    6  A    between atoms: NAF_15  and  C2_16 
REMARK    7  A    between atoms: C5_20  and  CAA_21 
REMARK    8  A    between atoms: C4_22  and  NAW_23 
REMARK    9  A    between atoms: NAW_23  and  CAX_24 
REMARK   10  A    between atoms: CBB_29  and  SBD_30 
REMARK   11  A    between atoms: SBD_30  and  NBE_33 
REMARK   12  A    between atoms: NBE_33  and  CBF_34 
REMARK   13  A    between atoms: CBF_34  and  CBH_35 
REMARK   14  A    between atoms: CBF_34  and  CBI_36 
REMARK   15  A    between atoms: CBF_34  and  CBG_37 
ROOT
ATOM      1  C2  2TA d   1      21.393  40.296  19.473  0.00  0.00     0.728 A 
ATOM      2  N3  2TA d   1      21.145  39.059  19.945  0.00  0.00    -0.044 NA
ATOM      3  N1  2TA d   1      22.324  40.531  18.520  0.00  0.00    -0.074 NA
ATOM      4  C6  2TA d   1      22.980  39.408  17.988  0.00  0.00     0.030 A 
ATOM      5  C5  2TA d   1      22.744  38.096  18.449  0.00  0.00     0.003 A 
ATOM      6  C4  2TA d   1      21.784  37.967  19.481  0.00  0.00     0.154 A 
ATOM      7  H   2TA d   1      23.698  39.556  17.189  0.00  0.00     0.116 H 
ENDROOT
BRANCH   1   8
ATOM      8  NAF 2TA d   1      20.828  41.409  19.957  0.00  0.00    -0.188 N 
ATOM      9  H   2TA d   1      21.263  42.308  19.706  0.00  0.00     0.184 HD
BRANCH   8  10
ATOM     10  CAG 2TA d   1      19.718  41.449  20.760  0.00  0.00     0.049 A 
ATOM     11  CAL 2TA d   1      19.512  42.653  21.441  0.00  0.00    -0.054 A 
ATOM     12  CAK 2TA d   1      18.393  42.850  22.238  0.00  0.00    -0.049 A 
ATOM     13  H   2TA d   1      20.241  43.449  21.344  0.00  0.00     0.087 H 
ATOM     14  CAJ 2TA d   1      17.428  41.882  22.358  0.00  0.00     0.069 A 
ATOM     15  H   2TA d   1      18.279  43.785  22.775  0.00  0.00     0.087 H 
ATOM     16  CAI 2TA d   1      17.602  40.672  21.701  0.00  0.00    -0.049 A 
ATOM     17  CAH 2TA d   1      18.715  40.517  20.862  0.00  0.00    -0.054 A 
ATOM     18  H   2TA d   1      16.892  39.863  21.834  0.00  0.00     0.087 H 
ATOM     19  H   2TA d   1      18.787  39.616  20.264  0.00  0.00     0.087 H 
BRANCH  14  20
ATOM     20  OAM 2TA d   1      16.257  41.969  23.134  0.00  0.00    -0.349 OA
BRANCH  20  21
ATOM     21  CAN 2TA d   1      16.154  43.006  24.101  0.00  0.00     0.049 C 
ATOM     22  H   2TA d   1      17.105  43.116  24.643  0.00  0.00     0.077 H 
ATOM     23  H   2TA d   1      15.898  43.958  23.612  0.00  0.00     0.077 H 
BRANCH  21  24
ATOM     24  CAO 2TA d   1      15.039  42.589  25.066  0.00  0.00     0.103 C 
ATOM     25  H   2TA d   1      15.146  43.166  25.996  0.00  0.00     0.079 H 
ATOM     26  H   2TA d   1      14.069  42.818  24.601  0.00  0.00     0.079 H 
BRANCH  24  27
ATOM     27  NAP 2TA d   1      15.075  41.165  25.394  0.00  0.00    -0.069 N 
ATOM     28  CAQ 2TA d   1      16.366  40.783  26.032  0.00  0.00     0.084 C 
ATOM     29  CAR 2TA d   1      16.039  39.576  26.922  0.00  0.00    -0.041 C 
ATOM     30  H   2TA d   1      17.107  40.508  25.267  0.00  0.00     0.076 H 
ATOM     31  H   2TA d   1      16.756  41.614  26.638  0.00  0.00     0.076 H 
ATOM     32  CAS 2TA d   1      14.675  40.098  27.450  0.00  0.00    -0.041 C 
ATOM     33  H   2TA d   1      16.776  39.434  27.727  0.00  0.00     0.035 H 
ATOM     34  H   2TA d   1      15.939  38.644  26.347  0.00  0.00     0.035 H 
ATOM     35  CAT 2TA d   1      13.977  40.829  26.322  0.00  0.00     0.084 C 
ATOM     36  H   2TA d   1      14.841  40.786  28.293  0.00  0.00     0.035 H 
ATOM     37  H   2TA d   1      14.057  39.252  27.784  0.00  0.00     0.035 H 
ATOM     38  H   2TA d   1      13.482  41.739  26.691  0.00  0.00     0.076 H 
ATOM     39  H   2TA d   1      13.235  40.181  25.834  0.00  0.00     0.076 H 
ATOM     40  H   2TA d   1      14.963  40.637  24.543  0.00  0.00     0.280 HD
ENDBRANCH  24  27
ENDBRANCH  21  24
ENDBRANCH  20  21
ENDBRANCH  14  20
ENDBRANCH   8  10
ENDBRANCH   1   8
BRANCH   6  41
ATOM     41  NAW 2TA d   1      21.548  36.720  19.893  0.00  0.00    -0.340 N 
ATOM     42  H   2TA d   1      21.994  35.950  19.373  0.00  0.00     0.167 HD
BRANCH  41  43
ATOM     43  CAX 2TA d   1      20.733  36.385  20.987  0.00  0.00     0.035 A 
ATOM     44  CBC 2TA d   1      20.141  37.239  21.954  0.00  0.00    -0.035 A 
ATOM     45  CBB 2TA d   1      19.442  36.666  23.022  0.00  0.00     0.081 A 
ATOM     46  H   2TA d   1      20.229  38.316  21.867  0.00  0.00     0.089 H 
ATOM     47  CBA 2TA d   1      19.261  35.303  23.118  0.00  0.00    -0.060 A 
ATOM     48  CAZ 2TA d   1      19.799  34.459  22.173  0.00  0.00    -0.079 A 
ATOM     49  H   2TA d   1      18.691  34.893  23.944  0.00  0.00     0.085 H 
ATOM     50  CAY 2TA d   1      20.556  35.002  21.137  0.00  0.00    -0.057 A 
ATOM     51  H   2TA d   1      19.636  33.389  22.234  0.00  0.00     0.083 H 
ATOM     52  H   2TA d   1      21.024  34.333  20.423  0.00  0.00     0.086 H 
BRANCH  45  53
ATOM     53  SBD 2TA d   1      18.631  37.737  24.192  0.00  0.00     0.259 S 
ATOM     54  OBJ 2TA d   1      18.803  37.120  25.559  0.00  0.00    -0.201 OA
ATOM     55  OBK 2TA d   1      17.276  38.019  23.585  0.00  0.00    -0.201 OA
BRANCH  53  56
ATOM     56  NBE 2TA d   1      19.357  39.146  24.086  0.00  0.00    -0.307 N 
ATOM     57  H   2TA d   1      18.980  39.842  23.475  0.00  0.00     0.173 HD
BRANCH  56  58
ATOM     58  CBF 2TA d   1      20.562  39.455  24.857  0.00  0.00     0.029 C 
BRANCH  58  59
ATOM     59  CBH 2TA d   1      21.668  38.359  24.728  0.00  0.00    -0.053 C 
ATOM     60  H   2TA d   1      22.543  38.649  25.328  0.00  0.00     0.030 H 
ATOM     61  H   2TA d   1      21.963  38.258  23.673  0.00  0.00     0.030 H 
ATOM     62  H   2TA d   1      21.276  37.398  25.092  0.00  0.00     0.030 H 
ENDBRANCH  58  59
BRANCH  58  63
ATOM     63  CBI 2TA d   1      20.279  39.739  26.337  0.00  0.00    -0.053 C 
ATOM     64  H   2TA d   1      21.224  39.963  26.855  0.00  0.00     0.030 H 
ATOM     65  H   2TA d   1      19.809  38.857  26.796  0.00  0.00     0.030 H 
ATOM     66  H   2TA d   1      19.601  40.601  26.422  0.00  0.00     0.030 H 
ENDBRANCH  58  63
BRANCH  58  67
ATOM     67  CBG 2TA d   1      21.040  40.765  24.234  0.00  0.00    -0.053 C 
ATOM     68  H   2TA d   1      21.956  41.100  24.742  0.00  0.00     0.030 H 
ATOM     69  H   2TA d   1      20.258  41.531  24.346  0.00  0.00     0.030 H 
ATOM     70  H   2TA d   1      21.250  40.608  23.166  0.00  0.00     0.030 H 
ENDBRANCH  58  67
ENDBRANCH  56  58
ENDBRANCH  53  56
ENDBRANCH  45  53
ENDBRANCH  41  43
ENDBRANCH   6  41
BRANCH   5  71
ATOM     71  CAA 2TA d   1      23.502  36.987  17.828  0.00  0.00    -0.046 C 
ATOM     72  H   2TA d   1      24.174  37.389  17.056  0.00  0.00     0.033 H 
ATOM     73  H   2TA d   1      22.800  36.275  17.369  0.00  0.00     0.033 H 
ATOM     74  H   2TA d   1      24.095  36.472  18.598  0.00  0.00     0.033 H 
ENDBRANCH   5  71
TORSDOF 15
