REMARK  12 active torsions:
REMARK  status: ('A' for Active; 'I' for Inactive)
REMARK    1  A    between atoms: CBA_4  and  NBD_5 
REMARK    2  A    between atoms: NBD_5  and  CAB_6 
REMARK    3  A    between atoms: NBD_5  and  CAA_7 
REMARK    4  A    between atoms: CBC_11  and  CAU_12 
REMARK       I    between atoms: CAU_12  and  NBE_14 
REMARK    5  A    between atoms: NBE_14  and  CAT_15 
REMARK    6  A    between atoms: NBE_14  and  CAZ_22 
REMARK    7  A    between atoms: CAT_15  and  CAY_16 
REMARK    8  A    between atoms: CAV_26  and  OAG_27 
REMARK    9  A    between atoms: CBB_28  and  CBF_29 
REMARK   10  A    between atoms: CBF_29  and  CAD_30 
REMARK   11  A    between atoms: CBF_29  and  CAE_31 
REMARK   12  A    between atoms: CBF_29  and  CAC_32 
ROOT
ATOM      1  CAU XX9 d   1      10.862  13.917 -19.996  0.00  0.00     0.262 C 
ATOM      2  OAF XX9 d   1       9.784  14.366 -19.537  0.00  0.00    -0.267 OA
ATOM      3  NBE XX9 d   1      11.996  14.102 -19.302  0.00  0.00    -0.309 N 
ENDROOT
BRANCH   3   4
ATOM      4  CAT XX9 d   1      11.917  14.850 -17.998  0.00  0.00     0.027 C 
ATOM      5  H9  XX9 d   1      12.496  14.293 -17.247  0.00  0.00     0.072 H 
ATOM      6  H10 XX9 d   1      10.862  14.893 -17.690  0.00  0.00     0.072 H 
BRANCH   4   7
ATOM      7  CAY XX9 d   1      12.439  16.230 -18.053  0.00  0.00    -0.040 A 
ATOM      8  CAN XX9 d   1      11.649  17.245 -18.513  0.00  0.00    -0.075 A 
ATOM      9  CAK XX9 d   1      12.113  18.577 -18.482  0.00  0.00    -0.082 A 
ATOM     10  H11 XX9 d   1      10.662  17.026 -18.903  0.00  0.00     0.084 H 
ATOM     11  CAJ XX9 d   1      13.441  18.792 -18.068  0.00  0.00    -0.083 A 
ATOM     12  H12 XX9 d   1      11.471  19.403 -18.766  0.00  0.00     0.083 H 
ATOM     13  CAL XX9 d   1      14.288  17.773 -17.623  0.00  0.00    -0.082 A 
ATOM     14  H13 XX9 d   1      13.828  19.804 -18.096  0.00  0.00     0.083 H 
ATOM     15  CAO XX9 d   1      13.737  16.447 -17.640  0.00  0.00    -0.075 A 
ATOM     16  H14 XX9 d   1      15.299  17.971 -17.286  0.00  0.00     0.083 H 
ATOM     17  H15 XX9 d   1      14.347  15.608 -17.325  0.00  0.00     0.084 H 
ENDBRANCH   4   7
ENDBRANCH   3   4
BRANCH   3  18
ATOM     18  CAZ XX9 d   1      13.196  13.608 -19.749  0.00  0.00     0.038 A 
ATOM     19  CAS XX9 d   1      14.148  14.518 -20.226  0.00  0.00    -0.048 A 
ATOM     20  CBB XX9 d   1      15.400  14.075 -20.637  0.00  0.00    -0.015 A 
ATOM     21  H16 XX9 d   1      13.907  15.574 -20.275  0.00  0.00     0.087 H 
ATOM     22  CAV XX9 d   1      15.665  12.662 -20.461  0.00  0.00     0.072 A 
ATOM     23  CAM XX9 d   1      14.698  11.765 -20.021  0.00  0.00    -0.048 A 
ATOM     24  CAP XX9 d   1      13.426  12.226 -19.643  0.00  0.00    -0.054 A 
ATOM     25  H18 XX9 d   1      14.926  10.707 -19.970  0.00  0.00     0.087 H 
ATOM     26  H17 XX9 d   1      12.659  11.548 -19.287  0.00  0.00     0.087 H 
BRANCH  20  27
ATOM     27  CBF XX9 d   1      16.452  14.971 -21.043  0.00  0.00    -0.021 C 
BRANCH  27  28
ATOM     28  CAD XX9 d   1      16.980  14.627 -22.462  0.00  0.00    -0.066 C 
ATOM     29  H20 XX9 d   1      17.780  15.331 -22.736  0.00  0.00     0.028 H 
ATOM     30  H21 XX9 d   1      16.158  14.706 -23.188  0.00  0.00     0.028 H 
ATOM     31  H22 XX9 d   1      17.377  13.601 -22.467  0.00  0.00     0.028 H 
ENDBRANCH  27  28
BRANCH  27  32
ATOM     32  CAE XX9 d   1      16.068  16.423 -20.960  0.00  0.00    -0.066 C 
ATOM     33  H23 XX9 d   1      15.697  16.647 -19.949  0.00  0.00     0.028 H 
ATOM     34  H24 XX9 d   1      15.279  16.636 -21.696  0.00  0.00     0.028 H 
ATOM     35  H25 XX9 d   1      16.948  17.048 -21.174  0.00  0.00     0.028 H 
ENDBRANCH  27  32
BRANCH  27  36
ATOM     36  CAC XX9 d   1      17.617  14.880 -20.039  0.00  0.00    -0.066 C 
ATOM     37  H26 XX9 d   1      17.993  13.847 -20.007  0.00  0.00     0.028 H 
ATOM     38  H27 XX9 d   1      17.263  15.173 -19.039  0.00  0.00     0.028 H 
ATOM     39  H28 XX9 d   1      18.426  15.555 -20.354  0.00  0.00     0.028 H 
ENDBRANCH  27  36
ENDBRANCH  20  27
BRANCH  22  40
ATOM     40  OAG XX9 d   1      16.893  12.176 -20.804  0.00  0.00    -0.360 OA
ATOM     41  H19 XX9 d   1      17.449  12.893 -21.084  0.00  0.00     0.217 HD
ENDBRANCH  22  40
ENDBRANCH   3  18
BRANCH   1  42
ATOM     42  CBC XX9 d   1      10.890  13.270 -21.265  0.00  0.00     0.076 A 
ATOM     43  CAW XX9 d   1      10.449  11.971 -21.421  0.00  0.00     0.053 A 
ATOM     44 CLH  XX9 d   1      10.003  11.051 -20.003  0.00  0.00    -0.083 Cl
ATOM     45  CAQ XX9 d   1      10.401  11.316 -22.651  0.00  0.00    -0.035 A 
ATOM     46  CBA XX9 d   1      10.708  11.942 -23.839  0.00  0.00     0.032 A 
ATOM     47  H1  XX9 d   1      10.110  10.272 -22.673  0.00  0.00     0.089 H 
ATOM     48  CAR XX9 d   1      11.113  13.273 -23.715  0.00  0.00    -0.035 A 
ATOM     49  CAX XX9 d   1      11.220  13.905 -22.474  0.00  0.00     0.053 A 
ATOM     50  H8  XX9 d   1      11.352  13.834 -24.611  0.00  0.00     0.089 H 
ATOM     51 CLI  XX9 d   1      11.787  15.639 -22.431  0.00  0.00    -0.083 Cl
BRANCH  46  52
ATOM     52  NBD XX9 d   1      10.680  11.311 -25.019  0.00  0.00    -0.389 N 
BRANCH  52  53
ATOM     53  CAB XX9 d   1      10.868  12.100 -26.315  0.00  0.00    -0.019 C 
ATOM     54  H2  XX9 d   1      10.814  11.414 -27.173  0.00  0.00     0.056 H 
ATOM     55  H3  XX9 d   1      11.850  12.596 -26.303  0.00  0.00     0.056 H 
ATOM     56  H4  XX9 d   1      10.075  12.858 -26.401  0.00  0.00     0.056 H 
ENDBRANCH  52  53
BRANCH  52  57
ATOM     57  CAA XX9 d   1      10.596   9.836 -25.075  0.00  0.00    -0.019 C 
ATOM     58  H5  XX9 d   1      10.462   9.438 -24.058  0.00  0.00     0.056 H 
ATOM     59  H6  XX9 d   1      11.523   9.432 -25.508  0.00  0.00     0.056 H 
ATOM     60  H7  XX9 d   1       9.740   9.541 -25.700  0.00  0.00     0.056 H 
ENDBRANCH  52  57
ENDBRANCH  46  52
ENDBRANCH   1  42
TORSDOF 12
