REMARK  10 active torsions:
REMARK  status: ('A' for Active; 'I' for Inactive)
REMARK    1  A    between atoms: N31_2  and  C6_4 
REMARK    2  A    between atoms: C8_8  and  C9_12 
REMARK    3  A    between atoms: C3_9  and  O2_10 
REMARK    4  A    between atoms: O2_10  and  C1_11 
REMARK    5  A    between atoms: C9_12  and  N10_13 
REMARK    6  A    between atoms: C12_16  and  C13_17 
REMARK    7  A    between atoms: C13_17  and  C14_18 
REMARK    8  A    between atoms: C20_23  and  C23_26 
REMARK    9  A    between atoms: C28_28  and  N29_29 
REMARK   10  A    between atoms: C25_31  and  N26_32 
ROOT
ATOM      1  N10 2T9 d   1     -19.274 -32.549  32.148  0.00  0.00    -0.351 N 
ATOM      2  C22 2T9 d   1     -19.750 -33.126  33.294  0.00  0.00     0.046 A 
ATOM      3  C17 2T9 d   1     -19.234 -32.403  34.388  0.00  0.00    -0.001 A 
ATOM      4  C12 2T9 d   1     -18.425 -31.334  33.804  0.00  0.00    -0.020 A 
ATOM      5  C11 2T9 d   1     -18.503 -31.468  32.459  0.00  0.00    -0.012 A 
ATOM      6  C21 2T9 d   1     -20.554 -34.238  33.496  0.00  0.00    -0.045 A 
ATOM      7  C20 2T9 d   1     -20.863 -34.629  34.798  0.00  0.00    -0.024 A 
ATOM      8  C19 2T9 d   1     -20.341 -33.902  35.882  0.00  0.00    -0.071 A 
ATOM      9  C18 2T9 d   1     -19.533 -32.803  35.693  0.00  0.00    -0.069 A 
ATOM     10  H   2T9 d   1     -18.023 -30.812  31.735  0.00  0.00     0.112 H 
ATOM     11  H   2T9 d   1     -20.938 -34.797  32.651  0.00  0.00     0.088 H 
ATOM     12  H   2T9 d   1     -20.581 -34.214  36.892  0.00  0.00     0.084 H 
ATOM     13  H   2T9 d   1     -19.136 -32.258  36.542  0.00  0.00     0.085 H 
ENDROOT
BRANCH   1  14
ATOM     14  C9  2T9 d   1     -19.645 -33.080  30.830  0.00  0.00     0.026 C 
ATOM     15  H   2T9 d   1     -19.337 -34.135  30.789  0.00  0.00     0.072 H 
ATOM     16  H   2T9 d   1     -20.738 -33.013  30.731  0.00  0.00     0.072 H 
BRANCH  14  17
ATOM     17  C8  2T9 d   1     -19.027 -32.369  29.661  0.00  0.00    -0.004 A 
ATOM     18  C7  2T9 d   1     -19.742 -31.381  29.013  0.00  0.00    -0.041 A 
ATOM     19  C6  2T9 d   1     -19.188 -30.737  27.920  0.00  0.00     0.103 A 
ATOM     20  H   2T9 d   1     -20.733 -31.111  29.359  0.00  0.00     0.088 H 
ATOM     21  C5  2T9 d   1     -17.923 -31.076  27.465  0.00  0.00    -0.048 A 
ATOM     22  C4  2T9 d   1     -17.210 -32.075  28.112  0.00  0.00    -0.048 A 
ATOM     23  H   2T9 d   1     -17.494 -30.565  26.611  0.00  0.00     0.087 H 
ATOM     24  C3  2T9 d   1     -17.763 -32.725  29.211  0.00  0.00     0.076 A 
ATOM     25  H   2T9 d   1     -16.222 -32.349  27.761  0.00  0.00     0.087 H 
BRANCH  19  26
ATOM     26  N31 2T9 d   1     -19.975 -29.670  27.261  0.00  0.00    -0.116 N 
ATOM     27  O33 2T9 d   1     -21.067 -29.355  27.741  0.00  0.00    -0.532 OA
ATOM     28  O32 2T9 d   1     -19.534 -29.105  26.264  0.00  0.00    -0.532 OA
ENDBRANCH  19  26
BRANCH  24  29
ATOM     29  O2  2T9 d   1     -17.072 -33.713  29.849  0.00  0.00    -0.355 OA
BRANCH  29  30
ATOM     30  C1  2T9 d   1     -15.862 -34.144  29.221  0.00  0.00     0.010 C 
ATOM     31  H   2T9 d   1     -15.398 -34.938  29.825  0.00  0.00     0.066 H 
ATOM     32  H   2T9 d   1     -15.169 -33.294  29.138  0.00  0.00     0.066 H 
ATOM     33  H   2T9 d   1     -16.088 -34.532  28.217  0.00  0.00     0.066 H 
ENDBRANCH  29  30
ENDBRANCH  24  29
ENDBRANCH  14  17
ENDBRANCH   1  14
BRANCH   4  34
ATOM     34  C13 2T9 d   1     -17.663 -30.290  34.596  0.00  0.00     0.042 C 
ATOM     35  H   2T9 d   1     -18.373 -29.603  35.078  0.00  0.00     0.056 H 
ATOM     36  H   2T9 d   1     -17.005 -29.723  33.921  0.00  0.00     0.056 H 
BRANCH  34  37
ATOM     37  C14 2T9 d   1     -16.827 -30.983  35.656  0.00  0.00     0.177 C 
ATOM     38  O16 2T9 d   1     -15.953 -31.936  35.296  0.00  0.00    -0.648 OA
ATOM     39  O15 2T9 d   1     -16.949 -30.715  36.828  0.00  0.00    -0.648 OA
ENDBRANCH  34  37
ENDBRANCH   4  34
BRANCH   7  40
ATOM     40  C23 2T9 d   1     -21.728 -35.828  35.013  0.00  0.00    -0.022 A 
ATOM     41  C30 2T9 d   1     -21.558 -36.650  36.135  0.00  0.00    -0.047 A 
ATOM     42  C28 2T9 d   1     -22.374 -37.770  36.328  0.00  0.00     0.028 A 
ATOM     43  H   2T9 d   1     -20.787 -36.416  36.860  0.00  0.00     0.088 H 
ATOM     44  C27 2T9 d   1     -23.349 -38.080  35.390  0.00  0.00    -0.033 A 
ATOM     45  C25 2T9 d   1     -23.511 -37.275  34.265  0.00  0.00     0.028 A 
ATOM     46  H   2T9 d   1     -23.983 -38.947  35.533  0.00  0.00     0.090 H 
ATOM     47  C24 2T9 d   1     -22.705 -36.158  34.071  0.00  0.00    -0.047 A 
ATOM     48  H   2T9 d   1     -22.835 -35.543  33.188  0.00  0.00     0.088 H 
BRANCH  42  49
ATOM     49  N29 2T9 d   1     -22.215 -38.592  37.456  0.00  0.00    -0.399 N 
ATOM     50  H   2T9 d   1     -22.823 -39.413  37.585  0.00  0.00     0.156 HD
ATOM     51  H   2T9 d   1     -21.490 -38.373  38.154  0.00  0.00     0.156 HD
ENDBRANCH  42  49
BRANCH  45  52
ATOM     52  N26 2T9 d   1     -24.498 -37.584  33.330  0.00  0.00    -0.399 N 
ATOM     53  H   2T9 d   1     -24.621 -36.992  32.496  0.00  0.00     0.156 HD
ATOM     54  H   2T9 d   1     -25.104 -38.405  33.473  0.00  0.00     0.156 HD
ENDBRANCH  45  52
ENDBRANCH   7  40
TORSDOF 10
