REMARK  8 active torsions:
REMARK  status: ('A' for Active; 'I' for Inactive)
REMARK    1  A    between atoms: C2_2  and  C2A_3 
REMARK    2  A    between atoms: C3_4  and  O3_5 
REMARK    3  A    between atoms: C4_6  and  C4A_7 
REMARK    4  A    between atoms: C4A_7  and  N_16 
REMARK    5  A    between atoms: C5_8  and  C5A_10 
REMARK    6  A    between atoms: C5A_10  and  O4P_11 
REMARK    7  A    between atoms: O4P_11  and  P_12 
REMARK    8  A    between atoms: N_16  and  CA_17 
ROOT
ATOM      1  N1  LCS d   1       4.449  21.193  14.326  0.00  0.00    -0.262 NA
ATOM      2  C2  LCS d   1       5.346  20.634  15.160  0.00  0.00     0.064 C 
ATOM      3  C3  LCS d   1       6.413  19.912  14.596  0.00  0.00     0.098 C 
ATOM      4  C4  LCS d   1       6.517  19.607  13.240  0.00  0.00     0.004 C 
ATOM      5  C5  LCS d   1       5.530  20.181  12.389  0.00  0.00    -0.006 C 
ATOM      6  C6  LCS d   1       4.496  20.955  12.998  0.00  0.00     0.011 C 
ATOM      7  H7  LCS d   1       3.717  21.369  12.368  0.00  0.00     0.115 H 
ENDROOT
BRANCH   4   8
ATOM      8  C4A LCS d   1       7.523  18.837  12.644  0.00  0.00     0.020 C 
ATOM      9  H5  LCS d   1       7.972  19.420  11.827  0.00  0.00     0.071 H 
ATOM     10  H6  LCS d   1       7.068  17.923  12.235  0.00  0.00     0.071 H 
BRANCH   8  11
ATOM     11  N   LCS d   1       8.598  18.446  13.592  0.00  0.00    -0.380 N 
ATOM     12  H10 LCS d   1       8.444  18.579  14.602  0.00  0.00     0.160 HD
BRANCH  11  13
ATOM     13  CA  LCS d   1       9.769  17.922  13.174  0.00  0.00     0.109 A 
ATOM     14  C   LCS d   1      10.802  17.638  13.975  0.00  0.00     0.227 A 
ATOM     15  O   LCS d   1      10.858  17.860  15.315  0.00  0.00    -0.168 OA
ATOM     16  ND  LCS d   1      11.817  17.144  13.267  0.00  0.00    -0.235 N 
ATOM     17  OG  LCS d   1      11.288  17.075  11.748  0.00  0.00    -0.246 OA
ATOM     18  H11 LCS d   1      12.717  16.873  13.607  0.00  0.00     0.197 HD
ATOM     19  CB  LCS d   1      10.001  17.608  11.830  0.00  0.00     0.071 A 
ATOM     20  H12 LCS d   1       9.307  17.753  11.003  0.00  0.00     0.130 H 
ENDBRANCH  11  13
ENDBRANCH   8  11
ENDBRANCH   4   8
BRANCH   3  21
ATOM     21  O3  LCS d   1       7.250  19.392  15.504  0.00  0.00    -0.358 OA
ATOM     22  H4  LCS d   1       7.944  18.920  15.059  0.00  0.00     0.217 HD
ENDBRANCH   3  21
BRANCH   5  23
ATOM     23  C5A LCS d   1       5.465  20.073  10.921  0.00  0.00     0.058 C 
ATOM     24  H8  LCS d   1       6.463  20.261  10.498  0.00  0.00     0.082 H 
ATOM     25  H9  LCS d   1       4.755  20.818  10.532  0.00  0.00     0.082 H 
BRANCH  23  26
ATOM     26  O4P LCS d   1       5.043  18.802  10.556  0.00  0.00    -0.278 OA
BRANCH  26  27
ATOM     27  P   LCS d   1       5.315  17.991   9.191  0.00  0.00     0.422 P 
ATOM     28  O1P LCS d   1       5.022  18.941   8.138  0.00  0.00    -0.617 OA
ATOM     29  O2P LCS d   1       6.829  17.698   9.366  0.00  0.00    -0.617 OA
ATOM     30  O3P LCS d   1       4.507  16.790   9.282  0.00  0.00    -0.617 OA
ENDBRANCH  26  27
ENDBRANCH  23  26
ENDBRANCH   5  23
BRANCH   2  31
ATOM     31  C2A LCS d   1       5.232  20.900  16.542  0.00  0.00    -0.033 C 
ATOM     32  H1  LCS d   1       6.032  20.375  17.084  0.00  0.00     0.035 H 
ATOM     33  H2  LCS d   1       4.254  20.550  16.903  0.00  0.00     0.035 H 
ATOM     34  H3  LCS d   1       5.321  21.983  16.716  0.00  0.00     0.035 H 
ENDBRANCH   2  31
TORSDOF 8
