REMARK  26 active torsions:
REMARK  status: ('A' for Active; 'I' for Inactive)
REMARK    1  A    between atoms: C8_1  and  C9_13 
REMARK    2  A    between atoms: C9_13  and  N1_4 
REMARK       I    between atoms: N1_4  and  C10_14 
REMARK    3  A    between atoms: C1_9  and  C2_5 
REMARK       I    between atoms: C2_5  and  N_15 
REMARK       I    between atoms: C10_14  and  N2_6 
REMARK       I    between atoms: C10_14  and  N3_7 
REMARK    4  A    between atoms: C1_9  and  C3_11 
REMARK    5  A    between atoms: N_15  and  CA_16 
REMARK    6  A    between atoms: CA_16  and  C_17 
REMARK    7  A    between atoms: CA_16  and  CB_19 
REMARK       I    between atoms: C_17  and  N_26 
REMARK    8  A    between atoms: CB_19  and  CG_20 
REMARK    9  A    between atoms: CG_20  and  CD_21 
REMARK   10  A    between atoms: CD_21  and  NE_22 
REMARK       I    between atoms: NE_22  and  CZ_23 
REMARK       I    between atoms: CZ_23  and  NH1_24 
REMARK       I    between atoms: CZ_23  and  NH2_25 
REMARK   11  A    between atoms: N_26  and  CA_27 
REMARK   12  A    between atoms: CA_27  and  C_28 
REMARK   13  A    between atoms: CA_27  and  CB_30 
REMARK       I    between atoms: C_28  and  N_33 
REMARK   14  A    between atoms: CB_30  and  CG1_31 
REMARK   15  A    between atoms: CB_30  and  CG2_32 
REMARK   16  A    between atoms: N_33  and  CA_34 
REMARK   17  A    between atoms: CA_34  and  C_35 
REMARK   18  A    between atoms: CA_34  and  CB_37 
REMARK       I    between atoms: C_35  and  N23_44 
REMARK   19  A    between atoms: CB_37  and  CG_38 
REMARK   20  A    between atoms: CG_38  and  CD_39 
REMARK   21  A    between atoms: CD_39  and  NE_40 
REMARK       I    between atoms: NE_40  and  CZ_41 
REMARK       I    between atoms: CZ_41  and  NH1_42 
REMARK       I    between atoms: CZ_41  and  NH2_43 
REMARK   22  A    between atoms: N23_44  and  C16_45 
REMARK   23  A    between atoms: C16_45  and  C17_46 
REMARK   24  A    between atoms: C24_49  and  C27_50 
REMARK   25  A    between atoms: C27_50  and  N35_51 
REMARK   26  A    between atoms: C27_50  and  N34_52 
ROOT
ATOM      1  CA  VAL d   1      27.447  30.819  -6.523  0.00  0.00     0.092 C 
ATOM      2  H   VAL d   1      28.260  31.554  -6.428  0.00  0.00     0.088 H 
ENDROOT
BRANCH   1   3
ATOM      3  N   VAL d   1      28.034  29.495  -6.374  0.00  0.00    -0.346 N 
ATOM      4  C   ARG d   1      29.338  29.319  -6.169  0.00  0.00     0.241 C 
ATOM      5  O   ARG d   1      30.127  30.246  -6.044  0.00  0.00    -0.271 OA
ATOM      6  H   VAL d   1      27.439  28.693  -6.427  0.00  0.00     0.163 HD
BRANCH   4   7
ATOM      7  CA  ARG d   1      29.820  27.881  -6.088  0.00  0.00     0.089 C 
ATOM      8  H   ARG d   1      28.999  27.213  -6.389  0.00  0.00     0.087 H 
BRANCH   7   9
ATOM      9  N   ARG d   1      30.943  27.700  -6.995  0.00  0.00    -0.348 N 
ATOM     10  C2  2UC d   1      30.941  26.738  -7.904  0.00  0.00     0.222 C 
ATOM     11  O1  2UC d   1      30.032  25.935  -8.029  0.00  0.00    -0.273 OA
ATOM     12  H   ARG d   1      31.730  28.313  -6.931  0.00  0.00     0.163 HD
BRANCH  10  13
ATOM     13  C1  2UC d   1      32.185  26.686  -8.754  0.00  0.00     0.033 C 
ATOM     14  H   2UC d   1      32.878  27.464  -8.401  0.00  0.00     0.054 H 
ATOM     15  H   2UC d   1      31.901  26.894  -9.796  0.00  0.00     0.054 H 
BRANCH  13  16
ATOM     16  C3  2UC d   1      32.900  25.364  -8.714  0.00  0.00    -0.049 A 
ATOM     17  C5  2UC d   1      33.865  25.098  -7.710  0.00  0.00    -0.069 A 
ATOM     18  C8  2UC d   1      34.453  23.829  -7.570  0.00  0.00    -0.040 A 
ATOM     19  H   2UC d   1      34.157  25.893  -7.033  0.00  0.00     0.085 H 
ATOM     20  C7  2UC d   1      34.071  22.800  -8.459  0.00  0.00    -0.075 A 
ATOM     21  C6  2UC d   1      33.109  23.043  -9.485  0.00  0.00    -0.082 A 
ATOM     22  H   2UC d   1      34.513  21.815  -8.361  0.00  0.00     0.084 H 
ATOM     23  C4  2UC d   1      32.530  24.331  -9.604  0.00  0.00    -0.076 A 
ATOM     24  H   2UC d   1      32.824  22.250 -10.167  0.00  0.00     0.083 H 
ATOM     25  H   2UC d   1      31.800  24.524 -10.382  0.00  0.00     0.084 H 
BRANCH  18  26
ATOM     26  C9  2UC d   1      35.465  23.560  -6.485  0.00  0.00     0.033 C 
ATOM     27  H   2UC d   1      35.489  24.418  -5.796  0.00  0.00     0.072 H 
ATOM     28  H   2UC d   1      36.456  23.430  -6.944  0.00  0.00     0.072 H 
BRANCH  26  29
ATOM     29  N1  2UC d   1      35.127  22.354  -5.732  0.00  0.00    -0.223 N 
ATOM     30  C10 2UC d   1      34.366  22.327  -4.637  0.00  0.00     0.665 C 
ATOM     31  N2  2UC d   1      33.916  23.458  -4.088  0.00  0.00    -0.235 N 
ATOM     32  N3  2UC d   1      34.103  21.167  -4.056  0.00  0.00    -0.235 N 
ATOM     33  H   2UC d   1      33.329  23.422  -3.242  0.00  0.00     0.174 HD
ATOM     34  H   2UC d   1      34.156  24.366  -4.510  0.00  0.00     0.174 HD
ATOM     35  H   2UC d   1      34.447  20.291  -4.475  0.00  0.00     0.174 HD
ATOM     36  H   2UC d   1      33.554  21.140  -3.185  0.00  0.00     0.174 HD
ATOM     37  H   2UC d   1      35.505  21.458  -6.072  0.00  0.00     0.178 HD
ENDBRANCH  26  29
ENDBRANCH  18  26
ENDBRANCH  13  16
ENDBRANCH  10  13
ENDBRANCH   7   9
BRANCH   7  38
ATOM     38  CB  ARG d   1      30.255  27.520  -4.667  0.00  0.00    -0.036 C 
ATOM     39  H   ARG d   1      29.383  27.609  -4.003  0.00  0.00     0.036 H 
ATOM     40  H   ARG d   1      31.032  28.231  -4.349  0.00  0.00     0.036 H 
BRANCH  38  41
ATOM     41  CG  ARG d   1      30.824  26.083  -4.541  0.00  0.00    -0.048 C 
ATOM     42  H   ARG d   1      31.123  25.899  -3.499  0.00  0.00     0.035 H 
ATOM     43  H   ARG d   1      31.700  25.978  -5.198  0.00  0.00     0.035 H 
BRANCH  41  44
ATOM     44  CD  ARG d   1      29.771  25.078  -4.945  0.00  0.00     0.009 C 
ATOM     45  H   ARG d   1      29.530  25.238  -6.006  0.00  0.00     0.064 H 
ATOM     46  H   ARG d   1      28.873  25.254  -4.334  0.00  0.00     0.064 H 
BRANCH  44  47
ATOM     47  NE  ARG d   1      30.178  23.685  -4.772  0.00  0.00    -0.227 N 
ATOM     48  CZ  ARG d   1      30.391  22.842  -5.782  0.00  0.00     0.665 C 
ATOM     49  NH1 ARG d   1      30.745  21.583  -5.548  0.00  0.00    -0.235 N 
ATOM     50  NH2 ARG d   1      30.262  23.266  -7.038  0.00  0.00    -0.235 N 
ATOM     51  H   ARG d   1      30.907  20.939  -6.335  0.00  0.00     0.174 HD
ATOM     52  H   ARG d   1      30.857  21.251  -4.579  0.00  0.00     0.174 HD
ATOM     53  H   ARG d   1      29.988  24.241  -7.227  0.00  0.00     0.174 HD
ATOM     54  H   ARG d   1      30.436  22.619  -7.820  0.00  0.00     0.174 HD
ATOM     55  H   ARG d   1      30.308  23.334  -3.812  0.00  0.00     0.177 HD
ENDBRANCH  44  47
ENDBRANCH  41  44
ENDBRANCH  38  41
ENDBRANCH   7  38
ENDBRANCH   4   7
ENDBRANCH   1   3
BRANCH   1  56
ATOM     56  C   VAL d   1      26.380  31.163  -5.496  0.00  0.00     0.241 C 
ATOM     57  O   VAL d   1      25.758  30.271  -4.908  0.00  0.00    -0.271 OA
ATOM     58  N   ARG d   1      26.173  32.463  -5.296  0.00  0.00    -0.346 N 
ATOM     59  H   ARG d   1      26.732  33.125  -5.796  0.00  0.00     0.163 HD
BRANCH  58  60
ATOM     60  CA  ARG d   1      25.160  32.950  -4.374  0.00  0.00     0.089 C 
ATOM     61  H   ARG d   1      25.309  32.511  -3.377  0.00  0.00     0.087 H 
BRANCH  60  62
ATOM     62  C   ARG d   1      23.814  32.510  -4.951  0.00  0.00     0.240 C 
ATOM     63  O   ARG d   1      23.583  32.612  -6.154  0.00  0.00    -0.271 OA
ATOM     64  N23 00S d   1      22.927  32.029  -4.090  0.00  0.00    -0.355 N 
ATOM     65  H   00S d   1      23.168  31.983  -3.120  0.00  0.00     0.162 HD
BRANCH  64  66
ATOM     66  C16 00S d   1      21.620  31.568  -4.512  0.00  0.00     0.019 C 
ATOM     67  H   00S d   1      21.356  32.044  -5.468  0.00  0.00     0.071 H 
ATOM     68  H   00S d   1      20.874  31.838  -3.750  0.00  0.00     0.071 H 
BRANCH  66  69
ATOM     69  C17 00S d   1      21.637  30.074  -4.687  0.00  0.00    -0.040 A 
ATOM     70  C22 00S d   1      21.328  29.229  -3.609  0.00  0.00    -0.074 A 
ATOM     71  C21 00S d   1      21.434  27.822  -3.735  0.00  0.00    -0.069 A 
ATOM     72  H   00S d   1      21.004  29.659  -2.668  0.00  0.00     0.084 H 
ATOM     73  C24 00S d   1      21.851  27.234  -4.944  0.00  0.00     0.007 A 
ATOM     74  H   00S d   1      21.191  27.190  -2.889  0.00  0.00     0.085 H 
ATOM     75  C19 00S d   1      22.150  28.077  -6.028  0.00  0.00    -0.069 A 
ATOM     76  C18 00S d   1      22.046  29.495  -5.903  0.00  0.00    -0.074 A 
ATOM     77  H   00S d   1      22.464  27.645  -6.971  0.00  0.00     0.085 H 
ATOM     78  H   00S d   1      22.283  30.130  -6.749  0.00  0.00     0.084 H 
BRANCH  73  79
ATOM     79  C27 00S d   1      21.949  25.733  -5.081  0.00  0.00     0.102 C 
BRANCH  79  80
ATOM     80  N35 00S d   1      21.328  24.983  -4.175  0.00  0.00    -0.385 N 
ATOM     81  H   00S d   1      21.374  23.956  -4.238  0.00  0.00     0.157 HD
ATOM     82  H   00S d   1      20.801  25.429  -3.411  0.00  0.00     0.157 HD
ENDBRANCH  79  80
BRANCH  79  83
ATOM     83  N34 00S d   1      22.652  25.161  -6.052  0.00  0.00    -0.385 N 
ATOM     84  H   00S d   1      23.132  25.744  -6.752  0.00  0.00     0.157 HD
ATOM     85  H   00S d   1      22.717  24.134  -6.105  0.00  0.00     0.157 HD
ENDBRANCH  79  83
ENDBRANCH  73  79
ENDBRANCH  66  69
ENDBRANCH  64  66
ENDBRANCH  60  62
BRANCH  60  86
ATOM     86  CB  ARG d   1      25.223  34.479  -4.273  0.00  0.00    -0.036 C 
ATOM     87  H   ARG d   1      24.371  34.818  -3.665  0.00  0.00     0.036 H 
ATOM     88  H   ARG d   1      25.137  34.893  -5.288  0.00  0.00     0.036 H 
BRANCH  86  89
ATOM     89  CG  ARG d   1      26.500  35.024  -3.645  0.00  0.00    -0.048 C 
ATOM     90  H   ARG d   1      27.370  34.566  -4.137  0.00  0.00     0.035 H 
ATOM     91  H   ARG d   1      26.512  34.776  -2.574  0.00  0.00     0.035 H 
BRANCH  89  92
ATOM     92  CD  ARG d   1      26.568  36.532  -3.810  0.00  0.00     0.009 C 
ATOM     93  H   ARG d   1      25.735  36.981  -3.249  0.00  0.00     0.064 H 
ATOM     94  H   ARG d   1      26.461  36.770  -4.879  0.00  0.00     0.064 H 
BRANCH  92  95
ATOM     95  NE  ARG d   1      27.818  37.120  -3.329  0.00  0.00    -0.227 N 
ATOM     96  CZ  ARG d   1      28.992  36.984  -3.938  0.00  0.00     0.665 C 
ATOM     97  NH1 ARG d   1      29.091  36.270  -5.059  0.00  0.00    -0.235 N 
ATOM     98  NH2 ARG d   1      30.067  37.580  -3.437  0.00  0.00    -0.235 N 
ATOM     99  H   ARG d   1      30.003  36.168  -5.526  0.00  0.00     0.174 HD
ATOM    100  H   ARG d   1      28.255  35.820  -5.458  0.00  0.00     0.174 HD
ATOM    101  H   ARG d   1      29.993  38.132  -2.571  0.00  0.00     0.174 HD
ATOM    102  H   ARG d   1      30.975  37.490  -3.914  0.00  0.00     0.174 HD
ATOM    103  H   ARG d   1      27.787  37.675  -2.462  0.00  0.00     0.177 HD
ENDBRANCH  92  95
ENDBRANCH  89  92
ENDBRANCH  86  89
ENDBRANCH  60  86
ENDBRANCH  58  60
ENDBRANCH   1  56
BRANCH   1 104
ATOM    104  CB  VAL d   1      26.806  30.956  -7.919  0.00  0.00    -0.033 C 
ATOM    105  H   VAL d   1      26.434  31.983  -8.047  0.00  0.00     0.042 H 
BRANCH 104 106
ATOM    106  CG1 VAL d   1      27.846  30.654  -8.998  0.00  0.00    -0.071 C 
ATOM    107  H   VAL d   1      27.383  30.753  -9.991  0.00  0.00     0.028 H 
ATOM    108  H   VAL d   1      28.221  29.628  -8.869  0.00  0.00     0.028 H 
ATOM    109  H   VAL d   1      28.682  31.364  -8.910  0.00  0.00     0.028 H 
ENDBRANCH 104 106
BRANCH 104 110
ATOM    110  CG2 VAL d   1      25.652  29.984  -8.058  0.00  0.00    -0.071 C 
ATOM    111  H   VAL d   1      24.899  30.195  -7.284  0.00  0.00     0.028 H 
ATOM    112  H   VAL d   1      26.023  28.955  -7.938  0.00  0.00     0.028 H 
ATOM    113  H   VAL d   1      25.196  30.096  -9.053  0.00  0.00     0.028 H 
ENDBRANCH 104 110
ENDBRANCH   1 104
TORSDOF 26
