REMARK  28 active torsions:
REMARK  status: ('A' for Active; 'I' for Inactive)
REMARK    1  A    between atoms: CBA_1  and  CAY_2 
REMARK    2  A    between atoms: CAY_2  and  CBB_3 
REMARK    3  A    between atoms: CAX_5  and  CAW_6 
REMARK    4  A    between atoms: CAW_6  and  CAV_7 
REMARK    5  A    between atoms: CAV_7  and  CAT_8 
REMARK    6  A    between atoms: CAT_8  and  CAU_9 
REMARK    7  A    between atoms: CAT_8  and  CAS_10 
REMARK    8  A    between atoms: CAS_10  and  CAR_11 
REMARK    9  A    between atoms: CAR_11  and  CAQ_12 
REMARK   10  A    between atoms: CAQ_12  and  CAO_13 
REMARK   11  A    between atoms: CAO_13  and  CAP_14 
REMARK   12  A    between atoms: CAO_13  and  CAN_15 
REMARK   13  A    between atoms: CAN_15  and  CAM_16 
REMARK   14  A    between atoms: CAM_16  and  CAL_17 
REMARK   15  A    between atoms: CAL_17  and  CAK_18 
REMARK   16  A    between atoms: CAK_18  and  CAJ_19 
REMARK   17  A    between atoms: CAJ_19  and  CBC_20 
REMARK   18  A    between atoms: CAJ_19  and  CAI_21 
REMARK   19  A    between atoms: CAI_21  and  CAH_22 
REMARK   20  A    between atoms: CAH_22  and  CAG_23 
REMARK   21  A    between atoms: CAG_23  and  CAF_24 
REMARK   22  A    between atoms: CAF_24  and  CBD_25 
REMARK   23  A    between atoms: CAF_24  and  CAE_26 
REMARK   24  A    between atoms: CAE_26  and  CAD_27 
REMARK   25  A    between atoms: CAD_27  and  CAC_28 
REMARK   26  A    between atoms: CAC_28  and  CAB_29 
REMARK   27  A    between atoms: CAB_29  and  CBE_30 
REMARK   28  A    between atoms: CAB_29  and  CAA_31 
ROOT
ATOM      1  CAL 2TX d   1      91.760   8.172   7.906  0.00  0.00    -0.065 C 
ATOM      2  H30 2TX d   1      91.468   8.748   8.796  0.00  0.00     0.033 H 
ATOM      3  H31 2TX d   1      91.060   7.336   7.765  0.00  0.00     0.033 H 
ENDROOT
BRANCH   1   4
ATOM      4  CAM 2TX d   1      93.136   7.604   8.139  0.00  0.00    -0.065 C 
ATOM      5  H28 2TX d   1      93.490   7.050   7.257  0.00  0.00     0.033 H 
ATOM      6  H29 2TX d   1      93.856   8.398   8.386  0.00  0.00     0.033 H 
BRANCH   4   7
ATOM      7  CAN 2TX d   1      92.919   6.668   9.327  0.00  0.00    -0.062 C 
ATOM      8  H26 2TX d   1      93.242   7.196  10.237  0.00  0.00     0.033 H 
ATOM      9  H27 2TX d   1      91.843   6.449   9.393  0.00  0.00     0.033 H 
BRANCH   7  10
ATOM     10  CAO 2TX d   1      93.651   5.366   9.266  0.00  0.00    -0.058 C 
ATOM     11  H22 2TX d   1      92.811   4.913   8.719  0.00  0.00     0.039 H 
BRANCH  10  12
ATOM     12  CAQ 2TX d   1      93.483   4.357  10.373  0.00  0.00    -0.062 C 
ATOM     13  H20 2TX d   1      94.462   4.127  10.819  0.00  0.00     0.033 H 
ATOM     14  H21 2TX d   1      92.813   4.761  11.147  0.00  0.00     0.033 H 
BRANCH  12  15
ATOM     15  CAR 2TX d   1      92.880   3.097   9.777  0.00  0.00    -0.064 C 
ATOM     16  H18 2TX d   1      93.394   2.840   8.839  0.00  0.00     0.033 H 
ATOM     17  H19 2TX d   1      92.973   2.262  10.487  0.00  0.00     0.033 H 
BRANCH  15  18
ATOM     18  CAS 2TX d   1      91.416   3.390   9.506  0.00  0.00    -0.062 C 
ATOM     19  H16 2TX d   1      91.037   4.023  10.322  0.00  0.00     0.033 H 
ATOM     20  H17 2TX d   1      91.347   3.938   8.555  0.00  0.00     0.033 H 
BRANCH  18  21
ATOM     21  CAT 2TX d   1      90.533   2.165   9.410  0.00  0.00    -0.058 C 
ATOM     22  H12 2TX d   1      90.674   2.080   8.322  0.00  0.00     0.039 H 
BRANCH  21  23
ATOM     23  CAV 2TX d   1      89.023   2.366   9.258  0.00  0.00    -0.060 C 
ATOM     24  H10 2TX d   1      88.558   2.171  10.236  0.00  0.00     0.033 H 
ATOM     25  H11 2TX d   1      88.851   3.414   8.973  0.00  0.00     0.033 H 
BRANCH  23  26
ATOM     26  CAW 2TX d   1      88.338   1.494   8.241  0.00  0.00    -0.038 C 
ATOM     27  H8  2TX d   1      88.558   1.860   7.227  0.00  0.00     0.036 H 
ATOM     28  H9  2TX d   1      88.690   0.457   8.341  0.00  0.00     0.036 H 
BRANCH  26  29
ATOM     29  CAX 2TX d   1      86.829   1.558   8.501  0.00  0.00     0.069 A 
ATOM     30  CAY 2TX d   1      86.036   1.096   7.346  0.00  0.00     0.080 A 
ATOM     31  OAZ 2TX d   1      86.137   0.250   8.524  0.00  0.00    -0.370 OA
ATOM     32  H7  2TX d   1      86.535   2.399   9.146  0.00  0.00     0.087 H 
BRANCH  30  33
ATOM     33  CBA 2TX d   1      84.621   1.606   7.060  0.00  0.00    -0.046 C 
ATOM     34  H1  2TX d   1      84.633   2.235   6.157  0.00  0.00     0.031 H 
ATOM     35  H2  2TX d   1      84.265   2.199   7.915  0.00  0.00     0.031 H 
ATOM     36  H3  2TX d   1      83.948   0.750   6.902  0.00  0.00     0.031 H 
ENDBRANCH  30  33
BRANCH  30  37
ATOM     37  CBB 2TX d   1      86.864   0.836   6.105  0.00  0.00    -0.046 C 
ATOM     38  H4  2TX d   1      87.861   0.474   6.398  0.00  0.00     0.031 H 
ATOM     39  H5  2TX d   1      86.967   1.768   5.531  0.00  0.00     0.031 H 
ATOM     40  H6  2TX d   1      86.366   0.076   5.485  0.00  0.00     0.031 H 
ENDBRANCH  30  37
ENDBRANCH  26  29
ENDBRANCH  23  26
ENDBRANCH  21  23
BRANCH  21  41
ATOM     41  CAU 2TX d   1      91.150   0.792   9.654  0.00  0.00    -0.073 C 
ATOM     42  H13 2TX d   1      92.243   0.889   9.730  0.00  0.00     0.028 H 
ATOM     43  H14 2TX d   1      90.899   0.123   8.818  0.00  0.00     0.028 H 
ATOM     44  H15 2TX d   1      90.754   0.373  10.591  0.00  0.00     0.028 H 
ENDBRANCH  21  41
ENDBRANCH  18  21
ENDBRANCH  15  18
ENDBRANCH  12  15
ENDBRANCH  10  12
BRANCH  10  45
ATOM     45  CAP 2TX d   1      94.577   5.071   8.101  0.00  0.00    -0.073 C 
ATOM     46  H23 2TX d   1      94.567   5.919   7.401  0.00  0.00     0.028 H 
ATOM     47  H24 2TX d   1      94.236   4.163   7.582  0.00  0.00     0.028 H 
ATOM     48  H25 2TX d   1      95.600   4.917   8.476  0.00  0.00     0.028 H 
ENDBRANCH  10  45
ENDBRANCH   7  10
ENDBRANCH   4   7
ENDBRANCH   1   4
BRANCH   1  49
ATOM     49  CAK 2TX d   1      91.666   9.088   6.689  0.00  0.00    -0.062 C 
ATOM     50  H32 2TX d   1      90.906   8.685   6.003  0.00  0.00     0.033 H 
ATOM     51  H33 2TX d   1      92.643   9.104   6.185  0.00  0.00     0.033 H 
BRANCH  49  52
ATOM     52  CAJ 2TX d   1      91.285  10.509   7.053  0.00  0.00    -0.058 C 
ATOM     53  H34 2TX d   1      92.341  10.806   7.127  0.00  0.00     0.039 H 
BRANCH  52  54
ATOM     54  CBC 2TX d   1      91.022  10.906   8.508  0.00  0.00    -0.073 C 
ATOM     55  H35 2TX d   1      90.762  11.974   8.555  0.00  0.00     0.028 H 
ATOM     56  H36 2TX d   1      91.926  10.722   9.107  0.00  0.00     0.028 H 
ATOM     57  H37 2TX d   1      90.189  10.308   8.907  0.00  0.00     0.028 H 
ENDBRANCH  52  54
BRANCH  52  58
ATOM     58  CAI 2TX d   1      91.024  11.514   5.966  0.00  0.00    -0.062 C 
ATOM     59  H38 2TX d   1      91.338  11.116   4.990  0.00  0.00     0.033 H 
ATOM     60  H39 2TX d   1      91.562  12.451   6.171  0.00  0.00     0.033 H 
BRANCH  58  61
ATOM     61  CAH 2TX d   1      89.511  11.749   5.987  0.00  0.00    -0.064 C 
ATOM     62  H40 2TX d   1      89.284  12.568   6.685  0.00  0.00     0.033 H 
ATOM     63  H41 2TX d   1      89.009  10.830   6.324  0.00  0.00     0.033 H 
BRANCH  61  64
ATOM     64  CAG 2TX d   1      89.001  12.116   4.608  0.00  0.00    -0.062 C 
ATOM     65  H42 2TX d   1      88.597  11.200   4.151  0.00  0.00     0.033 H 
ATOM     66  H43 2TX d   1      89.862  12.470   4.021  0.00  0.00     0.033 H 
BRANCH  64  67
ATOM     67  CAF 2TX d   1      87.919  13.185   4.522  0.00  0.00    -0.058 C 
ATOM     68  H44 2TX d   1      88.677  13.977   4.431  0.00  0.00     0.039 H 
BRANCH  67  69
ATOM     69  CBD 2TX d   1      87.338  13.838   5.767  0.00  0.00    -0.073 C 
ATOM     70  H45 2TX d   1      86.577  14.576   5.473  0.00  0.00     0.028 H 
ATOM     71  H46 2TX d   1      88.141  14.342   6.325  0.00  0.00     0.028 H 
ATOM     72  H47 2TX d   1      86.876  13.069   6.403  0.00  0.00     0.028 H 
ENDBRANCH  67  69
BRANCH  67  73
ATOM     73  CAE 2TX d   1      87.327  13.531   3.163  0.00  0.00    -0.062 C 
ATOM     74  H48 2TX d   1      88.097  13.455   2.381  0.00  0.00     0.033 H 
ATOM     75  H49 2TX d   1      86.915  14.551   3.174  0.00  0.00     0.033 H 
BRANCH  73  76
ATOM     76  CAD 2TX d   1      86.208  12.505   2.913  0.00  0.00    -0.064 C 
ATOM     77  H50 2TX d   1      86.568  11.499   3.174  0.00  0.00     0.033 H 
ATOM     78  H51 2TX d   1      85.920  12.528   1.852  0.00  0.00     0.033 H 
BRANCH  76  79
ATOM     79  CAC 2TX d   1      84.994  12.854   3.780  0.00  0.00    -0.062 C 
ATOM     80  H52 2TX d   1      84.237  13.308   3.124  0.00  0.00     0.033 H 
ATOM     81  H53 2TX d   1      85.321  13.592   4.527  0.00  0.00     0.033 H 
BRANCH  79  82
ATOM     82  CAB 2TX d   1      84.323  11.703   4.531  0.00  0.00    -0.061 C 
ATOM     83  H54 2TX d   1      83.670  11.515   3.666  0.00  0.00     0.038 H 
BRANCH  82  84
ATOM     84  CBE 2TX d   1      84.867  10.275   4.436  0.00  0.00    -0.073 C 
ATOM     85  H55 2TX d   1      84.245   9.604   5.046  0.00  0.00     0.028 H 
ATOM     86  H56 2TX d   1      85.903  10.252   4.806  0.00  0.00     0.028 H 
ATOM     87  H57 2TX d   1      84.845   9.943   3.388  0.00  0.00     0.028 H 
ENDBRANCH  82  84
BRANCH  82  88
ATOM     88  CAA 2TX d   1      83.104  11.989   5.406  0.00  0.00    -0.073 C 
ATOM     89  H58 2TX d   1      82.858  13.060   5.353  0.00  0.00     0.028 H 
ATOM     90  H59 2TX d   1      83.328  11.716   6.448  0.00  0.00     0.028 H 
ATOM     91  H60 2TX d   1      82.249  11.398   5.048  0.00  0.00     0.028 H 
ENDBRANCH  82  88
ENDBRANCH  79  82
ENDBRANCH  76  79
ENDBRANCH  73  76
ENDBRANCH  67  73
ENDBRANCH  64  67
ENDBRANCH  61  64
ENDBRANCH  58  61
ENDBRANCH  52  58
ENDBRANCH  49  52
ENDBRANCH   1  49
TORSDOF 28
