REMARK  29 active torsions:
REMARK  status: ('A' for Active; 'I' for Inactive)
REMARK    1  A    between atoms: C1_1  and  C2_2 
REMARK    2  A    between atoms: C2_2  and  C3_3 
REMARK    3  A    between atoms: C2_2  and  C4_4 
REMARK    4  A    between atoms: C4_4  and  C5_5 
REMARK    5  A    between atoms: C5_5  and  C6_6 
REMARK    6  A    between atoms: C6_6  and  C7_7 
REMARK    7  A    between atoms: C7_7  and  C8_8 
REMARK    8  A    between atoms: C7_7  and  C9_9 
REMARK    9  A    between atoms: C9_9  and  C10_10 
REMARK   10  A    between atoms: C10_10  and  C11_11 
REMARK   11  A    between atoms: C11_11  and  C12_12 
REMARK   12  A    between atoms: C12_12  and  C13_13 
REMARK   13  A    between atoms: C12_12  and  C14_14 
REMARK   14  A    between atoms: C14_14  and  C15_15 
REMARK   15  A    between atoms: C15_15  and  C16_16 
REMARK   16  A    between atoms: C16_16  and  C17_17 
REMARK   17  A    between atoms: C17_17  and  C18_18 
REMARK   18  A    between atoms: C18_18  and  C19_19 
REMARK   19  A    between atoms: C18_18  and  C20_20 
REMARK   20  A    between atoms: C20_20  and  C21_21 
REMARK   21  A    between atoms: C21_21  and  C22_22 
REMARK   22  A    between atoms: C22_22  and  C23_23 
REMARK   23  A    between atoms: C23_23  and  C24_24 
REMARK   24  A    between atoms: C23_23  and  C30_30 
REMARK   25  A    between atoms: C24_24  and  C25_25 
REMARK   26  A    between atoms: C25_25  and  C26_26 
REMARK   27  A    between atoms: C26_26  and  C27_27 
REMARK   28  A    between atoms: C27_27  and  C28_28 
REMARK   29  A    between atoms: C27_27  and  C29_29 
ROOT
ATOM      1  C15 SQL d   1      20.433   7.423   9.281  0.00  0.00    -0.065 C 
ATOM      2  H30 SQL d   1      20.456   7.173  10.352  0.00  0.00     0.033 H 
ATOM      3  H31 SQL d   1      19.414   7.278   8.892  0.00  0.00     0.033 H 
ENDROOT
BRANCH   1   4
ATOM      4  C14 SQL d   1      21.413   6.562   8.520  0.00  0.00    -0.062 C 
ATOM      5  H28 SQL d   1      20.950   6.354   7.544  0.00  0.00     0.033 H 
ATOM      6  H29 SQL d   1      22.315   7.174   8.374  0.00  0.00     0.033 H 
BRANCH   4   7
ATOM      7  C12 SQL d   1      21.883   5.234   9.060  0.00  0.00    -0.057 C 
ATOM      8  H24 SQL d   1      21.062   4.723   8.535  0.00  0.00     0.039 H 
BRANCH   7   9
ATOM      9  C11 SQL d   1      21.369   4.676  10.388  0.00  0.00    -0.062 C 
ATOM     10  H22 SQL d   1      22.183   4.695  11.128  0.00  0.00     0.033 H 
ATOM     11  H23 SQL d   1      20.535   5.299  10.744  0.00  0.00     0.033 H 
BRANCH   9  12
ATOM     12  C10 SQL d   1      20.886   3.248  10.215  0.00  0.00    -0.064 C 
ATOM     13  H20 SQL d   1      21.683   2.647   9.754  0.00  0.00     0.033 H 
ATOM     14  H21 SQL d   1      20.633   2.827  11.199  0.00  0.00     0.033 H 
BRANCH  12  15
ATOM     15  C9  SQL d   1      19.653   3.221   9.322  0.00  0.00    -0.062 C 
ATOM     16  H18 SQL d   1      18.948   3.974   9.705  0.00  0.00     0.033 H 
ATOM     17  H19 SQL d   1      19.971   3.500   8.307  0.00  0.00     0.033 H 
BRANCH  15  18
ATOM     18  C7  SQL d   1      18.907   1.899   9.224  0.00  0.00    -0.057 C 
ATOM     19  H14 SQL d   1      18.254   2.183  10.062  0.00  0.00     0.039 H 
BRANCH  18  20
ATOM     20  C6  SQL d   1      17.736   1.844   8.275  0.00  0.00    -0.062 C 
ATOM     21  H12 SQL d   1      17.582   2.848   7.854  0.00  0.00     0.033 H 
ATOM     22  H13 SQL d   1      17.977   1.139   7.465  0.00  0.00     0.033 H 
BRANCH  20  23
ATOM     23  C5  SQL d   1      16.461   1.402   8.924  0.00  0.00    -0.064 C 
ATOM     24  H10 SQL d   1      16.538   0.360   9.269  0.00  0.00     0.033 H 
ATOM     25  H11 SQL d   1      16.209   2.052   9.775  0.00  0.00     0.033 H 
BRANCH  23  26
ATOM     26  C4  SQL d   1      15.419   1.532   7.813  0.00  0.00    -0.062 C 
ATOM     27  H8  SQL d   1      15.114   2.589   7.799  0.00  0.00     0.033 H 
ATOM     28  H9  SQL d   1      15.938   1.287   6.874  0.00  0.00     0.033 H 
BRANCH  26  29
ATOM     29  C2  SQL d   1      14.148   0.728   7.813  0.00  0.00    -0.061 C 
ATOM     30  H4  SQL d   1      14.644  -0.068   7.239  0.00  0.00     0.038 H 
BRANCH  29  31
ATOM     31  C1  SQL d   1      13.878  -0.239   8.939  0.00  0.00    -0.073 C 
ATOM     32  H1  SQL d   1      12.910  -0.734   8.773  0.00  0.00     0.028 H 
ATOM     33  H2  SQL d   1      13.851   0.307   9.893  0.00  0.00     0.028 H 
ATOM     34  H3  SQL d   1      14.676  -0.996   8.972  0.00  0.00     0.028 H 
ENDBRANCH  29  31
BRANCH  29  35
ATOM     35  C3  SQL d   1      13.127   0.907   6.695  0.00  0.00    -0.073 C 
ATOM     36  H5  SQL d   1      13.500   1.648   5.973  0.00  0.00     0.028 H 
ATOM     37  H6  SQL d   1      12.175   1.257   7.120  0.00  0.00     0.028 H 
ATOM     38  H7  SQL d   1      12.970  -0.055   6.185  0.00  0.00     0.028 H 
ENDBRANCH  29  35
ENDBRANCH  26  29
ENDBRANCH  23  26
ENDBRANCH  20  23
ENDBRANCH  18  20
BRANCH  18  39
ATOM     39  C8  SQL d   1      19.343   0.644   9.974  0.00  0.00    -0.073 C 
ATOM     40  H15 SQL d   1      20.207   0.880  10.613  0.00  0.00     0.028 H 
ATOM     41  H16 SQL d   1      19.624  -0.136   9.251  0.00  0.00     0.028 H 
ATOM     42  H17 SQL d   1      18.513   0.283  10.599  0.00  0.00     0.028 H 
ENDBRANCH  18  39
ENDBRANCH  15  18
ENDBRANCH  12  15
ENDBRANCH   9  12
ENDBRANCH   7   9
BRANCH   7  43
ATOM     43  C13 SQL d   1      22.902   4.469   8.243  0.00  0.00    -0.073 C 
ATOM     44  H25 SQL d   1      23.140   5.035   7.330  0.00  0.00     0.028 H 
ATOM     45  H26 SQL d   1      22.489   3.487   7.968  0.00  0.00     0.028 H 
ATOM     46  H27 SQL d   1      23.817   4.329   8.836  0.00  0.00     0.028 H 
ENDBRANCH   7  43
ENDBRANCH   4   7
ENDBRANCH   1   4
BRANCH   1  47
ATOM     47  C16 SQL d   1      20.880   8.852   9.065  0.00  0.00    -0.065 C 
ATOM     48  H32 SQL d   1      21.961   8.923   9.258  0.00  0.00     0.033 H 
ATOM     49  H33 SQL d   1      20.339   9.507   9.764  0.00  0.00     0.033 H 
BRANCH  47  50
ATOM     50  C17 SQL d   1      20.596   9.313   7.626  0.00  0.00    -0.062 C 
ATOM     51  H34 SQL d   1      20.248   8.428   7.074  0.00  0.00     0.033 H 
ATOM     52  H35 SQL d   1      21.555   9.652   7.208  0.00  0.00     0.033 H 
BRANCH  50  53
ATOM     53  C18 SQL d   1      19.579  10.428   7.355  0.00  0.00    -0.057 C 
ATOM     54  H36 SQL d   1      20.380  11.176   7.446  0.00  0.00     0.039 H 
BRANCH  53  55
ATOM     55  C19 SQL d   1      18.829  11.082   8.495  0.00  0.00    -0.073 C 
ATOM     56  H37 SQL d   1      18.152  11.851   8.095  0.00  0.00     0.028 H 
ATOM     57  H38 SQL d   1      19.547  11.548   9.186  0.00  0.00     0.028 H 
ATOM     58  H39 SQL d   1      18.243  10.322   9.032  0.00  0.00     0.028 H 
ENDBRANCH  53  55
BRANCH  53  59
ATOM     59  C20 SQL d   1      19.296  10.895   5.933  0.00  0.00    -0.062 C 
ATOM     60  H40 SQL d   1      19.690  10.159   5.217  0.00  0.00     0.033 H 
ATOM     61  H41 SQL d   1      19.778  11.869   5.761  0.00  0.00     0.033 H 
BRANCH  59  62
ATOM     62  C21 SQL d   1      17.780  11.031   5.751  0.00  0.00    -0.064 C 
ATOM     63  H42 SQL d   1      17.368  11.663   6.551  0.00  0.00     0.033 H 
ATOM     64  H43 SQL d   1      17.313  10.036   5.793  0.00  0.00     0.033 H 
BRANCH  62  65
ATOM     65  C22 SQL d   1      17.501  11.665   4.411  0.00  0.00    -0.062 C 
ATOM     66  H44 SQL d   1      17.280  10.839   3.719  0.00  0.00     0.033 H 
ATOM     67  H45 SQL d   1      18.433  12.162   4.104  0.00  0.00     0.033 H 
BRANCH  65  68
ATOM     68  C23 SQL d   1      16.388  12.690   4.223  0.00  0.00    -0.057 C 
ATOM     69  H46 SQL d   1      15.661  11.896   3.999  0.00  0.00     0.039 H 
BRANCH  68  70
ATOM     70  C24 SQL d   1      15.528  13.154   5.411  0.00  0.00    -0.062 C 
ATOM     71  H47 SQL d   1      16.090  13.914   5.973  0.00  0.00     0.033 H 
ATOM     72  H48 SQL d   1      15.333  12.288   6.060  0.00  0.00     0.033 H 
BRANCH  70  73
ATOM     73  C25 SQL d   1      14.180  13.759   4.988  0.00  0.00    -0.064 C 
ATOM     74  H49 SQL d   1      14.312  14.315   4.048  0.00  0.00     0.033 H 
ATOM     75  H50 SQL d   1      13.828  14.444   5.774  0.00  0.00     0.033 H 
BRANCH  73  76
ATOM     76  C26 SQL d   1      13.147  12.664   4.780  0.00  0.00    -0.062 C 
ATOM     77  H51 SQL d   1      12.266  13.238   5.103  0.00  0.00     0.033 H 
ATOM     78  H52 SQL d   1      13.475  12.004   5.597  0.00  0.00     0.033 H 
BRANCH  76  79
ATOM     79  C27 SQL d   1      12.407  11.614   3.967  0.00  0.00    -0.061 C 
ATOM     80  H53 SQL d   1      11.764  12.387   3.522  0.00  0.00     0.038 H 
BRANCH  79  81
ATOM     81  C28 SQL d   1      11.210  10.932   4.605  0.00  0.00    -0.073 C 
ATOM     82  H54 SQL d   1      10.784  10.204   3.899  0.00  0.00     0.028 H 
ATOM     83  H55 SQL d   1      10.450  11.686   4.857  0.00  0.00     0.028 H 
ATOM     84  H56 SQL d   1      11.529  10.412   5.520  0.00  0.00     0.028 H 
ENDBRANCH  79  81
BRANCH  79  85
ATOM     85  C29 SQL d   1      12.875  11.180   2.573  0.00  0.00    -0.073 C 
ATOM     86  H57 SQL d   1      13.748  11.780   2.276  0.00  0.00     0.028 H 
ATOM     87  H58 SQL d   1      12.061  11.333   1.849  0.00  0.00     0.028 H 
ATOM     88  H59 SQL d   1      13.152  10.116   2.594  0.00  0.00     0.028 H 
ENDBRANCH  79  85
ENDBRANCH  76  79
ENDBRANCH  73  76
ENDBRANCH  70  73
ENDBRANCH  68  70
BRANCH  68  89
ATOM     89  C30 SQL d   1      16.217  13.282   2.826  0.00  0.00    -0.073 C 
ATOM     90  H60 SQL d   1      16.930  12.807   2.136  0.00  0.00     0.028 H 
ATOM     91  H61 SQL d   1      16.407  14.365   2.861  0.00  0.00     0.028 H 
ATOM     92  H62 SQL d   1      15.191  13.101   2.474  0.00  0.00     0.028 H 
ENDBRANCH  68  89
ENDBRANCH  65  68
ENDBRANCH  62  65
ENDBRANCH  59  62
ENDBRANCH  53  59
ENDBRANCH  50  53
ENDBRANCH  47  50
ENDBRANCH   1  47
TORSDOF 29
