REMARK  9 active torsions:
REMARK  status: ('A' for Active; 'I' for Inactive)
REMARK    1  A    between atoms: PA_1  and  O3A_4 
REMARK    2  A    between atoms: PA_1  and  O5'_5 
REMARK    3  A    between atoms: O3A_4  and  PB_6 
REMARK    4  A    between atoms: O5'_5  and  C5'_10 
REMARK    5  A    between atoms: C5'_10  and  C4'_11 
REMARK    6  A    between atoms: C3'_13  and  O3'_14 
REMARK    7  A    between atoms: C2'_15  and  O2'_16 
REMARK    8  A    between atoms: C1'_17  and  N9_18 
REMARK    9  A    between atoms: C2_26  and  N2_27 
ROOT
ATOM      1  C4' M7G d   1      -8.254  23.476 -43.262  0.00  0.00     0.089 C 
ATOM      2  O4' M7G d   1      -8.340  22.270 -42.491  0.00  0.00    -0.354 OA
ATOM      3  C3' M7G d   1      -6.882  23.486 -43.924  0.00  0.00     0.091 C 
ATOM      4  C2' M7G d   1      -6.507  22.026 -43.906  0.00  0.00     0.104 C 
ATOM      5  C1' M7G d   1      -7.170  21.463 -42.636  0.00  0.00     0.136 C 
ATOM      6  H3  M7G d   1      -8.410  24.369 -42.639  0.00  0.00     0.090 H 
ATOM      7  H4  M7G d   1      -6.890  23.914 -44.937  0.00  0.00     0.091 H 
ATOM      8  H6  M7G d   1      -6.851  21.505 -44.812  0.00  0.00     0.093 H 
ATOM      9  H8  M7G d   1      -6.527  21.689 -41.773  0.00  0.00     0.122 H 
ENDROOT
BRANCH   5  10
ATOM     10  N9  M7G d   1      -7.242  19.957 -42.686  0.00  0.00    -0.319 N 
ATOM     11  C8  M7G d   1      -7.883  18.985 -43.693  0.00  0.00     0.063 C 
ATOM     12  N7  M7G d   1      -7.919  17.545 -43.114  0.00  0.00    -0.342 N 
ATOM     13  H9  M7G d   1      -7.294  18.986 -44.622  0.00  0.00     0.097 H 
ATOM     14  H10 M7G d   1      -8.910  19.314 -43.909  0.00  0.00     0.097 H 
ATOM     15  CM7 M7G d   1      -8.434  16.672 -43.938  0.00  0.00    -0.062 C 
ATOM     16  C5  M7G d   1      -7.781  17.897 -41.742  0.00  0.00     0.149 A 
ATOM     17  H11 M7G d   1      -8.513  15.626 -43.644  0.00  0.00     0.093 H 
ATOM     18  H12 M7G d   1      -8.784  16.990 -44.919  0.00  0.00     0.093 H 
ATOM     19  C6  M7G d   1      -7.959  17.165 -40.497  0.00  0.00     0.290 A 
ATOM     20  C4  M7G d   1      -7.437  19.316 -41.499  0.00  0.00     0.155 A 
ATOM     21  O6  M7G d   1      -8.269  16.002 -40.599  0.00  0.00    -0.265 OA
ATOM     22  N1  M7G d   1      -7.789  17.805 -39.288  0.00  0.00    -0.154 N 
ATOM     23  C2  M7G d   1      -7.402  19.114 -39.159  0.00  0.00     0.680 A 
ATOM     24  H13 M7G d   1      -7.958  17.282 -38.453  0.00  0.00     0.187 HD
ATOM     25  N3  M7G d   1      -7.227  19.870 -40.270  0.00  0.00    -0.174 N 
ATOM     26  H16 M7G d   1      -6.938  20.855 -40.187  0.00  0.00     0.186 HD
BRANCH  23  27
ATOM     27  N2  M7G d   1      -7.216  19.745 -37.955  0.00  0.00    -0.234 N 
ATOM     28  H14 M7G d   1      -6.924  20.733 -37.931  0.00  0.00     0.174 HD
ATOM     29  H15 M7G d   1      -7.368  19.231 -37.075  0.00  0.00     0.174 HD
ENDBRANCH  23  27
ENDBRANCH   5  10
BRANCH   4  30
ATOM     30  O2' M7G d   1      -5.083  21.921 -43.760  0.00  0.00    -0.388 OA
ATOM     31  H7  M7G d   1      -4.818  22.334 -42.946  0.00  0.00     0.210 HD
ENDBRANCH   4  30
BRANCH   1  32
ATOM     32  C5' M7G d   1      -9.298  23.377 -44.375  0.00  0.00     0.058 C 
ATOM     33  H1  M7G d   1      -8.901  22.798 -45.222  0.00  0.00     0.079 H 
ATOM     34  H2  M7G d   1     -10.213  22.896 -44.000  0.00  0.00     0.079 H 
BRANCH  32  35
ATOM     35  O5' M7G d   1      -9.570  24.721 -44.775  0.00  0.00    -0.287 OA
BRANCH  35  36
ATOM     36  PA  M7G d   1      -9.943  24.982 -46.354  0.00  0.00     0.418 P 
ATOM     37  O1A M7G d   1     -10.152  26.454 -46.651  0.00  0.00    -0.624 OA
ATOM     38  O2A M7G d   1      -9.040  24.160 -47.161  0.00  0.00    -0.624 OA
BRANCH  36  39
ATOM     39  O3A M7G d   1     -11.401  24.240 -46.516  0.00  0.00    -0.173 OA
BRANCH  39  40
ATOM     40  PB  M7G d   1     -12.765  24.758 -45.811  0.00  0.00     0.431 P 
ATOM     41  O1B M7G d   1     -13.092  26.221 -45.845  0.00  0.00    -0.616 OA
ATOM     42  O2B M7G d   1     -13.826  23.876 -46.428  0.00  0.00    -0.616 OA
ATOM     43  O3B M7G d   1     -12.807  24.546 -44.224  0.00  0.00    -0.616 OA
ENDBRANCH  39  40
ENDBRANCH  36  39
ENDBRANCH  35  36
ENDBRANCH  32  35
ENDBRANCH   1  32
BRANCH   3  44
ATOM     44  O3' M7G d   1      -6.010  24.194 -43.054  0.00  0.00    -0.390 OA
ATOM     45  H5  M7G d   1      -5.140  24.222 -43.434  0.00  0.00     0.210 HD
ENDBRANCH   3  44
TORSDOF 9
