REMARK  9 active torsions:
REMARK  status: ('A' for Active; 'I' for Inactive)
REMARK    1  A    between atoms: PB_1  and  O3A_5 
REMARK    2  A    between atoms: O3A_5  and  PA_6 
REMARK    3  A    between atoms: PA_6  and  O5'_9 
REMARK    4  A    between atoms: O5'_9  and  C5'_10 
REMARK    5  A    between atoms: C5'_10  and  C4'_11 
REMARK    6  A    between atoms: C3'_13  and  O3'_14 
REMARK    7  A    between atoms: C2'_15  and  O2'_16 
REMARK    8  A    between atoms: C1'_17  and  N9_18 
REMARK    9  A    between atoms: C2_25  and  N2_26 
ROOT
ATOM      1  C4' GDP d   1      -7.643 -23.251  -4.338  0.00  0.00     0.089 C 
ATOM      2  O4' GDP d   1      -7.769 -22.170  -5.259  0.00  0.00    -0.353 OA
ATOM      3  C3' GDP d   1      -6.282 -23.120  -3.680  0.00  0.00     0.091 C 
ATOM      4  C2' GDP d   1      -5.722 -21.798  -4.157  0.00  0.00     0.105 C 
ATOM      5  C1' GDP d   1      -6.521 -21.495  -5.412  0.00  0.00     0.139 C 
ATOM      6  H3  GDP d   1      -7.721 -24.215  -4.862  0.00  0.00     0.090 H 
ATOM      7  H4  GDP d   1      -6.366 -23.143  -2.583  0.00  0.00     0.091 H 
ATOM      8  H6  GDP d   1      -5.869 -21.012  -3.402  0.00  0.00     0.093 H 
ATOM      9  H8  GDP d   1      -5.985 -21.865  -6.299  0.00  0.00     0.122 H 
ENDROOT
BRANCH   5  10
ATOM     10  N9  GDP d   1      -6.781 -20.045  -5.559  0.00  0.00    -0.295 N 
ATOM     11  C8  GDP d   1      -7.036 -19.163  -4.575  0.00  0.00     0.071 A 
ATOM     12  N7  GDP d   1      -7.244 -17.920  -5.084  0.00  0.00    -0.234 NA
ATOM     13  H9  GDP d   1      -7.071 -19.411  -3.515  0.00  0.00     0.144 H 
ATOM     14  C5  GDP d   1      -7.135 -18.007  -6.424  0.00  0.00     0.171 A 
ATOM     15  C6  GDP d   1      -7.240 -17.081  -7.575  0.00  0.00     0.292 A 
ATOM     16  C4  GDP d   1      -6.836 -19.412  -6.727  0.00  0.00     0.161 A 
ATOM     17  O6  GDP d   1      -7.492 -15.869  -7.403  0.00  0.00    -0.265 OA
ATOM     18  N1  GDP d   1      -7.057 -17.582  -8.804  0.00  0.00    -0.154 N 
ATOM     19  C2  GDP d   1      -6.785 -18.883  -9.021  0.00  0.00     0.680 A 
ATOM     20  H10 GDP d   1      -7.125 -16.967  -9.589  0.00  0.00     0.187 HD
ATOM     21  N3  GDP d   1      -6.674 -19.786  -8.016  0.00  0.00    -0.174 N 
ATOM     22  H13 GDP d   1      -6.463 -20.770  -8.237  0.00  0.00     0.186 HD
BRANCH  19  23
ATOM     23  N2  GDP d   1      -6.614 -19.315 -10.294  0.00  0.00    -0.234 N 
ATOM     24  H11 GDP d   1      -6.405 -20.307 -10.478  0.00  0.00     0.174 HD
ATOM     25  H12 GDP d   1      -6.693 -18.651 -11.078  0.00  0.00     0.174 HD
ENDBRANCH  19  23
ENDBRANCH   5  10
BRANCH   4  26
ATOM     26  O2' GDP d   1      -4.329 -21.929  -4.445  0.00  0.00    -0.388 OA
ATOM     27  H7  GDP d   1      -4.207 -22.582  -5.124  0.00  0.00     0.210 HD
ENDBRANCH   4  26
BRANCH   1  28
ATOM     28  C5' GDP d   1      -8.741 -23.139  -3.296  0.00  0.00     0.058 C 
ATOM     29  H1  GDP d   1      -8.365 -22.583  -2.424  0.00  0.00     0.079 H 
ATOM     30  H2  GDP d   1      -9.603 -22.608  -3.726  0.00  0.00     0.079 H 
BRANCH  28  31
ATOM     31  O5' GDP d   1      -9.139 -24.443  -2.893  0.00  0.00    -0.287 OA
BRANCH  31  32
ATOM     32  PA  GDP d   1      -9.599 -24.700  -1.376  0.00  0.00     0.418 P 
ATOM     33  O1A GDP d   1      -9.741 -26.179  -1.104  0.00  0.00    -0.624 OA
ATOM     34  O2A GDP d   1      -8.614 -24.069  -0.422  0.00  0.00    -0.624 OA
BRANCH  32  35
ATOM     35  O3A GDP d   1     -11.017 -23.940  -1.300  0.00  0.00    -0.173 OA
BRANCH  35  36
ATOM     36  PB  GDP d   1     -12.365 -24.584  -1.899  0.00  0.00     0.431 P 
ATOM     37  O1B GDP d   1     -12.542 -25.994  -1.390  0.00  0.00    -0.616 OA
ATOM     38  O2B GDP d   1     -13.543 -23.738  -1.478  0.00  0.00    -0.616 OA
ATOM     39  O3B GDP d   1     -12.279 -24.595  -3.407  0.00  0.00    -0.616 OA
ENDBRANCH  35  36
ENDBRANCH  32  35
ENDBRANCH  31  32
ENDBRANCH  28  31
ENDBRANCH   1  28
BRANCH   3  40
ATOM     40  O3' GDP d   1      -5.441 -24.178  -4.140  0.00  0.00    -0.390 OA
ATOM     41  H5  GDP d   1      -4.587 -24.102  -3.732  0.00  0.00     0.210 HD
ENDBRANCH   3  40
TORSDOF 9
