REMARK  10 active torsions:
REMARK  status: ('A' for Active; 'I' for Inactive)
REMARK    1  A    between atoms: N_1  and  CA_2 
REMARK    2  A    between atoms: CA_8  and  CB_11 
REMARK    3  A    between atoms: CB_11  and  CG_12 
REMARK       I    between atoms: CG_12  and  ND2_14 
REMARK    4  A    between atoms: CA_20  and  CB_23 
REMARK    5  A    between atoms: CB_23  and  CG_24 
REMARK    6  A    between atoms: CG_24  and  CD_25 
REMARK    7  A    between atoms: CD_25  and  NE_26 
REMARK       I    between atoms: NE_26  and  CZ_27 
REMARK       I    between atoms: CZ_27  and  NH1_28 
REMARK    8  A    between atoms: CA_31  and  C_32 
REMARK       I    between atoms: C_32  and  N_36 
REMARK    9  A    between atoms: N_36  and  CA_37 
REMARK   10  A    between atoms: CA_37  and  C_38 
ROOT
ATOM      1  CA  CYS d   1      30.197  15.525  59.447  0.00  0.00     0.184 C 
ATOM      2  C   CYS d   1      28.894  16.199  59.886  0.00  0.00     0.249 C 
ATOM      3  O   CYS d   1      28.376  15.924  60.927  0.00  0.00    -0.271 OA
ATOM      4  CB  CYS d   1      29.951  14.277  58.612  0.00  0.00     0.021 C 
ATOM      5  SG  CYS d   1      28.870  14.354  57.200  0.00  0.00    -0.095 SA
ATOM      6  N   CYS d   1      25.216  12.418  56.647  0.00  0.00    -0.345 N 
ATOM      7  CA  CYS d   1      26.445  11.805  57.088  0.00  0.00     0.098 C 
ATOM      8  CB  CYS d   1      26.904  12.543  58.338  0.00  0.00     0.013 C 
ATOM      9  SG  CYS d   1      27.088  14.298  58.002  0.00  0.00    -0.095 SA
ATOM     10  H   CYS d   1      30.761  16.248  58.840  0.00  0.00     0.100 H 
ATOM     11  H   CYS d   1      29.535  13.517  59.290  0.00  0.00     0.054 H 
ATOM     12  H   CYS d   1      30.932  13.942  58.244  0.00  0.00     0.054 H 
ATOM     13  H   CYS d   1      24.412  12.402  57.242  0.00  0.00     0.163 HD
ATOM     14  H   CYS d   1      27.199  11.984  56.307  0.00  0.00     0.088 H 
ATOM     15  H   CYS d   1      27.871  12.134  58.665  0.00  0.00     0.053 H 
ATOM     16  H   CYS d   1      26.159  12.403  59.135  0.00  0.00     0.053 H 
ATOM     17  N   ASN d   1      28.351  17.073  59.052  0.00  0.00    -0.346 N 
ATOM     18  CA  ASN d   1      27.031  17.680  59.288  0.00  0.00     0.097 C 
ATOM     19  C   ASN d   1      26.218  17.722  58.005  0.00  0.00     0.241 C 
ATOM     20  O   ASN d   1      26.735  18.043  56.981  0.00  0.00    -0.271 OA
ATOM     21  H   ASN d   1      28.858  17.331  58.229  0.00  0.00     0.163 HD
ATOM     22  H   ASN d   1      26.492  17.055  60.015  0.00  0.00     0.088 H 
ATOM     23  N   GLY d   1      24.945  17.384  58.080  0.00  0.00    -0.351 N 
ATOM     24  CA  GLY d   1      24.105  17.308  56.906  0.00  0.00     0.069 C 
ATOM     25  C   GLY d   1      23.702  15.872  56.692  0.00  0.00     0.236 C 
ATOM     26  O   GLY d   1      23.066  15.302  57.540  0.00  0.00    -0.272 OA
ATOM     27  H   GLY d   1      24.550  17.174  58.974  0.00  0.00     0.163 HD
ATOM     28  H   GLY d   1      24.661  17.671  56.029  0.00  0.00     0.078 H 
ATOM     29  H   GLY d   1      23.207  17.926  57.053  0.00  0.00     0.078 H 
ATOM     30  N   ARG d   1      24.149  15.294  55.584  0.00  0.00    -0.346 N 
ATOM     31  CA  ARG d   1      23.939  13.903  55.211  0.00  0.00     0.089 C 
ATOM     32  C   ARG d   1      25.145  12.995  55.473  0.00  0.00     0.241 C 
ATOM     33  O   ARG d   1      25.999  12.791  54.632  0.00  0.00    -0.271 OA
ATOM     34  H   ARG d   1      24.675  15.863  54.952  0.00  0.00     0.163 HD
ATOM     35  H   ARG d   1      23.059  13.506  55.738  0.00  0.00     0.087 H 
ENDROOT
BRANCH  31  36
ATOM     36  CB  ARG d   1      23.727  13.913  53.738  0.00  0.00    -0.036 C 
ATOM     37  H   ARG d   1      24.694  13.712  53.253  0.00  0.00     0.036 H 
ATOM     38  H   ARG d   1      23.374  14.915  53.451  0.00  0.00     0.036 H 
BRANCH  36  39
ATOM     39  CG  ARG d   1      22.759  12.932  53.243  0.00  0.00    -0.048 C 
ATOM     40  H   ARG d   1      22.165  12.493  54.058  0.00  0.00     0.035 H 
ATOM     41  H   ARG d   1      23.244  12.129  52.669  0.00  0.00     0.035 H 
BRANCH  39  42
ATOM     42  CD  ARG d   1      21.945  13.814  52.380  0.00  0.00     0.009 C 
ATOM     43  H   ARG d   1      21.652  14.705  52.955  0.00  0.00     0.064 H 
ATOM     44  H   ARG d   1      21.044  13.270  52.062  0.00  0.00     0.064 H 
BRANCH  42  45
ATOM     45  NE  ARG d   1      22.680  14.232  51.208  0.00  0.00    -0.227 N 
ATOM     46  CZ  ARG d   1      22.318  15.291  50.516  0.00  0.00     0.665 C 
ATOM     47  NH1 ARG d   1      21.340  16.062  50.958  0.00  0.00    -0.235 N 
ATOM     48  NH2 ARG d   1      22.922  15.590  49.396  0.00  0.00    -0.235 N 
ATOM     49  H   ARG d   1      21.054  16.892  50.419  0.00  0.00     0.174 HD
ATOM     50  H   ARG d   1      20.863  15.833  51.842  0.00  0.00     0.174 HD
ATOM     51  H   ARG d   1      23.685  14.992  49.047  0.00  0.00     0.174 HD
ATOM     52  H   ARG d   1      22.635  16.423  48.863  0.00  0.00     0.174 HD
ATOM     53  H   ARG d   1      23.503  13.690  50.908  0.00  0.00     0.177 HD
ENDBRANCH  42  45
ENDBRANCH  39  42
ENDBRANCH  36  39
ENDBRANCH  31  36
BRANCH   7  54
ATOM     54  C   CYS d   1      26.357  10.284  57.252  0.00  0.00     0.241 C 
ATOM     55  O   CYS d   1      25.289   9.734  57.363  0.00  0.00    -0.271 OA
ATOM     56  N   GLY d   1      27.503   9.629  57.163  0.00  0.00    -0.349 N 
ATOM     57  H   GLY d   1      28.331  10.160  56.983  0.00  0.00     0.163 HD
BRANCH  56  58
ATOM     58  CA  GLY d   1      27.638   8.199  57.309  0.00  0.00     0.075 C 
ATOM     59  H   GLY d   1      27.340   7.692  56.379  0.00  0.00     0.080 H 
ATOM     60  H   GLY d   1      27.011   7.841  58.139  0.00  0.00     0.080 H 
BRANCH  58  61
ATOM     61  C   GLY d   1      29.091   7.936  57.603  0.00  0.00     0.191 C 
ATOM     62  O   GLY d   1      29.468   6.802  58.012  0.00  0.00    -0.647 OA
ATOM     63  OXT GLY d   1      29.811   8.945  57.389  0.00  0.00    -0.647 OA
ENDBRANCH  58  61
ENDBRANCH  56  58
ENDBRANCH   7  54
BRANCH  18  64
ATOM     64  CB  ASN d   1      27.178  19.085  59.881  0.00  0.00     0.036 C 
ATOM     65  H   ASN d   1      27.464  19.773  59.072  0.00  0.00     0.051 H 
ATOM     66  H   ASN d   1      27.975  19.058  60.639  0.00  0.00     0.051 H 
BRANCH  64  67
ATOM     67  CG  ASN d   1      25.904  19.622  60.542  0.00  0.00     0.217 C 
ATOM     68  OD1 ASN d   1      25.063  18.897  61.033  0.00  0.00    -0.274 OA
ATOM     69  ND2 ASN d   1      25.793  20.919  60.553  0.00  0.00    -0.370 N 
ATOM     70  H   ASN d   1      24.990  21.349  60.966  0.00  0.00     0.159 HD
ATOM     71  H   ASN d   1      26.511  21.486  60.148  0.00  0.00     0.159 HD
ENDBRANCH  64  67
ENDBRANCH  18  64
BRANCH   1  72
ATOM     72  N   CYS d   1      30.999  15.140  60.568  0.00  0.00    -0.066 N 
ATOM     73  H   CYS d   1      31.845  14.701  60.241  0.00  0.00     0.275 HD
ATOM     74  H   CYS d   1      30.484  14.491  61.142  0.00  0.00     0.275 HD
ATOM     75  H   CYS d   1      31.232  15.957  61.111  0.00  0.00     0.275 HD
ENDBRANCH   1  72
TORSDOF 10
