REMARK  1 active torsions:
REMARK  status: ('A' for Active; 'I' for Inactive)
REMARK    1  A    between atoms: C10_14  and  C13_15 
ROOT
ATOM      1 CL   2VG d   1       6.990  -1.682  -9.680  0.00  0.00    -0.084 Cl
ATOM      2  C4  2VG d   1       7.637  -3.220 -10.332  0.00  0.00     0.035 A 
ATOM      3  C3  2VG d   1       8.719  -3.877  -9.741  0.00  0.00    -0.049 A 
ATOM      4  C2  2VG d   1       9.156  -5.074 -10.318  0.00  0.00     0.000 A 
ATOM      5  C5  2VG d   1       7.023  -3.755 -11.463  0.00  0.00    -0.060 A 
ATOM      6  C6  2VG d   1       7.467  -4.949 -12.025  0.00  0.00    -0.055 A 
ATOM      7  C1  2VG d   1       8.541  -5.614 -11.446  0.00  0.00     0.043 A 
ATOM      8  N   2VG d   1       9.167  -6.757 -11.766  0.00  0.00    -0.358 N 
ATOM      9  C7  2VG d   1      10.160  -6.975 -10.888  0.00  0.00     0.017 A 
ATOM     10  C8  2VG d   1      10.181  -5.936  -9.966  0.00  0.00    -0.023 A 
ATOM     11  C12 2VG d   1      11.164  -5.838  -8.826  0.00  0.00    -0.037 C 
ATOM     12  C11 2VG d   1      11.686  -7.249  -8.555  0.00  0.00    -0.048 C 
ATOM     13  C9  2VG d   1      11.112  -8.148 -10.883  0.00  0.00    -0.014 C 
ATOM     14  C10 2VG d   1      12.200  -7.964  -9.811  0.00  0.00     0.036 C 
ATOM     15  H1  2VG d   1       9.206  -3.471  -8.861  0.00  0.00     0.087 H 
ATOM     16  H2  2VG d   1       6.186  -3.233 -11.912  0.00  0.00     0.086 H 
ATOM     17  H3  2VG d   1       6.980  -5.355 -12.904  0.00  0.00     0.087 H 
ATOM     18  H4  2VG d   1       8.925  -7.369 -12.558  0.00  0.00     0.166 HD
ATOM     19  H5  2VG d   1      10.663  -5.443  -7.930  0.00  0.00     0.040 H 
ATOM     20  H6  2VG d   1      11.997  -5.175  -9.103  0.00  0.00     0.040 H 
ATOM     21  H7  2VG d   1      10.868  -7.846  -8.125  0.00  0.00     0.034 H 
ATOM     22  H8  2VG d   1      12.511  -7.182  -7.831  0.00  0.00     0.034 H 
ATOM     23  H9  2VG d   1      11.589  -8.229 -11.871  0.00  0.00     0.043 H 
ATOM     24  H10 2VG d   1      10.549  -9.069 -10.671  0.00  0.00     0.043 H 
ATOM     25  H11 2VG d   1      13.008  -7.359 -10.248  0.00  0.00     0.057 H 
ENDROOT
BRANCH  14  26
ATOM     26  C13 2VG d   1      12.758  -9.301  -9.402  0.00  0.00     0.177 C 
ATOM     27  O1  2VG d   1      12.027 -10.407  -9.489  0.00  0.00    -0.648 OA
ATOM     28  O2  2VG d   1      13.894  -9.388  -8.975  0.00  0.00    -0.648 OA
ENDBRANCH  14  26
TORSDOF 1
