REMARK  3 active torsions:
REMARK  status: ('A' for Active; 'I' for Inactive)
REMARK       I    between atoms: C13_2  and  N1_3 
REMARK    1  A    between atoms: C13_2  and  C12_4 
REMARK    2  A    between atoms: C12_4  and  N_5 
REMARK    3  A    between atoms: C8_11  and  C9_12 
ROOT
ATOM      1  N   2VF d   1       8.734  -6.258 -11.814  0.00  0.00    -0.340 N 
ATOM      2  C3  2VF d   1       8.189  -5.071 -11.492  0.00  0.00     0.046 A 
ATOM      3  C2  2VF d   1       7.093  -4.381 -11.984  0.00  0.00    -0.055 A 
ATOM      4  C1  2VF d   1       6.765  -3.151 -11.432  0.00  0.00    -0.060 A 
ATOM      5  C11 2VF d   1       9.794  -6.525 -11.032  0.00  0.00     0.020 A 
ATOM      6  C10 2VF d   1      10.673  -7.745 -11.076  0.00  0.00    -0.013 C 
ATOM      7  C8  2VF d   1      11.884  -7.538 -10.147  0.00  0.00     0.036 C 
ATOM      8  C7  2VF d   1      11.544  -6.811  -8.844  0.00  0.00    -0.048 C 
ATOM      9  C6  2VF d   1      11.093  -5.373  -9.061  0.00  0.00    -0.037 C 
ATOM     10  C5  2VF d   1      10.008  -5.411 -10.085  0.00  0.00    -0.023 A 
ATOM     11  C4  2VF d   1       8.940  -4.448 -10.375  0.00  0.00     0.001 A 
ATOM     12  C14 2VF d   1       8.580  -3.221  -9.835  0.00  0.00    -0.049 A 
ATOM     13  C   2VF d   1       7.475  -2.587 -10.389  0.00  0.00     0.035 A 
ATOM     14 CL   2VF d   1       6.864  -1.000  -9.845  0.00  0.00    -0.084 Cl
ATOM     15  H5  2VF d   1       6.499  -4.797 -12.790  0.00  0.00     0.087 H 
ATOM     16  H6  2VF d   1       5.917  -2.610 -11.835  0.00  0.00     0.086 H 
ATOM     17  H7  2VF d   1      11.024  -7.907 -12.106  0.00  0.00     0.043 H 
ATOM     18  H8  2VF d   1      10.100  -8.622 -10.742  0.00  0.00     0.043 H 
ATOM     19  H9  2VF d   1      12.616  -6.931 -10.700  0.00  0.00     0.057 H 
ATOM     20  H10 2VF d   1      12.438  -6.804  -8.204  0.00  0.00     0.034 H 
ATOM     21  H11 2VF d   1      10.735  -7.359  -8.338  0.00  0.00     0.034 H 
ATOM     22  H12 2VF d   1      11.934  -4.763  -9.423  0.00  0.00     0.040 H 
ATOM     23  H13 2VF d   1      10.711  -4.950  -8.120  0.00  0.00     0.040 H 
ATOM     24  H14 2VF d   1       9.136  -2.777  -9.017  0.00  0.00     0.087 H 
ENDROOT
BRANCH   1  25
ATOM     25  C12 2VF d   1       8.246  -7.129 -12.897  0.00  0.00     0.073 C 
ATOM     26  H3  2VF d   1       7.885  -6.490 -13.716  0.00  0.00     0.079 H 
ATOM     27  H4  2VF d   1       9.088  -7.741 -13.253  0.00  0.00     0.079 H 
BRANCH  25  28
ATOM     28  C13 2VF d   1       7.133  -8.051 -12.495  0.00  0.00     0.233 C 
ATOM     29  O2  2VF d   1       6.665  -8.789 -13.349  0.00  0.00    -0.272 OA
ATOM     30  N1  2VF d   1       6.706  -8.047 -11.228  0.00  0.00    -0.369 N 
ATOM     31  H1  2VF d   1       7.119  -7.425 -10.563  0.00  0.00     0.159 HD
ATOM     32  H2  2VF d   1       5.973  -8.666 -10.945  0.00  0.00     0.159 HD
ENDBRANCH  25  28
ENDBRANCH   1  25
BRANCH   7  33
ATOM     33  C9  2VF d   1      12.539  -8.836  -9.755  0.00  0.00     0.177 C 
ATOM     34  O1  2VF d   1      12.007  -9.947  -9.853  0.00  0.00    -0.648 OA
ATOM     35  O   2VF d   1      13.767  -8.740  -9.289  0.00  0.00    -0.648 OA
ENDBRANCH   7  33
TORSDOF 3
