REMARK  5 active torsions:
REMARK  status: ('A' for Active; 'I' for Inactive)
REMARK    1  A    between atoms: CAW_2  and  CAV_4 
REMARK    2  A    between atoms: CAV_4  and  NAU_5 
REMARK       I    between atoms: NAU_5  and  C_6 
REMARK    3  A    between atoms: C_6  and  CA_8 
REMARK    4  A    between atoms: CA_8  and  N_9 
REMARK    5  A    between atoms: CAK_12  and  CAO_13 
ROOT
ATOM      1  N   2VE d   1     -31.252  -6.417 -12.004  0.00  0.00    -0.340 N 
ATOM      2  CAH 2VE d   1     -30.216  -6.638 -11.173  0.00  0.00     0.020 A 
ATOM      3  CAJ 2VE d   1     -29.341  -7.734 -11.117  0.00  0.00    -0.013 C 
ATOM      4  CAK 2VE d   1     -28.128  -7.430 -10.184  0.00  0.00     0.036 C 
ATOM      5  CAL 2VE d   1     -28.612  -6.757  -8.930  0.00  0.00    -0.048 C 
ATOM      6  CAM 2VE d   1     -29.197  -5.430  -9.324  0.00  0.00    -0.037 C 
ATOM      7  CAI 2VE d   1     -30.154  -5.574 -10.339  0.00  0.00    -0.023 A 
ATOM      8  CAB 2VE d   1     -31.131  -4.724 -10.658  0.00  0.00     0.000 A 
ATOM      9  CAA 2VE d   1     -31.803  -5.252 -11.691  0.00  0.00     0.046 A 
ATOM     10  CAF 2VE d   1     -32.851  -4.622 -12.229  0.00  0.00    -0.055 A 
ATOM     11  CAE 2VE d   1     -33.255  -3.407 -11.729  0.00  0.00    -0.064 A 
ATOM     12  CAD 2VE d   1     -32.580  -2.847 -10.675  0.00  0.00     0.011 A 
ATOM     13 BR   2VE d   1     -33.235  -1.214 -10.092  0.00  0.00    -0.051 Br
ATOM     14  CAC 2VE d   1     -31.489  -3.534 -10.132  0.00  0.00    -0.053 A 
ATOM     15  H6  2VE d   1     -28.971  -7.952 -12.130  0.00  0.00     0.043 H 
ATOM     16  H7  2VE d   1     -29.884  -8.609 -10.729  0.00  0.00     0.043 H 
ATOM     17  H8  2VE d   1     -27.453  -6.746 -10.719  0.00  0.00     0.057 H 
ATOM     18  H9  2VE d   1     -27.771  -6.606  -8.237  0.00  0.00     0.034 H 
ATOM     19  H10 2VE d   1     -29.380  -7.376  -8.444  0.00  0.00     0.034 H 
ATOM     20  H11 2VE d   1     -28.390  -4.775  -9.684  0.00  0.00     0.040 H 
ATOM     21  H12 2VE d   1     -29.674  -4.974  -8.444  0.00  0.00     0.040 H 
ATOM     22  H13 2VE d   1     -33.383  -5.069 -13.061  0.00  0.00     0.087 H 
ATOM     23  H14 2VE d   1     -34.104  -2.894 -12.166  0.00  0.00     0.085 H 
ATOM     24  H15 2VE d   1     -30.937  -3.115  -9.298  0.00  0.00     0.086 H 
ENDROOT
BRANCH   1  25
ATOM     25  CA  2VE d   1     -31.831  -7.233 -13.156  0.00  0.00     0.073 C 
ATOM     26  H4  2VE d   1     -32.605  -6.644 -13.671  0.00  0.00     0.079 H 
ATOM     27  H5  2VE d   1     -31.030  -7.486 -13.866  0.00  0.00     0.079 H 
BRANCH  25  28
ATOM     28  C   2VE d   1     -32.437  -8.492 -12.618  0.00  0.00     0.236 C 
ATOM     29  NAU 2VE d   1     -33.052  -8.480 -11.431  0.00  0.00    -0.350 N 
ATOM     30  H3  2VE d   1     -33.211  -7.621 -10.944  0.00  0.00     0.163 HD
ATOM     31  O   2VE d   1     -32.424  -9.493 -13.316  0.00  0.00    -0.272 OA
BRANCH  29  32
ATOM     32  CAV 2VE d   1     -33.489  -9.764 -10.859  0.00  0.00     0.075 C 
ATOM     33  H1  2VE d   1     -34.415 -10.083 -11.360  0.00  0.00     0.080 H 
ATOM     34  H2  2VE d   1     -32.704 -10.517 -11.025  0.00  0.00     0.080 H 
BRANCH  32  35
ATOM     35  CAW 2VE d   1     -33.741  -9.643  -9.414  0.00  0.00     0.191 C 
ATOM     36  OAX 2VE d   1     -34.887  -9.900  -8.991  0.00  0.00    -0.647 OA
ATOM     37  OAY 2VE d   1     -32.725  -9.430  -8.725  0.00  0.00    -0.647 OA
ENDBRANCH  32  35
ENDBRANCH  29  32
ENDBRANCH  25  28
ENDBRANCH   1  25
BRANCH   4  38
ATOM     38  CAO 2VE d   1     -27.319  -8.686  -9.782  0.00  0.00     0.177 C 
ATOM     39  OAQ 2VE d   1     -27.869  -9.810  -9.892  0.00  0.00    -0.648 OA
ATOM     40  OAP 2VE d   1     -26.152  -8.483  -9.367  0.00  0.00    -0.648 OA
ENDBRANCH   4  38
TORSDOF 5
