REMARK  2 active torsions:
REMARK  status: ('A' for Active; 'I' for Inactive)
REMARK    1  A    between atoms: CAH_2  and  CAK_4 
REMARK    2  A    between atoms: CAI_10  and  NAA_11 
ROOT
ATOM      1  CAK 3F0 d   1     -18.473 -34.544  17.444  0.00  0.00     0.070 A 
ATOM      2  CAG 3F0 d   1     -17.609 -35.533  16.947  0.00  0.00    -0.064 A 
ATOM      3  CAE 3F0 d   1     -16.784 -35.231  15.846  0.00  0.00    -0.079 A 
ATOM      4  CAF 3F0 d   1     -16.829 -33.962  15.257  0.00  0.00    -0.043 A 
ATOM      5  CAJ 3F0 d   1     -17.698 -32.976  15.737  0.00  0.00     0.143 A 
ATOM      6  FAD 3F0 d   1     -17.786 -31.611  15.180  0.00  0.00    -0.204 F 
ATOM      7  CAI 3F0 d   1     -18.488 -33.280  16.824  0.00  0.00     0.082 A 
ATOM      8  H   3F0 d   1     -17.577 -36.515  17.404  0.00  0.00     0.085 H 
ATOM      9  H   3F0 d   1     -16.111 -35.985  15.453  0.00  0.00     0.083 H 
ATOM     10  H   3F0 d   1     -16.181 -33.740  14.417  0.00  0.00     0.088 H 
ENDROOT
BRANCH   1  11
ATOM     11  CAH 3F0 d   1     -19.304 -34.802  18.530  0.00  0.00     0.211 C 
ATOM     12  OAB 3F0 d   1     -20.283 -34.049  18.742  0.00  0.00    -0.644 OA
ATOM     13  OAC 3F0 d   1     -19.077 -35.758  19.306  0.00  0.00    -0.644 OA
ENDBRANCH   1  11
BRANCH   7  14
ATOM     14  NAA 3F0 d   1     -19.287 -32.295  17.256  0.00  0.00    -0.396 N 
ATOM     15  H   3F0 d   1     -19.906 -32.451  18.065  0.00  0.00     0.156 HD
ATOM     16  H   3F0 d   1     -19.283 -31.382  16.779  0.00  0.00     0.156 HD
ENDBRANCH   7  14
TORSDOF 2
