REMARK  1 active torsions:
REMARK  status: ('A' for Active; 'I' for Inactive)
REMARK    1  A    between atoms: C_1  and  C1_4 
ROOT
ATOM      1  C1  BE2 d   1       0.802  36.963 -15.386  0.00  0.00     0.067 A 
ATOM      2  C2  BE2 d   1      -0.291  35.948 -15.523  0.00  0.00     0.042 A 
ATOM      3  C3  BE2 d   1      -0.373  34.893 -14.618  0.00  0.00    -0.057 A 
ATOM      4  N2  BE2 d   1      -1.217  36.041 -16.518  0.00  0.00    -0.398 N 
ATOM      5  C4  BE2 d   1       0.568  34.796 -13.606  0.00  0.00    -0.081 A 
ATOM      6  C5  BE2 d   1       1.581  35.741 -13.484  0.00  0.00    -0.082 A 
ATOM      7  C6  BE2 d   1       1.723  36.817 -14.347  0.00  0.00    -0.064 A 
ATOM      8  H   BE2 d   1      -1.164  34.157 -14.704  0.00  0.00     0.086 H 
ATOM      9  H   BE2 d   1      -1.169  36.816 -17.195  0.00  0.00     0.156 HD
ATOM     10  H   BE2 d   1      -1.965  35.337 -16.593  0.00  0.00     0.156 HD
ATOM     11  H   BE2 d   1       0.514  33.974 -12.901  0.00  0.00     0.083 H 
ATOM     12  H   BE2 d   1       2.294  35.631 -12.675  0.00  0.00     0.083 H 
ATOM     13  H   BE2 d   1       2.531  37.529 -14.218  0.00  0.00     0.085 H 
ENDROOT
BRANCH   1  14
ATOM     14  C   BE2 d   1       0.899  38.121 -16.346  0.00  0.00     0.211 C 
ATOM     15  O1  BE2 d   1       0.012  38.273 -17.221  0.00  0.00    -0.644 OA
ATOM     16  O2  BE2 d   1       1.854  38.922 -16.254  0.00  0.00    -0.644 OA
ENDBRANCH   1  14
TORSDOF 1
