REMARK  8 active torsions:
REMARK  status: ('A' for Active; 'I' for Inactive)
REMARK    1  A    between atoms: O3A_8  and  PB_1 
REMARK    2  A    between atoms: PA_5  and  O3A_8 
REMARK    3  A    between atoms: PA_5  and  O5'_9 
REMARK    4  A    between atoms: O5'_9  and  C5'_10 
REMARK    5  A    between atoms: C5'_10  and  C4'_11 
REMARK    6  A    between atoms: C3'_13  and  O3'_14 
REMARK    7  A    between atoms: C2'_15  and  O2'_16 
REMARK    8  A    between atoms: C1'_17  and  N9_18 
ROOT
ATOM      1  C4' ADP d   1     -13.716   2.761   9.888  0.00  0.00     0.089 C 
ATOM      2  O4' ADP d   1     -12.950   2.839  11.104  0.00  0.00    -0.353 OA
ATOM      3  C3' ADP d   1     -13.926   1.265   9.650  0.00  0.00     0.091 C 
ATOM      4  C2' ADP d   1     -12.637   0.666  10.192  0.00  0.00     0.105 C 
ATOM      5  C1' ADP d   1     -12.370   1.557  11.382  0.00  0.00     0.139 C 
ATOM      6  H   ADP d   1     -13.122   3.179   9.062  0.00  0.00     0.090 H 
ATOM      7  H   ADP d   1     -14.791   0.890  10.216  0.00  0.00     0.091 H 
ATOM      8  H   ADP d   1     -12.750  -0.393  10.468  0.00  0.00     0.093 H 
ATOM      9  H   ADP d   1     -11.281   1.667  11.495  0.00  0.00     0.122 H 
ENDROOT
BRANCH   5  10
ATOM     10  N9  ADP d   1     -12.916   1.039  12.666  0.00  0.00    -0.294 N 
ATOM     11  C8  ADP d   1     -14.066   1.428  13.275  0.00  0.00     0.071 A 
ATOM     12  N7  ADP d   1     -14.233   0.810  14.466  0.00  0.00    -0.236 NA
ATOM     13  H   ADP d   1     -14.767   2.148  12.856  0.00  0.00     0.144 H 
ATOM     14  C5  ADP d   1     -13.156  -0.016  14.605  0.00  0.00     0.149 A 
ATOM     15  C6  ADP d   1     -12.700  -0.962  15.618  0.00  0.00     0.155 A 
ATOM     16  C4  ADP d   1     -12.326   0.134  13.421  0.00  0.00     0.167 A 
ATOM     17  N6  ADP d   1     -13.427  -1.183  16.732  0.00  0.00    -0.382 N 
ATOM     18  N1  ADP d   1     -11.523  -1.618  15.395  0.00  0.00    -0.222 NA
ATOM     19  H   ADP d   1     -13.094  -1.853  17.440  0.00  0.00     0.157 HD
ATOM     20  H   ADP d   1     -14.315  -0.681  16.875  0.00  0.00     0.157 HD
ATOM     21  C2  ADP d   1     -10.795  -1.413  14.280  0.00  0.00     0.091 A 
ATOM     22  N3  ADP d   1     -11.146  -0.555  13.305  0.00  0.00    -0.222 NA
ATOM     23  H   ADP d   1      -9.873  -1.972  14.162  0.00  0.00     0.146 H 
ENDBRANCH   5  10
BRANCH   4  24
ATOM     24  O2' ADP d   1     -11.578   0.841   9.257  0.00  0.00    -0.388 OA
ATOM     25  H   ADP d   1     -10.781   0.463   9.609  0.00  0.00     0.210 HD
ENDBRANCH   4  24
BRANCH   1  26
ATOM     26  C5' ADP d   1     -15.027   3.537   9.949  0.00  0.00     0.058 C 
ATOM     27  H   ADP d   1     -14.829   4.618   9.991  0.00  0.00     0.079 H 
ATOM     28  H   ADP d   1     -15.645   3.311   9.068  0.00  0.00     0.079 H 
BRANCH  26  29
ATOM     29  O5' ADP d   1     -15.683   3.111  11.132  0.00  0.00    -0.287 OA
BRANCH  29  30
ATOM     30  PA  ADP d   1     -17.107   3.577  11.546  0.00  0.00     0.418 P 
ATOM     31  O1A ADP d   1     -17.293   5.036  11.179  0.00  0.00    -0.624 OA
ATOM     32  O2A ADP d   1     -17.377   3.072  12.946  0.00  0.00    -0.624 OA
BRANCH  30  33
ATOM     33  O3A ADP d   1     -18.020   2.681  10.585  0.00  0.00    -0.173 OA
BRANCH  33  34
ATOM     34  PB  ADP d   1     -19.613   2.536  10.839  0.00  0.00     0.431 P 
ATOM     35  O1B ADP d   1     -20.072   1.883   9.550  0.00  0.00    -0.616 OA
ATOM     36  O2B ADP d   1     -19.799   1.652  12.074  0.00  0.00    -0.616 OA
ATOM     37  O3B ADP d   1     -20.156   3.940  11.025  0.00  0.00    -0.616 OA
ENDBRANCH  33  34
ENDBRANCH  30  33
ENDBRANCH  29  30
ENDBRANCH  26  29
ENDBRANCH   1  26
BRANCH   3  38
ATOM     38  O3' ADP d   1     -14.137   1.015   8.268  0.00  0.00    -0.390 OA
ATOM     39  H   ADP d   1     -14.907   1.489   7.976  0.00  0.00     0.210 HD
ENDBRANCH   3  38
TORSDOF 8
