REMARK  7 active torsions:
REMARK  status: ('A' for Active; 'I' for Inactive)
REMARK    1  A    between atoms: C17_2  and  N16_23 
REMARK    2  A    between atoms: C21_4  and  C30_30 
REMARK    3  A    between atoms: C23_26  and  C24_6 
REMARK    4  A    between atoms: C07_15  and  C03_11 
REMARK    5  A    between atoms: C08_16  and  C07_15 
REMARK    6  A    between atoms: C14_21  and  C12_19 
REMARK       I    between atoms: N16_23  and  C14_21 
REMARK    7  A    between atoms: C18_24  and  C23_26 
ROOT
ATOM      1  C14 25G d   1     -30.012 -18.466 -42.502  0.00  0.00     0.274 C 
ATOM      2  O15 25G d   1     -31.201 -18.650 -42.230  0.00  0.00    -0.266 OA
ATOM      3  N16 25G d   1     -29.094 -19.400 -42.889  0.00  0.00    -0.321 N 
ATOM      4  H   25G d   1     -28.192 -19.059 -43.153  0.00  0.00     0.169 HD
ENDROOT
BRANCH   1   5
ATOM      5  C12 25G d   1     -29.407 -17.134 -42.498  0.00  0.00     0.125 A 
ATOM      6  C11 25G d   1     -30.186 -15.894 -42.316  0.00  0.00    -0.050 A 
ATOM      7  C10 25G d   1     -29.503 -14.624 -42.307  0.00  0.00    -0.079 A 
ATOM      8  H   25G d   1     -31.262 -15.937 -42.190  0.00  0.00     0.087 H 
ATOM      9  C09 25G d   1     -28.084 -14.589 -42.484  0.00  0.00    -0.059 A 
ATOM     10  H   25G d   1     -30.060 -13.704 -42.167  0.00  0.00     0.083 H 
ATOM     11  C08 25G d   1     -27.328 -15.849 -42.633  0.00  0.00     0.035 A 
ATOM     12  H   25G d   1     -27.564 -13.638 -42.509  0.00  0.00     0.086 H 
ATOM     13  N13 25G d   1     -27.982 -17.103 -42.648  0.00  0.00    -0.248 NA
BRANCH  11  14
ATOM     14  C07 25G d   1     -25.838 -15.810 -42.787  0.00  0.00    -0.021 C 
ATOM     15  H   25G d   1     -25.537 -14.769 -42.976  0.00  0.00     0.043 H 
ATOM     16  H   25G d   1     -25.384 -16.158 -41.847  0.00  0.00     0.043 H 
BRANCH  14  17
ATOM     17  C03 25G d   1     -25.310 -16.675 -43.923  0.00  0.00    -0.049 C 
ATOM     18  C02 25G d   1     -23.814 -16.815 -43.708  0.00  0.00    -0.061 C 
ATOM     19  C01 25G d   1     -23.128 -17.546 -44.838  0.00  0.00    -0.065 C 
ATOM     20  H   25G d   1     -23.375 -15.810 -43.622  0.00  0.00     0.033 H 
ATOM     21  H   25G d   1     -23.643 -17.371 -42.774  0.00  0.00     0.033 H 
ATOM     22  C06 25G d   1     -23.494 -17.014 -46.203  0.00  0.00    -0.065 C 
ATOM     23  H   25G d   1     -23.411 -18.608 -44.790  0.00  0.00     0.033 H 
ATOM     24  H   25G d   1     -22.040 -17.450 -44.706  0.00  0.00     0.033 H 
ATOM     25  C05 25G d   1     -24.989 -16.830 -46.392  0.00  0.00    -0.065 C 
ATOM     26  H   25G d   1     -23.130 -17.721 -46.963  0.00  0.00     0.033 H 
ATOM     27  H   25G d   1     -23.002 -16.040 -46.342  0.00  0.00     0.033 H 
ATOM     28  C04 25G d   1     -25.601 -16.050 -45.242  0.00  0.00    -0.061 C 
ATOM     29  H   25G d   1     -25.166 -16.283 -47.330  0.00  0.00     0.033 H 
ATOM     30  H   25G d   1     -25.467 -17.819 -46.448  0.00  0.00     0.033 H 
ATOM     31  H   25G d   1     -25.192 -15.029 -45.249  0.00  0.00     0.033 H 
ATOM     32  H   25G d   1     -26.691 -16.009 -45.382  0.00  0.00     0.033 H 
ATOM     33  H   25G d   1     -25.785 -17.667 -43.886  0.00  0.00     0.040 H 
ENDBRANCH  14  17
ENDBRANCH  11  14
ENDBRANCH   1   5
BRANCH   3  34
ATOM     34  C17 25G d   1     -29.281 -20.764 -42.954  0.00  0.00     0.041 A 
ATOM     35  C18 25G d   1     -28.227 -21.617 -43.516  0.00  0.00    -0.026 A 
ATOM     36  C22 25G d   1     -28.363 -23.078 -43.570  0.00  0.00    -0.061 A 
ATOM     37  C21 25G d   1     -29.542 -23.722 -42.992  0.00  0.00     0.013 A 
ATOM     38  H   25G d   1     -27.591 -23.678 -44.038  0.00  0.00     0.086 H 
ATOM     39  C20 25G d   1     -30.589 -22.892 -42.413  0.00  0.00    -0.067 A 
ATOM     40  C19 25G d   1     -30.471 -21.422 -42.389  0.00  0.00    -0.056 A 
ATOM     41  H   25G d   1     -31.470 -23.363 -41.992  0.00  0.00     0.085 H 
ATOM     42  H   25G d   1     -31.263 -20.824 -41.954  0.00  0.00     0.087 H 
BRANCH  35  43
ATOM     43  C23 25G d   1     -27.009 -20.984 -44.114  0.00  0.00    -0.015 C 
ATOM     44  H   25G d   1     -26.588 -21.673 -44.862  0.00  0.00     0.047 H 
ATOM     45  H   25G d   1     -27.308 -20.047 -44.606  0.00  0.00     0.047 H 
BRANCH  43  46
ATOM     46  C24 25G d   1     -25.960 -20.677 -43.114  0.00  0.00    -0.054 A 
ATOM     47  C26 25G d   1     -24.552 -20.795 -43.520  0.00  0.00    -0.077 A 
ATOM     48  C25 25G d   1     -23.460 -20.478 -42.584  0.00  0.00    -0.082 A 
ATOM     49  H   25G d   1     -24.313 -21.121 -44.526  0.00  0.00     0.084 H 
ATOM     50  C29 25G d   1     -23.776 -20.043 -41.241  0.00  0.00    -0.083 A 
ATOM     51  H   25G d   1     -22.427 -20.570 -42.899  0.00  0.00     0.083 H 
ATOM     52  C28 25G d   1     -25.178 -19.891 -40.832  0.00  0.00    -0.082 A 
ATOM     53  H   25G d   1     -22.979 -19.830 -40.538  0.00  0.00     0.083 H 
ATOM     54  C27 25G d   1     -26.304 -20.218 -41.756  0.00  0.00    -0.077 A 
ATOM     55  H   25G d   1     -25.401 -19.532 -39.834  0.00  0.00     0.083 H 
ATOM     56  H   25G d   1     -27.336 -20.122 -41.440  0.00  0.00     0.084 H 
ENDBRANCH  43  46
ENDBRANCH  35  43
BRANCH  37  57
ATOM     57  C30 25G d   1     -29.657 -25.191 -43.130  0.00  0.00     0.168 A 
ATOM     58  N31 25G d   1     -30.417 -25.966 -42.349  0.00  0.00    -0.268 N 
ATOM     59  N34 25G d   1     -30.228 -27.186 -42.851  0.00  0.00    -0.005 NA
ATOM     60  H   25G d   1     -31.006 -25.687 -41.552  0.00  0.00     0.185 HD
ATOM     61  N33 25G d   1     -29.389 -27.145 -43.877  0.00  0.00     0.018 NA
ATOM     62  N32 25G d   1     -29.019 -25.867 -44.052  0.00  0.00    -0.142 NA
ENDBRANCH  37  57
ENDBRANCH   3  34
TORSDOF 7
