REMARK  3 active torsions:
REMARK  status: ('A' for Active; 'I' for Inactive)
REMARK    1  A    between atoms: N4_9  and  C5_2 
REMARK    2  A    between atoms: C7_4  and  C8_5 
REMARK    3  A    between atoms: C2_8  and  C1_7 
ROOT
ATOM      1  N3  2F6 d   1      18.067  18.527  16.792  0.00  0.00    -0.177 NA
ATOM      2  C6  2F6 d   1      16.545  19.436  15.474  0.00  0.00     0.012 A 
ATOM      3  C7  2F6 d   1      16.054  19.391  16.751  0.00  0.00     0.035 A 
ATOM      4  C2  2F6 d   1      17.043  18.791  17.551  0.00  0.00     0.065 A 
ATOM      5  N4  2F6 d   1      17.784  18.915  15.492  0.00  0.00    -0.284 N 
ATOM      6  H   2F6 d   1      16.025  19.825  14.600  0.00  0.00     0.115 H 
ENDROOT
BRANCH   3   7
ATOM      7  C8  2F6 d   1      14.696  19.860  17.172  0.00  0.00     0.065 A 
ATOM      8  C9  2F6 d   1      13.560  19.850  16.342  0.00  0.00    -0.036 A 
ATOM      9  C10 2F6 d   1      12.513  20.324  17.031  0.00  0.00     0.024 A 
ATOM     10  H   2F6 d   1      13.536  19.512  15.307  0.00  0.00     0.089 H 
ATOM     11  N11 2F6 d   1      12.958  20.631  18.266  0.00  0.00    -0.187 NA
ATOM     12  H   2F6 d   1      11.495  20.439  16.663  0.00  0.00     0.117 H 
ATOM     13  N13 2F6 d   1      14.319  20.341  18.348  0.00  0.00    -0.278 N 
ATOM     14  H   2F6 d   1      14.922  20.476  19.172  0.00  0.00     0.189 HD
ENDBRANCH   3   7
BRANCH   4  15
ATOM     15  C1  2F6 d   1      16.993  18.500  19.033  0.00  0.00    -0.033 C 
ATOM     16  H   2F6 d   1      16.020  18.818  19.436  0.00  0.00     0.035 H 
ATOM     17  H   2F6 d   1      17.798  19.050  19.542  0.00  0.00     0.035 H 
ATOM     18  H   2F6 d   1      17.124  17.421  19.199  0.00  0.00     0.035 H 
ENDBRANCH   4  15
BRANCH   5  19
ATOM     19  C5  2F6 d   1      18.709  18.766  14.371  0.00  0.00     0.002 C 
ATOM     20  H   2F6 d   1      18.239  19.151  13.454  0.00  0.00     0.059 H 
ATOM     21  H   2F6 d   1      18.955  17.702  14.238  0.00  0.00     0.059 H 
ATOM     22  H   2F6 d   1      19.629  19.332  14.577  0.00  0.00     0.059 H 
ENDBRANCH   5  19
TORSDOF 3
