REMARK  7 active torsions:
REMARK  status: ('A' for Active; 'I' for Inactive)
REMARK    1  A    between atoms: C10_10  and  C11_11 
REMARK    2  A    between atoms: N4_19  and  C16_20 
REMARK    3  A    between atoms: C17_22  and  O2_23 
REMARK    4  A    between atoms: C18_24  and  O3_25 
REMARK    5  A    between atoms: C19_26  and  C20_27 
REMARK    6  A    between atoms: C20_27  and  O4_28 
REMARK    7  A    between atoms: O4_28  and  P1_29 
ROOT
ATOM      1  C11 N6P d   1      11.264  75.668  -5.611  0.00  0.00     0.101 A 
ATOM      2  N1  N6P d   1      11.490  74.888  -4.527  0.00  0.00    -0.239 NA
ATOM      3  C12 N6P d   1      10.638  73.944  -4.145  0.00  0.00     0.089 A 
ATOM      4  N2  N6P d   1       9.494  73.688  -4.814  0.00  0.00    -0.222 NA
ATOM      5  C13 N6P d   1       9.170  74.434  -5.911  0.00  0.00     0.165 A 
ATOM      6  C14 N6P d   1      10.048  75.459  -6.344  0.00  0.00     0.134 A 
ATOM      7  N3  N6P d   1       9.482  76.024  -7.446  0.00  0.00    -0.237 NA
ATOM      8  C15 N6P d   1       8.306  75.394  -7.688  0.00  0.00     0.070 A 
ATOM      9  N4  N6P d   1       8.106  74.439  -6.784  0.00  0.00    -0.294 N 
ATOM     10  H   N6P d   1      10.870  73.357  -3.263  0.00  0.00     0.146 H 
ATOM     11  H   N6P d   1       7.625  75.635  -8.503  0.00  0.00     0.144 H 
ENDROOT
BRANCH   9  12
ATOM     12  C16 N6P d   1       7.008  73.606  -6.674  0.00  0.00     0.139 C 
ATOM     13  O1  N6P d   1       5.982  74.075  -7.820  0.00  0.00    -0.353 OA
ATOM     14  C19 N6P d   1       5.032  74.854  -7.325  0.00  0.00     0.089 C 
ATOM     15  C18 N6P d   1       5.113  74.723  -5.779  0.00  0.00     0.091 C 
ATOM     16  H   N6P d   1       4.050  74.504  -7.677  0.00  0.00     0.090 H 
ATOM     17  C17 N6P d   1       6.400  73.897  -5.503  0.00  0.00     0.105 C 
ATOM     18  H   N6P d   1       5.202  75.713  -5.309  0.00  0.00     0.091 H 
ATOM     19  H   N6P d   1       7.093  74.510  -4.908  0.00  0.00     0.093 H 
ATOM     20  H   N6P d   1       7.279  72.543  -6.754  0.00  0.00     0.122 H 
BRANCH  14  21
ATOM     21  C20 N6P d   1       5.213  76.302  -7.746  0.00  0.00     0.059 C 
ATOM     22  H   N6P d   1       6.149  76.706  -7.332  0.00  0.00     0.079 H 
ATOM     23  H   N6P d   1       4.366  76.910  -7.396  0.00  0.00     0.079 H 
BRANCH  21  24
ATOM     24  O4  N6P d   1       5.264  76.297  -9.189  0.00  0.00    -0.280 OA
BRANCH  24  25
ATOM     25  P1  N6P d   1       5.690  77.618  -9.974  0.00  0.00     0.422 P 
ATOM     26  O5  N6P d   1       7.056  78.013  -9.571  0.00  0.00    -0.617 OA
ATOM     27  O6  N6P d   1       5.620  77.290 -11.467  0.00  0.00    -0.617 OA
ATOM     28  O7  N6P d   1       4.726  78.728  -9.648  0.00  0.00    -0.617 OA
ENDBRANCH  24  25
ENDBRANCH  21  24
ENDBRANCH  14  21
BRANCH  15  29
ATOM     29  O3  N6P d   1       3.988  74.130  -5.344  0.00  0.00    -0.390 OA
ATOM     30  H   N6P d   1       3.885  73.291  -5.778  0.00  0.00     0.210 HD
ENDBRANCH  15  29
BRANCH  17  31
ATOM     31  O2  N6P d   1       6.039  72.702  -4.696  0.00  0.00    -0.388 OA
ATOM     32  H   N6P d   1       5.444  72.154  -5.193  0.00  0.00     0.210 HD
ENDBRANCH  17  31
ENDBRANCH   9  12
BRANCH   1  33
ATOM     33  C10 N6P d   1      12.242  76.779  -5.943  0.00  0.00    -0.004 A 
ATOM     34  C1  N6P d   1      13.303  77.012  -5.083  0.00  0.00    -0.060 A 
ATOM     35  C2  N6P d   1      14.190  78.060  -5.335  0.00  0.00    -0.025 A 
ATOM     36  H   N6P d   1      13.444  76.380  -4.214  0.00  0.00     0.086 H 
ATOM     37  C3  N6P d   1      15.287  78.273  -4.486  0.00  0.00    -0.072 A 
ATOM     38  C7  N6P d   1      13.982  78.904  -6.418  0.00  0.00    -0.026 A 
ATOM     39  C4  N6P d   1      16.171  79.319  -4.730  0.00  0.00    -0.082 A 
ATOM     40  H   N6P d   1      15.446  77.619  -3.636  0.00  0.00     0.084 H 
ATOM     41  C5  N6P d   1      15.957  80.159  -5.823  0.00  0.00    -0.082 A 
ATOM     42  H   N6P d   1      17.020  79.480  -4.076  0.00  0.00     0.083 H 
ATOM     43  C6  N6P d   1      14.861  79.954  -6.664  0.00  0.00    -0.072 A 
ATOM     44  H   N6P d   1      16.644  80.974  -6.020  0.00  0.00     0.083 H 
ATOM     45  H   N6P d   1      14.695  80.613  -7.508  0.00  0.00     0.084 H 
ATOM     46  C8  N6P d   1      12.890  78.700  -7.263  0.00  0.00    -0.071 A 
ATOM     47  C9  N6P d   1      12.014  77.655  -7.017  0.00  0.00    -0.070 A 
ATOM     48  H   N6P d   1      12.728  79.357  -8.110  0.00  0.00     0.084 H 
ATOM     49  H   N6P d   1      11.150  77.513  -7.656  0.00  0.00     0.084 H 
ENDBRANCH   1  33
TORSDOF 7
