REMARK  6 active torsions:
REMARK  status: ('A' for Active; 'I' for Inactive)
REMARK    1  A    between atoms: C33_2  and  C29_5 
REMARK    2  A    between atoms: C27_10  and  N26_11 
REMARK       I    between atoms: N26_11  and  C25_12 
REMARK       I    between atoms: C25_12  and  N24_14 
REMARK    3  A    between atoms: N24_14  and  C17_15 
REMARK    4  A    between atoms: C14_20  and  N11_21 
REMARK    5  A    between atoms: C10_22  and  N21_23 
REMARK    6  A    between atoms: C9_26  and  C22_27 
REMARK       I    between atoms: C22_27  and  N4_28 
ROOT
ATOM      1  C17 Q7M d   1       1.443  -6.097 -15.612  0.00  0.00     0.036 A 
ATOM      2  C16 Q7M d   1       0.383  -6.922 -15.393  0.00  0.00    -0.055 A 
ATOM      3  C15 Q7M d   1       0.545  -8.198 -14.949  0.00  0.00    -0.054 A 
ATOM      4  C18 Q7M d   1       2.684  -6.655 -15.361  0.00  0.00    -0.055 A 
ATOM      5  C19 Q7M d   1       2.826  -7.964 -14.896  0.00  0.00    -0.054 A 
ATOM      6  C14 Q7M d   1       1.744  -8.796 -14.674  0.00  0.00     0.043 A 
ATOM      7  H   Q7M d   1      -0.619  -6.552 -15.578  0.00  0.00     0.087 H 
ATOM      8  H   Q7M d   1      -0.351  -8.790 -14.801  0.00  0.00     0.087 H 
ATOM      9  H   Q7M d   1       3.573  -6.058 -15.530  0.00  0.00     0.087 H 
ATOM     10  H   Q7M d   1       3.823  -8.343 -14.701  0.00  0.00     0.087 H 
ENDROOT
BRANCH   6  11
ATOM     11  N11 Q7M d   1       1.655 -10.041 -14.244  0.00  0.00    -0.279 N 
ATOM     12  C10 Q7M d   1       1.285 -10.446 -13.021  0.00  0.00     0.126 A 
ATOM     13  C9  Q7M d   1       1.162 -11.922 -12.996  0.00  0.00     0.108 A 
ATOM     14  C8  Q7M d   1       1.423 -12.261 -14.413  0.00  0.00     0.123 A 
ATOM     15  C12 Q7M d   1       1.681 -11.000 -15.139  0.00  0.00     0.167 A 
ATOM     16  N7  Q7M d   1       1.441 -13.446 -15.017  0.00  0.00    -0.242 NA
ATOM     17  N13 Q7M d   1       1.963 -11.042 -16.440  0.00  0.00    -0.226 NA
ATOM     18  C4  Q7M d   1       1.991 -12.238 -17.056  0.00  0.00     0.088 A 
ATOM     19  C5  Q7M d   1       1.700 -13.487 -16.314  0.00  0.00     0.086 A 
ATOM     20  C3  Q7M d   1       2.261 -12.329 -18.400  0.00  0.00    -0.053 A 
ATOM     21  C6  Q7M d   1       1.732 -14.695 -16.973  0.00  0.00    -0.053 A 
ATOM     22  C1  Q7M d   1       2.028 -14.721 -18.321  0.00  0.00    -0.081 A 
ATOM     23  H   Q7M d   1       1.527 -15.616 -16.439  0.00  0.00     0.087 H 
ATOM     24  C2  Q7M d   1       2.280 -13.560 -19.020  0.00  0.00    -0.081 A 
ATOM     25  H   Q7M d   1       2.063 -15.672 -18.840  0.00  0.00     0.083 H 
ATOM     26  H   Q7M d   1       2.498 -13.616 -20.080  0.00  0.00     0.083 H 
ATOM     27  H   Q7M d   1       2.459 -11.431 -18.974  0.00  0.00     0.087 H 
BRANCH  12  28
ATOM     28  N21 Q7M d   1       1.140  -9.643 -11.963  0.00  0.00    -0.384 N 
ATOM     29  H   Q7M d   1       0.852 -10.034 -11.055  0.00  0.00     0.157 HD
ATOM     30  H   Q7M d   1       1.317  -8.633 -12.055  0.00  0.00     0.157 HD
ENDBRANCH  12  28
BRANCH  13  31
ATOM     31  C22 Q7M d   1       0.817 -12.936 -11.939  0.00  0.00     0.255 C 
ATOM     32  N4  Q7M d   1       0.558 -14.184 -12.241  0.00  0.00    -0.366 N 
ATOM     33  H   Q7M d   1       0.332 -14.837 -11.518  0.00  0.00     0.159 HD
ATOM     34  H   Q7M d   1       0.587 -14.484 -13.194  0.00  0.00     0.159 HD
ATOM     35  O23 Q7M d   1       0.723 -12.654 -10.771  0.00  0.00    -0.268 OA
ENDBRANCH  13  31
ENDBRANCH   6  11
BRANCH   1  36
ATOM     36  N24 Q7M d   1       1.360  -4.793 -16.004  0.00  0.00    -0.309 N 
ATOM     37  C25 Q7M d   1       0.290  -4.007 -15.969  0.00  0.00     0.325 C 
ATOM     38  N26 Q7M d   1       0.419  -2.798 -16.504  0.00  0.00    -0.309 N 
ATOM     39  O34 Q7M d   1      -0.733  -4.355 -15.480  0.00  0.00    -0.247 OA
ATOM     40  H   Q7M d   1       1.272  -2.591 -16.984  0.00  0.00     0.170 HD
ATOM     41  H   Q7M d   1       2.200  -4.382 -16.358  0.00  0.00     0.170 HD
BRANCH  38  42
ATOM     42  C27 Q7M d   1      -0.534  -1.813 -16.445  0.00  0.00     0.037 A 
ATOM     43  C28 Q7M d   1      -1.661  -1.739 -15.580  0.00  0.00    -0.043 A 
ATOM     44  C29 Q7M d   1      -2.587  -0.730 -15.729  0.00  0.00     0.050 A 
ATOM     45  H   Q7M d   1      -1.792  -2.480 -14.800  0.00  0.00     0.088 H 
ATOM     46  C30 Q7M d   1      -2.387   0.213 -16.678  0.00  0.00    -0.068 A 
ATOM     47  C31 Q7M d   1      -1.310   0.153 -17.514  0.00  0.00    -0.080 A 
ATOM     48  H   Q7M d   1      -3.093   1.029 -16.776  0.00  0.00     0.084 H 
ATOM     49  C32 Q7M d   1      -0.396  -0.833 -17.396  0.00  0.00    -0.057 A 
ATOM     50  H   Q7M d   1      -1.187   0.907 -18.283  0.00  0.00     0.083 H 
ATOM     51  H   Q7M d   1       0.459  -0.851 -18.062  0.00  0.00     0.086 H 
BRANCH  44  52
ATOM     52  C33 Q7M d   1      -3.787  -0.541 -14.883  0.00  0.00     0.417 C 
ATOM     53  F36 Q7M d   1      -4.752   0.041 -15.462  0.00  0.00    -0.166 F 
ATOM     54  F37 Q7M d   1      -3.530   0.264 -13.982  0.00  0.00    -0.166 F 
ATOM     55  F35 Q7M d   1      -4.126  -1.521 -14.164  0.00  0.00    -0.166 F 
ENDBRANCH  44  52
ENDBRANCH  38  42
ENDBRANCH   1  36
TORSDOF 6
