REMARK  8 active torsions:
REMARK  status: ('A' for Active; 'I' for Inactive)
REMARK    1  A    between atoms: P_2  and  O4_5 
REMARK    2  A    between atoms: O4_5  and  C4_6 
REMARK    3  A    between atoms: C4_6  and  C3_7 
REMARK    4  A    between atoms: C3_7  and  O3_8 
REMARK    5  A    between atoms: C3_7  and  C2_9 
REMARK    6  A    between atoms: C2_9  and  O2_10 
REMARK    7  A    between atoms: C2_9  and  C1_11 
REMARK       I    between atoms: C1_11  and  N_13 
REMARK    8  A    between atoms: N_13  and  ON_14 
ROOT
ATOM      1  C3  RES d   1      -9.954   5.505 -30.978  0.00  0.00     0.090 C 
ATOM      2  H3  RES d   1      -9.412   6.221 -30.342  0.00  0.00     0.091 H 
ENDROOT
BRANCH   1   3
ATOM      3  C4  RES d   1      -9.149   5.228 -32.239  0.00  0.00     0.059 C 
ATOM      4  H1  RES d   1      -9.688   5.612 -33.118  0.00  0.00     0.079 H 
ATOM      5  H2  RES d   1      -8.166   5.718 -32.169  0.00  0.00     0.079 H 
BRANCH   3   6
ATOM      6  O4  RES d   1      -8.980   3.821 -32.353  0.00  0.00    -0.280 OA
BRANCH   6   7
ATOM      7  P   RES d   1      -8.326   3.118 -33.643  0.00  0.00     0.422 P 
ATOM      8  O7  RES d   1      -8.264   4.171 -34.727  0.00  0.00    -0.617 OA
ATOM      9  O5  RES d   1      -6.979   2.629 -33.172  0.00  0.00    -0.617 OA
ATOM     10  O6  RES d   1      -9.297   2.008 -33.985  0.00  0.00    -0.617 OA
ENDBRANCH   6   7
ENDBRANCH   3   6
ENDBRANCH   1   3
BRANCH   1  11
ATOM     11  O3  RES d   1     -11.234   6.033 -31.321  0.00  0.00    -0.390 OA
ATOM     12  H4  RES d   1     -11.701   5.404 -31.858  0.00  0.00     0.210 HD
ENDBRANCH   1  11
BRANCH   1  13
ATOM     13  C2  RES d   1     -10.165   4.203 -30.232  0.00  0.00     0.140 C 
ATOM     14  H5  RES d   1     -10.305   3.379 -30.948  0.00  0.00     0.102 H 
BRANCH  13  15
ATOM     15  O2  RES d   1      -9.023   3.964 -29.423  0.00  0.00    -0.383 OA
ATOM     16  H6  RES d   1      -8.252   3.903 -29.975  0.00  0.00     0.210 HD
ENDBRANCH  13  15
BRANCH  13  17
ATOM     17  C1  RES d   1     -11.357   4.309 -29.339  0.00  0.00     0.272 C 
ATOM     18  O1  RES d   1     -12.463   4.087 -29.790  0.00  0.00    -0.268 OA
ATOM     19  N   RES d   1     -11.119   4.639 -28.073  0.00  0.00    -0.235 N 
ATOM     20  H7  RES d   1     -10.181   4.823 -27.777  0.00  0.00     0.197 HD
BRANCH  19  21
ATOM     21  ON  RES d   1     -12.162   4.731 -27.154  0.00  0.00    -0.287 OA
ATOM     22  H8  RES d   1     -12.782   5.390 -27.445  0.00  0.00     0.244 HD
ENDBRANCH  19  21
ENDBRANCH  13  17
ENDBRANCH   1  13
TORSDOF 8
