REMARK  10 active torsions:
REMARK  status: ('A' for Active; 'I' for Inactive)
REMARK    1  A    between atoms: C24_7  and  C31_9 
REMARK    2  A    between atoms: C15_12  and  O21_13 
REMARK    3  A    between atoms: C3_18  and  C10_19 
REMARK    4  A    between atoms: C2_20  and  C8_22 
REMARK    5  A    between atoms: C1_23  and  C5_24 
REMARK    6  A    between atoms: C1_23  and  O4_28 
REMARK    7  A    between atoms: C5_24  and  O13_25 
REMARK    8  A    between atoms: C5_24  and  C12_26 
REMARK    9  A    between atoms: O4_28  and  C11_29 
REMARK   10  A    between atoms: C11_29  and  C16_31 
ROOT
ATOM      1  O35 MOF d   1      27.781 -56.162 -42.115  0.00  0.00    -0.289 OA
ATOM      2  C34 MOF d   1      27.311 -55.135 -41.582  0.00  0.00     0.172 A 
ATOM      3  C33 MOF d   1      28.043 -53.949 -41.580  0.00  0.00    -0.037 A 
ATOM      4  C32 MOF d   1      26.144 -55.253 -40.853  0.00  0.00    -0.031 A 
ATOM      5  C29 MOF d   1      25.611 -54.160 -40.202  0.00  0.00    -0.062 A 
ATOM      6  C26 MOF d   1      24.332 -54.351 -39.415  0.00  0.00    -0.043 C 
ATOM      7  C24 MOF d   1      26.303 -52.824 -40.180  0.00  0.00     0.022 A 
ATOM      8  C30 MOF d   1      27.568 -52.830 -40.910  0.00  0.00    -0.085 A 
ATOM      9  C19 MOF d   1      26.612 -52.551 -38.689  0.00  0.00     0.081 C 
ATOM     10 CL25 MOF d   1      27.644 -53.909 -38.068  0.00  0.00    -0.115 Cl
ATOM     11  C15 MOF d   1      27.515 -51.333 -38.414  0.00  0.00     0.058 C 
ATOM     12  C14 MOF d   1      25.297 -52.564 -37.877  0.00  0.00    -0.025 C 
ATOM     13  C20 MOF d   1      24.577 -53.906 -37.978  0.00  0.00    -0.056 C 
ATOM     14  C6  MOF d   1      25.596 -52.306 -36.406  0.00  0.00    -0.038 C 
ATOM     15  C9  MOF d   1      24.449 -52.313 -35.407  0.00  0.00    -0.055 C 
ATOM     16  C3  MOF d   1      25.053 -51.595 -34.205  0.00  0.00    -0.023 C 
ATOM     17  C2  MOF d   1      26.347 -51.012 -36.142  0.00  0.00    -0.003 C 
ATOM     18  C7  MOF d   1      27.671 -51.057 -36.917  0.00  0.00    -0.029 C 
ATOM     19  C1  MOF d   1      26.490 -51.155 -34.620  0.00  0.00     0.109 C 
ATOM     20  H   MOF d   1      28.994 -53.900 -42.108  0.00  0.00     0.089 H 
ATOM     21  H   MOF d   1      25.641 -56.217 -40.792  0.00  0.00     0.090 H 
ATOM     22  H   MOF d   1      24.042 -55.412 -39.430  0.00  0.00     0.039 H 
ATOM     23  H   MOF d   1      23.529 -53.745 -39.859  0.00  0.00     0.039 H 
ATOM     24  H   MOF d   1      28.163 -51.918 -40.929  0.00  0.00     0.078 H 
ATOM     25  H   MOF d   1      28.511 -51.597 -38.800  0.00  0.00     0.086 H 
ATOM     26  H   MOF d   1      24.637 -51.772 -38.262  0.00  0.00     0.043 H 
ATOM     27  H   MOF d   1      25.189 -54.669 -37.475  0.00  0.00     0.034 H 
ATOM     28  H   MOF d   1      23.606 -53.821 -37.468  0.00  0.00     0.034 H 
ATOM     29  H   MOF d   1      26.261 -53.132 -36.113  0.00  0.00     0.042 H 
ATOM     30  H   MOF d   1      24.153 -53.340 -35.149  0.00  0.00     0.034 H 
ATOM     31  H   MOF d   1      23.578 -51.768 -35.799  0.00  0.00     0.034 H 
ATOM     32  H   MOF d   1      24.492 -50.669 -34.012  0.00  0.00     0.044 H 
ATOM     33  H   MOF d   1      28.174 -50.086 -36.796  0.00  0.00     0.038 H 
ATOM     34  H   MOF d   1      28.297 -51.851 -36.484  0.00  0.00     0.038 H 
ENDROOT
BRANCH  19  35
ATOM     35  C5  MOF d   1      26.971 -49.835 -34.045  0.00  0.00     0.079 C 
ATOM     36  H   MOF d   1      27.176 -50.343 -33.091  0.00  0.00     0.089 H 
BRANCH  35  37
ATOM     37  O13 MOF d   1      26.096 -49.030 -33.468  0.00  0.00    -0.391 OA
ATOM     38  H   MOF d   1      26.541 -48.250 -33.159  0.00  0.00     0.210 HD
ENDBRANCH  35  37
BRANCH  35  39
ATOM     39  C12 MOF d   1      28.395 -49.315 -34.074  0.00  0.00     0.029 C 
ATOM     40 CL18 MOF d   1      28.519 -47.556 -34.642  0.00  0.00    -0.128 Cl
ATOM     41  H   MOF d   1      28.983 -49.945 -34.757  0.00  0.00     0.060 H 
ATOM     42  H   MOF d   1      28.813 -49.385 -33.059  0.00  0.00     0.060 H 
ENDBRANCH  35  39
ENDBRANCH  19  35
BRANCH  19  43
ATOM     43  O4  MOF d   1      27.472 -52.192 -34.378  0.00  0.00    -0.301 OA
BRANCH  43  44
ATOM     44  C11 MOF d   1      28.214 -52.577 -33.161  0.00  0.00     0.318 C 
ATOM     45  O17 MOF d   1      28.242 -51.933 -32.112  0.00  0.00    -0.257 OA
BRANCH  44  46
ATOM     46  C16 MOF d   1      28.981 -53.821 -33.168  0.00  0.00     0.149 A 
ATOM     47  C22 MOF d   1      29.208 -54.770 -34.122  0.00  0.00    -0.042 A 
ATOM     48  C27 MOF d   1      30.029 -55.674 -33.490  0.00  0.00    -0.059 A 
ATOM     49  H   MOF d   1      28.829 -54.803 -35.142  0.00  0.00     0.088 H 
ATOM     50  C28 MOF d   1      30.251 -55.258 -32.195  0.00  0.00     0.020 A 
ATOM     51  H   MOF d   1      30.439 -56.576 -33.941  0.00  0.00     0.086 H 
ATOM     52  O23 MOF d   1      29.594 -54.078 -31.987  0.00  0.00    -0.317 OA
ATOM     53  H   MOF d   1      30.853 -55.785 -31.456  0.00  0.00     0.123 H 
ENDBRANCH  44  46
ENDBRANCH  43  44
ENDBRANCH  19  43
BRANCH  16  54
ATOM     54  C10 MOF d   1      24.804 -52.506 -33.007  0.00  0.00    -0.070 C 
ATOM     55  H   MOF d   1      23.724 -52.684 -32.900  0.00  0.00     0.028 H 
ATOM     56  H   MOF d   1      25.188 -52.026 -32.095  0.00  0.00     0.028 H 
ATOM     57  H   MOF d   1      25.320 -53.465 -33.162  0.00  0.00     0.028 H 
ENDBRANCH  16  54
BRANCH  17  58
ATOM     58  C8  MOF d   1      25.532 -49.741 -36.460  0.00  0.00    -0.066 C 
ATOM     59  H   MOF d   1      25.428 -49.636 -37.550  0.00  0.00     0.028 H 
ATOM     60  H   MOF d   1      26.052 -48.861 -36.055  0.00  0.00     0.028 H 
ATOM     61  H   MOF d   1      24.535 -49.821 -36.002  0.00  0.00     0.028 H 
ENDBRANCH  17  58
BRANCH  11  62
ATOM     62  O21 MOF d   1      27.119 -50.131 -39.086  0.00  0.00    -0.394 OA
ATOM     63  H   MOF d   1      27.723 -49.432 -38.865  0.00  0.00     0.210 HD
ENDBRANCH  11  62
BRANCH   7  64
ATOM     64  C31 MOF d   1      25.355 -51.868 -40.925  0.00  0.00    -0.060 C 
ATOM     65  H   MOF d   1      25.243 -52.202 -41.967  0.00  0.00     0.029 H 
ATOM     66  H   MOF d   1      25.773 -50.851 -40.909  0.00  0.00     0.029 H 
ATOM     67  H   MOF d   1      24.372 -51.868 -40.432  0.00  0.00     0.029 H 
ENDBRANCH   7  64
TORSDOF 10
