REMARK  7 active torsions:
REMARK  status: ('A' for Active; 'I' for Inactive)
REMARK    1  A    between atoms: C10_10  and  C19_19 
REMARK    2  A    between atoms: C11_12  and  O2_23 
REMARK    3  A    between atoms: C13_13  and  C18_18 
REMARK    4  A    between atoms: C17_17  and  C20_20 
REMARK    5  A    between atoms: C17_17  and  O3_24 
REMARK    6  A    between atoms: C20_20  and  C21_21 
REMARK    7  A    between atoms: C21_21  and  O5_26 
ROOT
ATOM      1  C1  HCY d   1       3.720  32.214  -3.765  0.00  0.00    -0.048 C 
ATOM      2  C2  HCY d   1       3.932  32.658  -2.320  0.00  0.00    -0.005 C 
ATOM      3  C3  HCY d   1       5.025  33.701  -2.219  0.00  0.00     0.149 C 
ATOM      4  C4  HCY d   1       5.393  34.520  -3.378  0.00  0.00    -0.036 C 
ATOM      5  C5  HCY d   1       4.821  34.351  -4.576  0.00  0.00    -0.068 C 
ATOM      6  C6  HCY d   1       5.197  35.325  -5.656  0.00  0.00    -0.043 C 
ATOM      7  C7  HCY d   1       5.514  34.616  -6.953  0.00  0.00    -0.057 C 
ATOM      8  C8  HCY d   1       4.507  33.523  -7.294  0.00  0.00    -0.043 C 
ATOM      9  C9  HCY d   1       4.231  32.554  -6.139  0.00  0.00    -0.015 C 
ATOM     10  C10 HCY d   1       3.776  33.274  -4.848  0.00  0.00    -0.014 C 
ATOM     11  C12 HCY d   1       3.904  30.662  -7.820  0.00  0.00    -0.030 C 
ATOM     12  C11 HCY d   1       3.370  31.320  -6.536  0.00  0.00     0.041 C 
ATOM     13  C13 HCY d   1       4.193  31.629  -8.969  0.00  0.00     0.001 C 
ATOM     14  C14 HCY d   1       5.099  32.734  -8.443  0.00  0.00    -0.040 C 
ATOM     15  C15 HCY d   1       5.464  33.506  -9.681  0.00  0.00    -0.058 C 
ATOM     16  C16 HCY d   1       5.492  32.475 -10.801  0.00  0.00    -0.028 C 
ATOM     17  C17 HCY d   1       5.035  31.178 -10.190  0.00  0.00     0.128 C 
ATOM     18  O1  HCY d   1       5.626  33.868  -1.172  0.00  0.00    -0.293 OA
ATOM     19  H   HCY d   1       2.728  31.741  -3.820  0.00  0.00     0.035 H 
ATOM     20  H   HCY d   1       4.495  31.468  -3.996  0.00  0.00     0.035 H 
ATOM     21  H   HCY d   1       4.214  31.784  -1.714  0.00  0.00     0.044 H 
ATOM     22  H   HCY d   1       2.994  33.084  -1.935  0.00  0.00     0.044 H 
ATOM     23  H   HCY d   1       6.155  35.289  -3.260  0.00  0.00     0.089 H 
ATOM     24  H   HCY d   1       6.082  35.893  -5.333  0.00  0.00     0.039 H 
ATOM     25  H   HCY d   1       4.358  36.017  -5.822  0.00  0.00     0.039 H 
ATOM     26  H   HCY d   1       6.511  34.160  -6.869  0.00  0.00     0.034 H 
ATOM     27  H   HCY d   1       5.517  35.357  -7.766  0.00  0.00     0.034 H 
ATOM     28  H   HCY d   1       3.559  33.989  -7.600  0.00  0.00     0.041 H 
ATOM     29  H   HCY d   1       5.215  32.130  -5.888  0.00  0.00     0.046 H 
ATOM     30  H   HCY d   1       3.156  29.934  -8.167  0.00  0.00     0.038 H 
ATOM     31  H   HCY d   1       4.839  30.138  -7.572  0.00  0.00     0.038 H 
ATOM     32  H   HCY d   1       3.481  30.590  -5.721  0.00  0.00     0.083 H 
ATOM     33  H   HCY d   1       6.017  32.273  -8.050  0.00  0.00     0.042 H 
ATOM     34  H   HCY d   1       6.452  33.976  -9.565  0.00  0.00     0.033 H 
ATOM     35  H   HCY d   1       4.711  34.281  -9.889  0.00  0.00     0.033 H 
ATOM     36  H   HCY d   1       6.513  32.371 -11.198  0.00  0.00     0.038 H 
ATOM     37  H   HCY d   1       4.812  32.775 -11.612  0.00  0.00     0.038 H 
ENDROOT
BRANCH  17  38
ATOM     38  C20 HCY d   1       4.344  30.324 -11.236  0.00  0.00     0.184 C 
ATOM     39  O4  HCY d   1       4.074  30.753 -12.353  0.00  0.00    -0.292 OA
BRANCH  38  40
ATOM     40  C21 HCY d   1       3.971  28.929 -10.858  0.00  0.00     0.074 C 
ATOM     41  H   HCY d   1       3.346  28.951  -9.953  0.00  0.00     0.086 H 
ATOM     42  H   HCY d   1       4.884  28.349 -10.659  0.00  0.00     0.086 H 
BRANCH  40  43
ATOM     43  O5  HCY d   1       3.246  28.318 -11.917  0.00  0.00    -0.393 OA
ATOM     44  H   HCY d   1       2.457  28.818 -12.089  0.00  0.00     0.209 HD
ENDBRANCH  40  43
ENDBRANCH  38  40
ENDBRANCH  17  38
BRANCH  17  45
ATOM     45  O3  HCY d   1       6.227  30.477  -9.782  0.00  0.00    -0.381 OA
ATOM     46  H   HCY d   1       5.986  29.647  -9.388  0.00  0.00     0.211 HD
ENDBRANCH  17  45
BRANCH  13  47
ATOM     47  C18 HCY d   1       2.870  32.195  -9.490  0.00  0.00    -0.065 C 
ATOM     48  H   HCY d   1       2.252  32.523  -8.641  0.00  0.00     0.028 H 
ATOM     49  H   HCY d   1       2.335  31.417 -10.054  0.00  0.00     0.028 H 
ATOM     50  H   HCY d   1       3.072  33.052 -10.149  0.00  0.00     0.028 H 
ENDBRANCH  13  47
BRANCH  12  51
ATOM     51  O2  HCY d   1       1.955  31.578  -6.670  0.00  0.00    -0.395 OA
ATOM     52  H   HCY d   1       1.497  30.759  -6.817  0.00  0.00     0.210 HD
ENDBRANCH  12  51
BRANCH  10  53
ATOM     53  C19 HCY d   1       2.432  33.992  -5.018  0.00  0.00    -0.065 C 
ATOM     54  H   HCY d   1       2.158  34.485  -4.074  0.00  0.00     0.028 H 
ATOM     55  H   HCY d   1       1.657  33.260  -5.288  0.00  0.00     0.028 H 
ATOM     56  H   HCY d   1       2.517  34.746  -5.814  0.00  0.00     0.028 H 
ENDBRANCH  10  53
TORSDOF 7
