REMARK  5 active torsions:
REMARK  status: ('A' for Active; 'I' for Inactive)
REMARK    1  A    between atoms: N1_9  and  C1'_10 
REMARK    2  A    between atoms: C2'_11  and  O2'_12 
REMARK    3  A    between atoms: C3'_13  and  O3'_14 
REMARK    4  A    between atoms: C4'_15  and  C5'_17 
REMARK    5  A    between atoms: C5'_17  and  O5'_18 
ROOT
ATOM      1  C1' 5UD d   1      52.470 -19.300  -7.643  0.00  0.00     0.141 C 
ATOM      2  C2' 5UD d   1      52.046 -17.839  -7.735  0.00  0.00     0.105 C 
ATOM      3  C3' 5UD d   1      52.129 -17.358  -6.300  0.00  0.00     0.091 C 
ATOM      4  C4' 5UD d   1      53.309 -18.161  -5.781  0.00  0.00     0.088 C 
ATOM      5  O4' 5UD d   1      53.213 -19.451  -6.442  0.00  0.00    -0.353 OA
ATOM      6  H   5UD d   1      53.121 -19.533  -8.499  0.00  0.00     0.123 H 
ATOM      7  H   5UD d   1      51.030 -17.732  -8.143  0.00  0.00     0.093 H 
ATOM      8  H   5UD d   1      51.207 -17.572  -5.739  0.00  0.00     0.091 H 
ATOM      9  H   5UD d   1      54.261 -17.662  -6.017  0.00  0.00     0.090 H 
ENDROOT
BRANCH   1  10
ATOM     10  N1  5UD d   1      51.311 -20.238  -7.678  0.00  0.00    -0.277 N 
ATOM     11  C2  5UD d   1      50.751 -20.556  -8.881  0.00  0.00     0.331 A 
ATOM     12  N3  5UD d   1      49.685 -21.416  -8.937  0.00  0.00    -0.273 N 
ATOM     13  O2  5UD d   1      51.200 -20.077  -9.907  0.00  0.00    -0.246 OA
ATOM     14  C4  5UD d   1      49.178 -21.958  -7.773  0.00  0.00     0.289 A 
ATOM     15  H   5UD d   1      49.276 -21.650  -9.819  0.00  0.00     0.173 HD
ATOM     16  C5  5UD d   1      49.784 -21.607  -6.518  0.00  0.00     0.199 A 
ATOM     17  O4  5UD d   1      48.222 -22.729  -7.805  0.00  0.00    -0.265 OA
ATOM     18  F5  5UD d   1      49.312 -22.115  -5.402  0.00  0.00    -0.199 F 
ATOM     19  C6  5UD d   1      50.826 -20.765  -6.495  0.00  0.00     0.030 A 
ATOM     20  H   5UD d   1      51.290 -20.496  -5.547  0.00  0.00     0.117 H 
ENDBRANCH   1  10
BRANCH   2  21
ATOM     21  O2' 5UD d   1      52.979 -17.133  -8.528  0.00  0.00    -0.388 OA
ATOM     22  H   5UD d   1      52.717 -16.222  -8.587  0.00  0.00     0.210 HD
ENDBRANCH   2  21
BRANCH   3  23
ATOM     23  O3' 5UD d   1      52.415 -15.966  -6.263  0.00  0.00    -0.390 OA
ATOM     24  H   5UD d   1      52.464 -15.678  -5.359  0.00  0.00     0.210 HD
ENDBRANCH   3  23
BRANCH   4  25
ATOM     25  C5' 5UD d   1      53.177 -18.362  -4.284  0.00  0.00     0.043 C 
ATOM     26  H   5UD d   1      53.360 -17.390  -3.802  0.00  0.00     0.078 H 
ATOM     27  H   5UD d   1      53.955 -19.076  -3.976  0.00  0.00     0.078 H 
BRANCH  25  28
ATOM     28  O5' 5UD d   1      51.931 -18.851  -3.801  0.00  0.00    -0.398 OA
ATOM     29  H   5UD d   1      51.240 -18.243  -4.038  0.00  0.00     0.209 HD
ENDBRANCH  25  28
ENDBRANCH   4  25
TORSDOF 5
