REMARK  5 active torsions:
REMARK  status: ('A' for Active; 'I' for Inactive)
REMARK    1  A    between atoms: CAH_6  and  CAG_7 
REMARK    2  A    between atoms: CAF_8  and  CAD_9 
REMARK    3  A    between atoms: CAA_11  and  CAN_12 
REMARK    4  A    between atoms: CAB_13  and  OAO_14 
REMARK    5  A    between atoms: CAC_15  and  OAP_16 
ROOT
ATOM      1  CAD 2M7 d   1      30.910   6.381  55.928  0.00  0.00     0.187 C 
ATOM      2  NAE 2M7 d   1      29.469   6.491  56.253  0.00  0.00    -0.051 N 
ATOM      3  CAA 2M7 d   1      28.951   5.113  56.226  0.00  0.00     0.127 C 
ATOM      4  CAB 2M7 d   1      29.873   4.415  55.284  0.00  0.00     0.090 C 
ATOM      5  CAC 2M7 d   1      31.165   4.907  55.892  0.00  0.00     0.100 C 
ATOM      6  H   2M7 d   1      31.158   6.838  54.959  0.00  0.00     0.109 H 
ATOM      7  H   2M7 d   1      28.996   7.058  55.567  0.00  0.00     0.279 HD
ATOM      8  H   2M7 d   1      29.344   6.896  57.168  0.00  0.00     0.279 HD
ATOM      9  H   2M7 d   1      29.026   4.664  57.227  0.00  0.00     0.087 H 
ATOM     10  H   2M7 d   1      29.782   3.319  55.293  0.00  0.00     0.090 H 
ATOM     11  H   2M7 d   1      31.294   4.520  56.914  0.00  0.00     0.091 H 
ENDROOT
BRANCH   1  12
ATOM     12  CAF 2M7 d   1      31.605   7.096  57.027  0.00  0.00    -0.065 C 
ATOM     13  CAG 2M7 d   1      32.179   7.641  57.817  0.00  0.00    -0.065 C 
BRANCH  13  14
ATOM     14  CAH 2M7 d   1      32.838   8.378  58.908  0.00  0.00     0.017 A 
ATOM     15  CAI 2M7 d   1      34.061   9.004  58.633  0.00  0.00    -0.065 A 
ATOM     16  CAJ 2M7 d   1      34.761   9.700  59.611  0.00  0.00    -0.082 A 
ATOM     17  H   2M7 d   1      34.472   8.944  57.632  0.00  0.00     0.085 H 
ATOM     18  CAK 2M7 d   1      34.207   9.746  60.893  0.00  0.00    -0.083 A 
ATOM     19  H   2M7 d   1      35.702  10.189  59.388  0.00  0.00     0.083 H 
ATOM     20  CAL 2M7 d   1      32.982   9.116  61.193  0.00  0.00    -0.082 A 
ATOM     21  H   2M7 d   1      34.733  10.280  61.677  0.00  0.00     0.083 H 
ATOM     22  CAM 2M7 d   1      32.291   8.417  60.195  0.00  0.00    -0.065 A 
ATOM     23  H   2M7 d   1      32.575   9.172  62.196  0.00  0.00     0.083 H 
ATOM     24  H   2M7 d   1      31.354   7.918  60.415  0.00  0.00     0.085 H 
ENDBRANCH  13  14
ENDBRANCH   1  12
BRANCH   5  25
ATOM     25  OAP 2M7 d   1      32.310   4.489  55.104  0.00  0.00    -0.390 OA
ATOM     26  H   2M7 d   1      32.336   3.540  55.064  0.00  0.00     0.210 HD
ENDBRANCH   5  25
BRANCH   3  27
ATOM     27  CAN 2M7 d   1      27.518   5.041  55.786  0.00  0.00    -0.047 C 
ATOM     28  H   2M7 d   1      27.187   3.992  55.785  0.00  0.00     0.030 H 
ATOM     29  H   2M7 d   1      27.425   5.456  54.772  0.00  0.00     0.030 H 
ATOM     30  H   2M7 d   1      26.892   5.622  56.479  0.00  0.00     0.030 H 
ENDBRANCH   3  27
BRANCH   4  31
ATOM     31  OAO 2M7 d   1      29.634   4.947  53.952  0.00  0.00    -0.391 OA
ATOM     32  H   2M7 d   1      30.211   4.517  53.332  0.00  0.00     0.210 HD
ENDBRANCH   4  31
TORSDOF 5
