REMARK  5 active torsions:
REMARK  status: ('A' for Active; 'I' for Inactive)
REMARK    1  A    between atoms: CAN_6  and  NAK_7 
REMARK    2  A    between atoms: CAF_11  and  CAD_12 
REMARK    3  A    between atoms: CAA_14  and  CAG_15 
REMARK    4  A    between atoms: CAB_16  and  OAH_17 
REMARK    5  A    between atoms: CAC_18  and  OAI_19 
ROOT
ATOM      1  CAD 2OX d   1      30.516   6.150  55.788  0.00  0.00     0.173 C 
ATOM      2  NAE 2OX d   1      29.064   6.312  56.015  0.00  0.00    -0.056 N 
ATOM      3  CAA 2OX d   1      28.492   4.944  56.029  0.00  0.00     0.126 C 
ATOM      4  CAB 2OX d   1      29.418   4.196  55.058  0.00  0.00     0.089 C 
ATOM      5  CAC 2OX d   1      30.718   4.621  55.713  0.00  0.00     0.095 C 
ATOM      6  H   2OX d   1      30.741   6.574  54.798  0.00  0.00     0.098 H 
ATOM      7  H   2OX d   1      28.653   6.855  55.272  0.00  0.00     0.278 HD
ATOM      8  H   2OX d   1      28.897   6.769  56.898  0.00  0.00     0.278 HD
ATOM      9  H   2OX d   1      28.556   4.504  57.035  0.00  0.00     0.087 H 
ATOM     10  H   2OX d   1      29.291   3.103  55.066  0.00  0.00     0.090 H 
ATOM     11  H   2OX d   1      30.787   4.208  56.730  0.00  0.00     0.090 H 
ENDROOT
BRANCH   1  12
ATOM     12  CAF 2OX d   1      31.513   6.873  56.797  0.00  0.00     0.109 A 
ATOM     13  CAJ 2OX d   1      31.489   8.131  57.247  0.00  0.00     0.034 A 
ATOM     14  NAK 2OX d   1      32.563   8.264  58.048  0.00  0.00    -0.225 N 
ATOM     15  H   2OX d   1      30.749   8.895  57.013  0.00  0.00     0.118 H 
ATOM     16  NAL 2OX d   1      33.174   7.149  58.000  0.00  0.00    -0.061 NA
ATOM     17  NAM 2OX d   1      32.600   6.306  57.282  0.00  0.00    -0.133 NA
BRANCH  14  18
ATOM     18  CAN 2OX d   1      33.029   9.351  58.727  0.00  0.00     0.059 A 
ATOM     19  CAO 2OX d   1      34.420   9.479  58.959  0.00  0.00    -0.055 A 
ATOM     20  CAP 2OX d   1      34.952  10.596  59.606  0.00  0.00    -0.081 A 
ATOM     21  H   2OX d   1      35.087   8.692  58.627  0.00  0.00     0.087 H 
ATOM     22  CAQ 2OX d   1      34.101  11.624  60.028  0.00  0.00    -0.083 A 
ATOM     23  H   2OX d   1      36.020  10.667  59.781  0.00  0.00     0.083 H 
ATOM     24  CAR 2OX d   1      32.723  11.530  59.802  0.00  0.00    -0.081 A 
ATOM     25  H   2OX d   1      34.510  12.493  60.530  0.00  0.00     0.083 H 
ATOM     26  CAS 2OX d   1      32.193  10.404  59.150  0.00  0.00    -0.055 A 
ATOM     27  H   2OX d   1      32.065  12.326  60.130  0.00  0.00     0.083 H 
ATOM     28  H   2OX d   1      31.126  10.344  58.970  0.00  0.00     0.087 H 
ENDBRANCH  14  18
ENDBRANCH   1  12
BRANCH   5  29
ATOM     29  OAI 2OX d   1      31.913   4.151  54.962  0.00  0.00    -0.390 OA
ATOM     30  H   2OX d   1      31.904   3.202  54.916  0.00  0.00     0.210 HD
ENDBRANCH   5  29
BRANCH   3  31
ATOM     31  CAG 2OX d   1      27.034   4.947  55.593  0.00  0.00    -0.047 C 
ATOM     32  H   2OX d   1      26.643   3.919  55.615  0.00  0.00     0.030 H 
ATOM     33  H   2OX d   1      26.958   5.347  54.571  0.00  0.00     0.030 H 
ATOM     34  H   2OX d   1      26.448   5.577  56.278  0.00  0.00     0.030 H 
ENDBRANCH   3  31
BRANCH   4  35
ATOM     35  OAH 2OX d   1      29.144   4.736  53.679  0.00  0.00    -0.391 OA
ATOM     36  H   2OX d   1      29.702   4.294  53.050  0.00  0.00     0.210 HD
ENDBRANCH   4  35
TORSDOF 5
