REMARK  8 active torsions:
REMARK  status: ('A' for Active; 'I' for Inactive)
REMARK    1  A    between atoms: N03_14  and  C1_1 
REMARK    2  A    between atoms: C2_2  and  O2_3 
REMARK    3  A    between atoms: C3_4  and  O3_5 
REMARK    4  A    between atoms: C4_6  and  O4_7 
REMARK    5  A    between atoms: C5_8  and  C6_10 
REMARK    6  A    between atoms: C6_10  and  O6_11 
REMARK    7  A    between atoms: C01_12  and  C03_17 
REMARK    8  A    between atoms: C03_17  and  O01_18 
ROOT
ATOM      1  C1  M3N d   1     -16.344 -14.649 -32.056  0.00  0.00     0.149 C 
ATOM      2  C2  M3N d   1     -14.874 -14.896 -31.790  0.00  0.00     0.106 C 
ATOM      3  C3  M3N d   1     -14.021 -14.481 -32.954  0.00  0.00     0.091 C 
ATOM      4  C4  M3N d   1     -14.539 -15.028 -34.269  0.00  0.00     0.089 C 
ATOM      5  C5  M3N d   1     -15.995 -14.660 -34.468  0.00  0.00     0.088 C 
ATOM      6  O5  M3N d   1     -16.772 -15.020 -33.375  0.00  0.00    -0.352 OA
ATOM      7  H   M3N d   1     -16.843 -15.370 -31.392  0.00  0.00     0.124 H 
ATOM      8  H   M3N d   1     -14.571 -14.314 -30.907  0.00  0.00     0.093 H 
ATOM      9  H   M3N d   1     -14.034 -13.383 -33.016  0.00  0.00     0.091 H 
ATOM     10  H   M3N d   1     -14.421 -16.122 -34.287  0.00  0.00     0.091 H 
ATOM     11  H   M3N d   1     -16.081 -13.578 -34.646  0.00  0.00     0.090 H 
ENDROOT
BRANCH   1  12
ATOM     12  N03 M3N d   1     -16.900 -13.380 -31.662  0.00  0.00    -0.252 N 
ATOM     13  C02 M3N d   1     -17.607 -12.514 -32.427  0.00  0.00     0.025 A 
ATOM     14  C01 M3N d   1     -18.012 -11.450 -31.630  0.00  0.00     0.092 A 
ATOM     15  H   M3N d   1     -17.822 -12.632 -33.488  0.00  0.00     0.117 H 
ATOM     16  N05 M3N d   1     -17.586 -11.685 -30.391  0.00  0.00    -0.161 NA
ATOM     17  N04 M3N d   1     -16.911 -12.881 -30.397  0.00  0.00     0.007 NA
BRANCH  14  18
ATOM     18  C03 M3N d   1     -18.830 -10.236 -32.092  0.00  0.00     0.059 C 
ATOM     19  H   M3N d   1     -18.175  -9.476 -32.542  0.00  0.00     0.083 H 
ATOM     20  H   M3N d   1     -19.378  -9.794 -31.247  0.00  0.00     0.083 H 
BRANCH  18  21
ATOM     21  O01 M3N d   1     -19.734 -10.755 -33.059  0.00  0.00    -0.395 OA
ATOM     22  H   M3N d   1     -20.283 -11.417 -32.655  0.00  0.00     0.209 HD
ENDBRANCH  18  21
ENDBRANCH  14  18
ENDBRANCH   1  12
BRANCH   2  23
ATOM     23  O2  M3N d   1     -14.684 -16.273 -31.528  0.00  0.00    -0.388 OA
ATOM     24  H   M3N d   1     -15.196 -16.523 -30.768  0.00  0.00     0.210 HD
ENDBRANCH   2  23
BRANCH   3  25
ATOM     25  O3  M3N d   1     -12.701 -14.899 -32.731  0.00  0.00    -0.390 OA
ATOM     26  H   M3N d   1     -12.373 -14.497 -31.935  0.00  0.00     0.210 HD
ENDBRANCH   3  25
BRANCH   5  27
ATOM     27  C6  M3N d   1     -16.528 -15.457 -35.688  0.00  0.00     0.043 C 
ATOM     28  H   M3N d   1     -15.829 -15.358 -36.532  0.00  0.00     0.078 H 
ATOM     29  H   M3N d   1     -17.515 -15.072 -35.982  0.00  0.00     0.078 H 
BRANCH  27  30
ATOM     30  O6  M3N d   1     -16.639 -16.849 -35.303  0.00  0.00    -0.398 OA
ATOM     31  H   M3N d   1     -15.784 -17.175 -35.047  0.00  0.00     0.209 HD
ENDBRANCH  27  30
ENDBRANCH   5  27
BRANCH   4  32
ATOM     32  O4  M3N d   1     -13.810 -14.433 -35.333  0.00  0.00    -0.390 OA
ATOM     33  H   M3N d   1     -14.129 -14.771 -36.162  0.00  0.00     0.210 HD
ENDBRANCH   4  32
TORSDOF 8
