REMARK  11 active torsions:
REMARK  status: ('A' for Active; 'I' for Inactive)
REMARK    1  A    between atoms: C2A_2  and  O2A_7 
REMARK    2  A    between atoms: C3A_3  and  O3A_8 
REMARK    3  A    between atoms: C4A_4  and  O4A_9 
REMARK    4  A    between atoms: C5A_5  and  C6A_6 
REMARK    5  A    between atoms: C6A_6  and  O6A_11 
REMARK    6  A    between atoms: O4A_9  and  C1B_12 
REMARK    7  A    between atoms: C2B_13  and  O2B_18 
REMARK    8  A    between atoms: C3B_14  and  O3B_19 
REMARK    9  A    between atoms: C4B_15  and  O4B_20 
REMARK   10  A    between atoms: C5B_16  and  C6B_17 
REMARK   11  A    between atoms: C6B_17  and  O6B_22 
ROOT
ATOM      1  C1B MAB d   1     123.290  99.636  15.203  0.00  0.00     0.159 C 
ATOM      2  C2B MAB d   1     122.498  98.441  15.673  0.00  0.00     0.110 C 
ATOM      3  C3B MAB d   1     122.867  98.069  17.086  0.00  0.00     0.092 C 
ATOM      4  C4B MAB d   1     124.355  97.887  17.266  0.00  0.00     0.090 C 
ATOM      5  C5B MAB d   1     125.079  99.140  16.753  0.00  0.00     0.089 C 
ATOM      6  O5B MAB d   1     124.743  99.386  15.363  0.00  0.00    -0.348 OA
ATOM      7  H   MAB d   1     123.003 100.513  15.802  0.00  0.00     0.133 H 
ATOM      8  H   MAB d   1     121.424  98.676  15.640  0.00  0.00     0.094 H 
ATOM      9  H   MAB d   1     122.531  98.874  17.756  0.00  0.00     0.091 H 
ATOM     10  H   MAB d   1     124.692  97.006  16.700  0.00  0.00     0.091 H 
ATOM     11  H   MAB d   1     124.719  99.989  17.353  0.00  0.00     0.090 H 
ENDROOT
BRANCH   1  12
ATOM     12  O4A MAB d   1     123.026  99.893  13.842  0.00  0.00    -0.348 OA
BRANCH  12  13
ATOM     13  C4A MAB d   1     123.491 101.231  13.476  0.00  0.00     0.096 C 
ATOM     14  C3A MAB d   1     124.634 101.074  12.478  0.00  0.00     0.093 C 
ATOM     15  C2A MAB d   1     125.053 102.411  11.946  0.00  0.00     0.125 C 
ATOM     16  H   MAB d   1     124.265 100.470  11.636  0.00  0.00     0.091 H 
ATOM     17  C1A MAB d   1     123.701 102.726  11.406  0.00  0.00     0.289 C 
ATOM     18  H   MAB d   1     125.844 102.386  11.183  0.00  0.00     0.096 H 
ATOM     19  O5A MAB d   1     122.765 103.312  12.380  0.00  0.00    -0.336 OA
ATOM     20  O1A MAB d   1     123.532 103.034  10.108  0.00  0.00    -0.188 OA
ATOM     21  C5A MAB d   1     122.317 101.996  12.886  0.00  0.00     0.090 C 
ATOM     22  H   MAB d   1     121.949 101.409  12.031  0.00  0.00     0.090 H 
ATOM     23  H   MAB d   1     123.857 101.761  14.368  0.00  0.00     0.091 H 
BRANCH  14  24
ATOM     24  O3A MAB d   1     125.757 100.394  13.046  0.00  0.00    -0.390 OA
ATOM     25  H   MAB d   1     126.443 100.318  12.393  0.00  0.00     0.210 HD
ENDBRANCH  14  24
BRANCH  15  26
ATOM     26  O2A MAB d   1     125.432 103.230  13.060  0.00  0.00    -0.387 OA
ATOM     27  H   MAB d   1     126.153 102.819  13.523  0.00  0.00     0.210 HD
ENDBRANCH  15  26
BRANCH  21  28
ATOM     28  C6A MAB d   1     121.148 102.194  13.826  0.00  0.00     0.043 C 
ATOM     29  H   MAB d   1     121.450 102.868  14.642  0.00  0.00     0.078 H 
ATOM     30  H   MAB d   1     120.851 101.221  14.245  0.00  0.00     0.078 H 
BRANCH  28  31
ATOM     31  O6A MAB d   1     120.036 102.766  13.130  0.00  0.00    -0.398 OA
ATOM     32  H   MAB d   1     120.289 103.608  12.769  0.00  0.00     0.209 HD
ENDBRANCH  28  31
ENDBRANCH  21  28
ENDBRANCH  12  13
ENDBRANCH   1  12
BRANCH   2  33
ATOM     33  O2B MAB d   1     122.788  97.346  14.740  0.00  0.00    -0.388 OA
ATOM     34  H   MAB d   1     122.546  97.609  13.860  0.00  0.00     0.210 HD
ENDBRANCH   2  33
BRANCH   3  35
ATOM     35  O3B MAB d   1     122.185  96.829  17.449  0.00  0.00    -0.390 OA
ATOM     36  H   MAB d   1     122.374  96.619  18.356  0.00  0.00     0.210 HD
ENDBRANCH   3  35
BRANCH   5  37
ATOM     37  C6B MAB d   1     126.581  99.105  16.872  0.00  0.00     0.043 C 
ATOM     38  H   MAB d   1     126.856  99.053  17.936  0.00  0.00     0.078 H 
ATOM     39  H   MAB d   1     126.998 100.022  16.430  0.00  0.00     0.078 H 
BRANCH  37  40
ATOM     40  O6B MAB d   1     127.125  97.972  16.194  0.00  0.00    -0.398 OA
ATOM     41  H   MAB d   1     126.771  97.177  16.575  0.00  0.00     0.209 HD
ENDBRANCH  37  40
ENDBRANCH   5  37
BRANCH   4  42
ATOM     42  O4B MAB d   1     124.647  97.706  18.660  0.00  0.00    -0.390 OA
ATOM     43  H   MAB d   1     125.584  97.601  18.775  0.00  0.00     0.210 HD
ENDBRANCH   4  42
TORSDOF 11
