REMARK  12 active torsions:
REMARK  status: ('A' for Active; 'I' for Inactive)
REMARK    1  A    between atoms: C1A_1  and  O1A_23 
REMARK    2  A    between atoms: C2A_2  and  O2A_7 
REMARK    3  A    between atoms: C3A_3  and  O3A_8 
REMARK    4  A    between atoms: C4A_4  and  O4A_9 
REMARK    5  A    between atoms: C5A_5  and  C6A_6 
REMARK    6  A    between atoms: C6A_6  and  O6A_11 
REMARK    7  A    between atoms: O4A_9  and  C1B_12 
REMARK    8  A    between atoms: C2B_13  and  O2B_18 
REMARK    9  A    between atoms: C3B_14  and  O3B_19 
REMARK   10  A    between atoms: C4B_15  and  O4B_20 
REMARK   11  A    between atoms: C5B_16  and  C6B_17 
REMARK   12  A    between atoms: C6B_17  and  O6B_22 
ROOT
ATOM      1  O4A MAB d   1     -37.437 -55.424  14.784  0.00  0.00    -0.348 OA
ENDROOT
BRANCH   1   2
ATOM      2  C4A MAB d   1     -36.772 -56.414  15.625  0.00  0.00     0.096 C 
ATOM      3  C3A MAB d   1     -35.336 -56.670  15.218  0.00  0.00     0.092 C 
ATOM      4  C2A MAB d   1     -34.641 -57.579  16.201  0.00  0.00     0.110 C 
ATOM      5  H   MAB d   1     -34.812 -55.703  15.198  0.00  0.00     0.091 H 
ATOM      6  C1A MAB d   1     -34.850 -57.157  17.636  0.00  0.00     0.156 C 
ATOM      7  H   MAB d   1     -33.563 -57.595  15.981  0.00  0.00     0.094 H 
ATOM      8  O5A MAB d   1     -36.293 -56.954  17.902  0.00  0.00    -0.349 OA
ATOM      9  H   MAB d   1     -34.309 -56.215  17.807  0.00  0.00     0.133 H 
ATOM     10  C5A MAB d   1     -36.769 -55.878  17.027  0.00  0.00     0.089 C 
ATOM     11  H   MAB d   1     -36.068 -55.032  17.076  0.00  0.00     0.090 H 
ATOM     12  H   MAB d   1     -37.332 -57.360  15.581  0.00  0.00     0.091 H 
BRANCH   3  13
ATOM     13  O3A MAB d   1     -35.240 -57.270  13.915  0.00  0.00    -0.390 OA
ATOM     14  H   MAB d   1     -35.631 -56.691  13.271  0.00  0.00     0.210 HD
ENDBRANCH   3  13
BRANCH   4  15
ATOM     15  O2A MAB d   1     -35.197 -58.886  16.048  0.00  0.00    -0.388 OA
ATOM     16  H   MAB d   1     -34.776 -59.481  16.657  0.00  0.00     0.210 HD
ENDBRANCH   4  15
BRANCH   6  17
ATOM     17  O1A MAB d   1     -34.397 -58.103  18.523  0.00  0.00    -0.369 OA
ATOM     18  H   MAB d   1     -34.877 -58.913  18.393  0.00  0.00     0.212 HD
ENDBRANCH   6  17
BRANCH  10  19
ATOM     19  C6A MAB d   1     -38.122 -55.393  17.499  0.00  0.00     0.043 C 
ATOM     20  H   MAB d   1     -38.479 -54.592  16.834  0.00  0.00     0.078 H 
ATOM     21  H   MAB d   1     -38.037 -55.007  18.526  0.00  0.00     0.078 H 
BRANCH  19  22
ATOM     22  O6A MAB d   1     -39.037 -56.473  17.473  0.00  0.00    -0.398 OA
ATOM     23  H   MAB d   1     -38.727 -57.163  18.047  0.00  0.00     0.209 HD
ENDBRANCH  19  22
ENDBRANCH  10  19
ENDBRANCH   1   2
BRANCH   1  24
ATOM     24  C1B MAB d   1     -38.338 -56.028  13.893  0.00  0.00     0.159 C 
ATOM     25  C2B MAB d   1     -39.269 -54.983  13.318  0.00  0.00     0.110 C 
ATOM     26  C3B MAB d   1     -40.095 -55.541  12.210  0.00  0.00     0.092 C 
ATOM     27  H   MAB d   1     -39.927 -54.603  14.113  0.00  0.00     0.094 H 
ATOM     28  C4B MAB d   1     -39.275 -56.242  11.167  0.00  0.00     0.090 C 
ATOM     29  H   MAB d   1     -40.799 -56.270  12.637  0.00  0.00     0.091 H 
ATOM     30  C5B MAB d   1     -38.396 -57.287  11.839  0.00  0.00     0.089 C 
ATOM     31  H   MAB d   1     -38.655 -55.515  10.621  0.00  0.00     0.091 H 
ATOM     32  O5B MAB d   1     -37.536 -56.642  12.820  0.00  0.00    -0.348 OA
ATOM     33  H   MAB d   1     -39.040 -58.020  12.347  0.00  0.00     0.090 H 
ATOM     34  H   MAB d   1     -38.926 -56.798  14.413  0.00  0.00     0.133 H 
BRANCH  25  35
ATOM     35  O2B MAB d   1     -38.466 -53.895  12.768  0.00  0.00    -0.388 OA
ATOM     36  H   MAB d   1     -39.041 -53.226  12.414  0.00  0.00     0.210 HD
ENDBRANCH  25  35
BRANCH  26  37
ATOM     37  O3B MAB d   1     -40.858 -54.448  11.597  0.00  0.00    -0.390 OA
ATOM     38  H   MAB d   1     -41.435 -54.801  10.930  0.00  0.00     0.210 HD
ENDBRANCH  26  37
BRANCH  28  39
ATOM     39  O4B MAB d   1     -40.151 -56.918  10.271  0.00  0.00    -0.390 OA
ATOM     40  H   MAB d   1     -39.639 -57.385   9.621  0.00  0.00     0.210 HD
ENDBRANCH  28  39
BRANCH  30  41
ATOM     41  C6B MAB d   1     -37.542 -58.002  10.831  0.00  0.00     0.043 C 
ATOM     42  H   MAB d   1     -38.185 -58.539  10.118  0.00  0.00     0.078 H 
ATOM     43  H   MAB d   1     -36.887 -58.719  11.347  0.00  0.00     0.078 H 
BRANCH  41  44
ATOM     44  O6B MAB d   1     -36.744 -57.044  10.128  0.00  0.00    -0.398 OA
ATOM     45  H   MAB d   1     -36.202 -57.492   9.489  0.00  0.00     0.209 HD
ENDBRANCH  41  44
ENDBRANCH  30  41
ENDBRANCH   1  24
TORSDOF 12
