REMARK  29 active torsions:
REMARK  status: ('A' for Active; 'I' for Inactive)
REMARK    1  A    between atoms: N_1  and  CA_2 
REMARK    2  A    between atoms: CA_2  and  C_3 
REMARK    3  A    between atoms: CA_2  and  CB_5 
REMARK       I    between atoms: C_3  and  N_12 
REMARK    4  A    between atoms: CB_5  and  CG_6 
REMARK    5  A    between atoms: N_12  and  CA_13 
REMARK    6  A    between atoms: CA_13  and  C_14 
REMARK    7  A    between atoms: CA_13  and  CB_16 
REMARK       I    between atoms: C_14  and  N_17 
REMARK    8  A    between atoms: CA_18  and  C_19 
REMARK       I    between atoms: C_19  and  N_24 
REMARK    9  A    between atoms: N_24  and  CA_25 
REMARK   10  A    between atoms: CA_25  and  C_26 
REMARK       I    between atoms: C_26  and  N_28 
REMARK   11  A    between atoms: N_28  and  CA_29 
REMARK   12  A    between atoms: CA_29  and  C_30 
REMARK   13  A    between atoms: CA_29  and  CB_32 
REMARK       I    between atoms: C_30  and  N_36 
REMARK   14  A    between atoms: CB_32  and  CG_33 
REMARK       I    between atoms: CG_33  and  ND2_35 
REMARK   15  A    between atoms: N_36  and  CA_37 
REMARK   16  A    between atoms: CA_37  and  C_38 
REMARK   17  A    between atoms: CA_37  and  CB_40 
REMARK       I    between atoms: C_38  and  N_48 
REMARK   18  A    between atoms: CB_40  and  CG_41 
REMARK   19  A    between atoms: CZ_46  and  OH_47 
REMARK   20  A    between atoms: CA_49  and  C_50 
REMARK       I    between atoms: C_50  and  N_55 
REMARK   21  A    between atoms: N_55  and  CA_56 
REMARK   22  A    between atoms: CA_56  and  C_57 
REMARK   23  A    between atoms: CA_56  and  CB_59 
REMARK       I    between atoms: C_57  and  N_60 
REMARK   24  A    between atoms: N_60  and  CA_61 
REMARK   25  A    between atoms: CA_61  and  C_62 
REMARK   26  A    between atoms: CA_61  and  CB_64 
REMARK   27  A    between atoms: CB_64  and  CG_65 
REMARK   28  A    between atoms: CG_65  and  CD1_66 
REMARK   29  A    between atoms: CG_65  and  CD2_67 
ROOT
ATOM      1  C   ASN d   1      60.228  25.642  -5.730  0.00  0.00     0.241 C 
ATOM      2  O   ASN d   1      59.977  24.491  -6.090  0.00  0.00    -0.271 OA
ATOM      3  N   TYR d   1      59.532  26.703  -6.127  0.00  0.00    -0.346 N 
ATOM      4  H33 TYR d   1      59.622  27.558  -5.617  0.00  0.00     0.163 HD
ENDROOT
BRANCH   1   5
ATOM      5  CA  ASN d   1      61.360  25.922  -4.748  0.00  0.00     0.097 C 
ATOM      6  H28 ASN d   1      61.368  26.999  -4.524  0.00  0.00     0.088 H 
BRANCH   5   7
ATOM      7  N   ASN d   1      61.162  25.197  -3.502  0.00  0.00    -0.346 N 
ATOM      8  C   GLY d   1      61.562  25.695  -2.338  0.00  0.00     0.236 C 
ATOM      9  O   GLY d   1      62.143  26.774  -2.236  0.00  0.00    -0.272 OA
ATOM     10  H27 ASN d   1      60.714  24.303  -3.523  0.00  0.00     0.163 HD
BRANCH   8  11
ATOM     11  CA  GLY d   1      61.272  24.873  -1.103  0.00  0.00     0.069 C 
ATOM     12  H25 GLY d   1      62.232  24.594  -0.645  0.00  0.00     0.078 H 
ATOM     13  H26 GLY d   1      60.700  25.499  -0.402  0.00  0.00     0.078 H 
BRANCH  11  14
ATOM     14  N   GLY d   1      60.509  23.646  -1.345  0.00  0.00    -0.351 N 
ATOM     15  C   PRO d   1      59.187  23.587  -1.209  0.00  0.00     0.241 C 
ATOM     16  O   PRO d   1      58.489  24.544  -0.859  0.00  0.00    -0.271 OA
ATOM     17  H24 GLY d   1      61.001  22.821  -1.623  0.00  0.00     0.163 HD
BRANCH  15  18
ATOM     18  CA  PRO d   1      58.531  22.237  -1.488  0.00  0.00     0.091 C 
ATOM     19  N   PRO d   1      57.575  21.911  -0.431  0.00  0.00    -0.337 N 
ATOM     20  C   ALA d   1      57.990  21.821   0.843  0.00  0.00     0.243 C 
ATOM     21  CD  PRO d   1      56.215  21.698  -0.955  0.00  0.00    -0.001 C 
ATOM     22  O   ALA d   1      59.179  21.792   1.152  0.00  0.00    -0.271 OA
ATOM     23  CG  PRO d   1      56.428  21.558  -2.428  0.00  0.00    -0.048 C 
ATOM     24  H22 PRO d   1      55.568  22.559  -0.731  0.00  0.00     0.064 H 
ATOM     25  H23 PRO d   1      55.770  20.785  -0.533  0.00  0.00     0.064 H 
ATOM     26  CB  PRO d   1      57.663  22.327  -2.745  0.00  0.00    -0.036 C 
ATOM     27  H20 PRO d   1      56.559  20.499  -2.695  0.00  0.00     0.035 H 
ATOM     28  H21 PRO d   1      55.570  21.971  -2.978  0.00  0.00     0.035 H 
ATOM     29  H18 PRO d   1      58.184  21.881  -3.605  0.00  0.00     0.036 H 
ATOM     30  H19 PRO d   1      57.417  23.375  -2.969  0.00  0.00     0.036 H 
ATOM     31  H17 PRO d   1      59.300  21.457  -1.587  0.00  0.00     0.087 H 
BRANCH  20  32
ATOM     32  CA  ALA d   1      56.912  21.742   1.915  0.00  0.00     0.086 C 
ATOM     33  H13 ALA d   1      56.088  21.125   1.528  0.00  0.00     0.086 H 
BRANCH  32  34
ATOM     34  N   ALA d   1      57.400  21.130   3.142  0.00  0.00    -0.346 N 
ATOM     35  C   PHE d   1      57.692  19.837   3.222  0.00  0.00     0.249 C 
ATOM     36  O   PHE d   1      57.735  19.088   2.242  0.00  0.00    -0.271 OA
ATOM     37  H12 ALA d   1      57.520  21.703   3.953  0.00  0.00     0.163 HD
BRANCH  35  38
ATOM     38  CA  PHE d   1      57.961  19.312   4.629  0.00  0.00     0.179 C 
ATOM     39  H4  PHE d   1      58.117  20.167   5.303  0.00  0.00     0.099 H 
BRANCH  38  40
ATOM     40  N   PHE d   1      56.766  18.539   5.082  0.00  0.00    -0.066 N 
ATOM     41  H1  PHE d   1      56.928  18.185   6.012  0.00  0.00     0.275 HD
ATOM     42  H2  PHE d   1      56.605  17.769   4.452  0.00  0.00     0.275 HD
ATOM     43  H3  PHE d   1      55.958  19.142   5.088  0.00  0.00     0.275 HD
ENDBRANCH  38  40
BRANCH  38  44
ATOM     44  CB  PHE d   1      59.202  18.422   4.676  0.00  0.00    -0.006 C 
ATOM     45  H5  PHE d   1      59.138  17.702   3.847  0.00  0.00     0.043 H 
ATOM     46  H6  PHE d   1      59.199  17.880   5.633  0.00  0.00     0.043 H 
BRANCH  44  47
ATOM     47  CG  PHE d   1      60.513  19.158   4.558  0.00  0.00    -0.056 A 
ATOM     48  CD1 PHE d   1      61.167  19.633   5.691  0.00  0.00    -0.077 A 
ATOM     49  CE1 PHE d   1      62.394  20.280   5.592  0.00  0.00    -0.082 A 
ATOM     50  H7  PHE d   1      60.713  19.497   6.666  0.00  0.00     0.084 H 
ATOM     51  CZ  PHE d   1      62.988  20.449   4.354  0.00  0.00    -0.083 A 
ATOM     52  H9  PHE d   1      62.885  20.652   6.484  0.00  0.00     0.083 H 
ATOM     53  CE2 PHE d   1      62.359  19.968   3.216  0.00  0.00    -0.082 A 
ATOM     54  H11 PHE d   1      63.943  20.956   4.274  0.00  0.00     0.083 H 
ATOM     55  CD2 PHE d   1      61.130  19.321   3.321  0.00  0.00    -0.077 A 
ATOM     56  H10 PHE d   1      62.824  20.095   2.245  0.00  0.00     0.083 H 
ATOM     57  H8  PHE d   1      60.648  18.940   2.428  0.00  0.00     0.084 H 
ENDBRANCH  44  47
ENDBRANCH  38  44
ENDBRANCH  35  38
ENDBRANCH  32  34
BRANCH  32  58
ATOM     58  CB  ALA d   1      56.378  23.136   2.211  0.00  0.00    -0.049 C 
ATOM     59  H14 ALA d   1      56.011  23.593   1.280  0.00  0.00     0.030 H 
ATOM     60  H15 ALA d   1      57.184  23.756   2.631  0.00  0.00     0.030 H 
ATOM     61  H16 ALA d   1      55.553  23.067   2.936  0.00  0.00     0.030 H 
ENDBRANCH  32  58
ENDBRANCH  20  32
ENDBRANCH  15  18
ENDBRANCH  11  14
ENDBRANCH   8  11
ENDBRANCH   5   7
BRANCH   5  62
ATOM     62  CB  ASN d   1      62.704  25.546  -5.384  0.00  0.00     0.036 C 
ATOM     63  H29 ASN d   1      62.729  24.457  -5.536  0.00  0.00     0.051 H 
ATOM     64  H30 ASN d   1      63.512  25.839  -4.698  0.00  0.00     0.051 H 
BRANCH  62  65
ATOM     65  CG  ASN d   1      62.933  26.230  -6.726  0.00  0.00     0.217 C 
ATOM     66  OD1 ASN d   1      62.354  27.277  -7.013  0.00  0.00    -0.274 OA
ATOM     67  ND2 ASN d   1      63.781  25.636  -7.557  0.00  0.00    -0.370 N 
ATOM     68  H31 ASN d   1      63.970  26.040  -8.452  0.00  0.00     0.159 HD
ATOM     69  H32 ASN d   1      64.231  24.784  -7.288  0.00  0.00     0.159 HD
ENDBRANCH  62  65
ENDBRANCH   5  62
ENDBRANCH   1   5
BRANCH   3  70
ATOM     70  CA  TYR d   1      58.646  26.663  -7.275  0.00  0.00     0.093 C 
ATOM     71  H34 TYR d   1      58.532  25.627  -7.626  0.00  0.00     0.088 H 
BRANCH  70  72
ATOM     72  C   TYR d   1      59.306  27.516  -8.348  0.00  0.00     0.243 C 
ATOM     73  O   TYR d   1      59.281  28.742  -8.258  0.00  0.00    -0.271 OA
ATOM     74  N   PRO d   1      59.924  26.875  -9.358  0.00  0.00    -0.337 N 
ATOM     75  CA  PRO d   1      60.585  27.669 -10.399  0.00  0.00     0.091 C 
ATOM     76  CD  PRO d   1      60.051  25.426  -9.602  0.00  0.00    -0.001 C 
ATOM     77  CB  PRO d   1      61.086  26.614 -11.397  0.00  0.00    -0.036 C 
ATOM     78  H42 PRO d   1      61.428  28.234  -9.974  0.00  0.00     0.087 H 
ATOM     79  CG  PRO d   1      60.354  25.356 -11.063  0.00  0.00    -0.048 C 
ATOM     80  H43 PRO d   1      62.170  26.467 -11.286  0.00  0.00     0.036 H 
ATOM     81  H44 PRO d   1      60.862  26.925 -12.428  0.00  0.00     0.036 H 
ATOM     82  H45 PRO d   1      60.982  24.480 -11.281  0.00  0.00     0.035 H 
ATOM     83  H46 PRO d   1      59.422  25.292 -11.643  0.00  0.00     0.035 H 
ATOM     84  H47 PRO d   1      59.113  24.902  -9.367  0.00  0.00     0.064 H 
ATOM     85  H48 PRO d   1      60.870  24.995  -9.007  0.00  0.00     0.064 H 
BRANCH  75  86
ATOM     86  C   PRO d   1      59.625  28.641 -11.074  0.00  0.00     0.241 C 
ATOM     87  O   PRO d   1      58.421  28.402 -11.099  0.00  0.00    -0.271 OA
ATOM     88  N   ALA d   1      60.165  29.726 -11.614  0.00  0.00    -0.346 N 
ATOM     89  H49 ALA d   1      61.160  29.823 -11.614  0.00  0.00     0.163 HD
BRANCH  88  90
ATOM     90  CA  ALA d   1      59.353  30.779 -12.207  0.00  0.00     0.086 C 
ATOM     91  H50 ALA d   1      58.571  31.059 -11.486  0.00  0.00     0.086 H 
BRANCH  90  92
ATOM     92  C   ALA d   1      58.677  30.303 -13.485  0.00  0.00     0.240 C 
ATOM     93  O   ALA d   1      59.249  29.524 -14.245  0.00  0.00    -0.271 OA
ATOM     94  N   LEU d   1      57.459  30.786 -13.716  0.00  0.00    -0.345 N 
ATOM     95  H54 LEU d   1      57.043  31.398 -13.043  0.00  0.00     0.163 HD
BRANCH  94  96
ATOM     96  CA  LEU d   1      56.713  30.447 -14.926  0.00  0.00     0.096 C 
ATOM     97  H55 LEU d   1      56.776  29.359 -15.075  0.00  0.00     0.089 H 
BRANCH  96  98
ATOM     98  C   LEU d   1      57.307  31.139 -16.148  0.00  0.00     0.196 C 
ATOM     99  O   LEU d   1      58.017  32.146 -16.036  0.00  0.00    -0.646 OA
ATOM    100  OXT LEU d   1      57.078  30.694 -17.275  0.00  0.00    -0.646 OA
ENDBRANCH  96  98
BRANCH  96 101
ATOM    101  CB  LEU d   1      55.236  30.834 -14.787  0.00  0.00    -0.034 C 
ATOM    102  H56 LEU d   1      54.724  30.523 -15.709  0.00  0.00     0.037 H 
ATOM    103  H57 LEU d   1      55.188  31.929 -14.692  0.00  0.00     0.037 H 
BRANCH 101 104
ATOM    104  CG  LEU d   1      54.464  30.234 -13.605  0.00  0.00    -0.059 C 
ATOM    105  H58 LEU d   1      54.951  30.573 -12.679  0.00  0.00     0.038 H 
BRANCH 104 106
ATOM    106  CD1 LEU d   1      53.027  30.730 -13.591  0.00  0.00    -0.073 C 
ATOM    107  H59 LEU d   1      52.495  30.287 -12.736  0.00  0.00     0.028 H 
ATOM    108  H60 LEU d   1      52.528  30.436 -14.526  0.00  0.00     0.028 H 
ATOM    109  H61 LEU d   1      53.018  31.826 -13.500  0.00  0.00     0.028 H 
ENDBRANCH 104 106
BRANCH 104 110
ATOM    110  CD2 LEU d   1      54.500  28.718 -13.622  0.00  0.00    -0.073 C 
ATOM    111  H62 LEU d   1      55.545  28.376 -13.632  0.00  0.00     0.028 H 
ATOM    112  H63 LEU d   1      53.985  28.349 -14.521  0.00  0.00     0.028 H 
ATOM    113  H64 LEU d   1      53.996  28.329 -12.725  0.00  0.00     0.028 H 
ENDBRANCH 104 110
ENDBRANCH 101 104
ENDBRANCH  96 101
ENDBRANCH  94  96
ENDBRANCH  90  92
BRANCH  90 114
ATOM    114  CB  ALA d   1      60.209  32.004 -12.492  0.00  0.00    -0.049 C 
ATOM    115  H51 ALA d   1      59.585  32.791 -12.939  0.00  0.00     0.030 H 
ATOM    116  H52 ALA d   1      61.015  31.734 -13.190  0.00  0.00     0.030 H 
ATOM    117  H53 ALA d   1      60.646  32.372 -11.552  0.00  0.00     0.030 H 
ENDBRANCH  90 114
ENDBRANCH  88  90
ENDBRANCH  75  86
ENDBRANCH  70  72
BRANCH  70 118
ATOM    118  CB  TYR d   1      57.273  27.235  -6.942  0.00  0.00    -0.014 C 
ATOM    119  H35 TYR d   1      56.678  27.262  -7.867  0.00  0.00     0.043 H 
ATOM    120  H36 TYR d   1      57.410  28.259  -6.564  0.00  0.00     0.043 H 
BRANCH 118 121
ATOM    121  CG  TYR d   1      56.503  26.452  -5.910  0.00  0.00    -0.056 A 
ATOM    122  CD1 TYR d   1      56.541  26.816  -4.572  0.00  0.00    -0.074 A 
ATOM    123  CE1 TYR d   1      55.833  26.109  -3.616  0.00  0.00    -0.051 A 
ATOM    124  H37 TYR d   1      57.136  27.670  -4.270  0.00  0.00     0.084 H 
ATOM    125  CZ  TYR d   1      55.072  25.027  -3.995  0.00  0.00     0.065 A 
ATOM    126  H39 TYR d   1      55.878  26.406  -2.574  0.00  0.00     0.087 H 
ATOM    127  CE2 TYR d   1      55.009  24.644  -5.319  0.00  0.00    -0.051 A 
ATOM    128  CD2 TYR d   1      55.723  25.357  -6.269  0.00  0.00    -0.074 A 
ATOM    129  H40 TYR d   1      54.406  23.793  -5.614  0.00  0.00     0.087 H 
ATOM    130  H38 TYR d   1      55.673  25.057  -7.309  0.00  0.00     0.084 H 
BRANCH 125 131
ATOM    131  OH  TYR d   1      54.369  24.336  -3.041  0.00  0.00    -0.361 OA
ATOM    132  H41 TYR d   1      54.523  24.729  -2.190  0.00  0.00     0.217 HD
ENDBRANCH 125 131
ENDBRANCH 118 121
ENDBRANCH  70 118
ENDBRANCH   3  70
TORSDOF 29
