REMARK  14 active torsions:
REMARK  status: ('A' for Active; 'I' for Inactive)
REMARK    1  A    between atoms: C4_1  and  O5_18 
REMARK    2  A    between atoms: C6_2  and  C7_3 
REMARK    3  A    between atoms: O5_18  and  C6_2 
REMARK    4  A    between atoms: C7_3  and  C8_4 
REMARK    5  A    between atoms: C8_4  and  S9_19 
REMARK    6  A    between atoms: S9_19  and  C10_5 
REMARK    7  A    between atoms: C14_22  and  C15_7 
REMARK    8  A    between atoms: C16_23  and  C17_8 
REMARK    9  A    between atoms: C21_10  and  C22_11 
REMARK   10  A    between atoms: C22_11  and  O23_26 
REMARK   11  A    between atoms: O23_26  and  C24_12 
REMARK   12  A    between atoms: C28_14  and  C30_29 
REMARK   13  A    between atoms: C2_16  and  C1_15 
REMARK   14  A    between atoms: C30_29  and  C31_30 
ROOT
ATOM      1  C17 2YB d   1     -51.576  -2.001  57.399  0.00  0.00    -0.024 A 
ATOM      2  C20 2YB d   1     -49.272  -2.714  56.014  0.00  0.00    -0.075 A 
ATOM      3  C21 2YB d   1     -49.155  -2.082  57.245  0.00  0.00    -0.033 A 
ATOM      4  C18 2YB d   1     -51.686  -2.629  56.152  0.00  0.00    -0.072 A 
ATOM      5  C19 2YB d   1     -50.530  -2.979  55.476  0.00  0.00    -0.082 A 
ATOM      6  C38 2YB d   1     -50.304  -1.733  57.950  0.00  0.00    -0.064 A 
ATOM      7  H   2YB d   1     -48.380  -3.003  55.469  0.00  0.00     0.084 H 
ATOM      8  H   2YB d   1     -52.660  -2.837  55.724  0.00  0.00     0.084 H 
ATOM      9  H   2YB d   1     -50.605  -3.468  54.511  0.00  0.00     0.083 H 
ATOM     10  H   2YB d   1     -50.222  -1.256  58.920  0.00  0.00     0.085 H 
ENDROOT
BRANCH   1  11
ATOM     11  C16 2YB d   1     -52.779  -1.608  58.184  0.00  0.00    -0.014 A 
ATOM     12  C2  2YB d   1     -53.153  -0.256  58.262  0.00  0.00    -0.048 A 
ATOM     13  C3  2YB d   1     -54.253   0.097  59.014  0.00  0.00    -0.044 A 
ATOM     14  C4  2YB d   1     -54.997  -0.871  59.686  0.00  0.00     0.069 A 
ATOM     15  H   2YB d   1     -54.543   1.139  59.083  0.00  0.00     0.088 H 
ATOM     16  C13 2YB d   1     -54.633  -2.207  59.599  0.00  0.00    -0.044 A 
ATOM     17  C14 2YB d   1     -53.530  -2.582  58.862  0.00  0.00    -0.048 A 
ATOM     18  H   2YB d   1     -55.219  -2.960  60.113  0.00  0.00     0.088 H 
BRANCH  12  19
ATOM     19  C1  2YB d   1     -52.391   0.844  57.556  0.00  0.00    -0.050 C 
ATOM     20  H   2YB d   1     -52.869   1.813  57.764  0.00  0.00     0.033 H 
ATOM     21  H   2YB d   1     -52.397   0.657  56.472  0.00  0.00     0.033 H 
ATOM     22  H   2YB d   1     -51.353   0.862  57.919  0.00  0.00     0.033 H 
ENDBRANCH  12  19
BRANCH  14  23
ATOM     23  O5  2YB d   1     -56.090  -0.531  60.425  0.00  0.00    -0.351 OA
BRANCH  23  24
ATOM     24  C6  2YB d   1     -56.344   0.857  60.702  0.00  0.00     0.027 C 
ATOM     25  H   2YB d   1     -55.644   1.215  61.471  0.00  0.00     0.075 H 
ATOM     26  H   2YB d   1     -56.212   1.448  59.783  0.00  0.00     0.075 H 
BRANCH  24  27
ATOM     27  C7  2YB d   1     -57.779   1.002  61.205  0.00  0.00    -0.033 C 
ATOM     28  H   2YB d   1     -58.379   0.139  60.879  0.00  0.00     0.037 H 
ATOM     29  H   2YB d   1     -58.222   1.927  60.809  0.00  0.00     0.037 H 
BRANCH  27  30
ATOM     30  C8  2YB d   1     -57.736   1.058  62.732  0.00  0.00     0.030 C 
ATOM     31  H   2YB d   1     -57.652   2.109  63.046  0.00  0.00     0.056 H 
ATOM     32  H   2YB d   1     -56.856   0.499  63.083  0.00  0.00     0.056 H 
BRANCH  30  33
ATOM     33  S9  2YB d   1     -59.229   0.337  63.485  0.00  0.00     0.140 S 
ATOM     34  O11 2YB d   1     -59.343  -1.034  63.108  0.00  0.00    -0.228 OA
ATOM     35  O12 2YB d   1     -59.177   0.665  64.873  0.00  0.00    -0.228 OA
BRANCH  33  36
ATOM     36  C10 2YB d   1     -60.581   1.275  62.705  0.00  0.00     0.015 C 
ATOM     37  H   2YB d   1     -61.546   0.917  63.092  0.00  0.00     0.048 H 
ATOM     38  H   2YB d   1     -60.547   1.130  61.615  0.00  0.00     0.048 H 
ATOM     39  H   2YB d   1     -60.467   2.344  62.937  0.00  0.00     0.048 H 
ENDBRANCH  33  36
ENDBRANCH  30  33
ENDBRANCH  27  30
ENDBRANCH  24  27
ENDBRANCH  23  24
ENDBRANCH  14  23
BRANCH  17  40
ATOM     40  C15 2YB d   1     -53.178  -4.055  58.816  0.00  0.00    -0.050 C 
ATOM     41  H   2YB d   1     -53.902  -4.624  59.418  0.00  0.00     0.033 H 
ATOM     42  H   2YB d   1     -52.167  -4.203  59.223  0.00  0.00     0.033 H 
ATOM     43  H   2YB d   1     -53.210  -4.407  57.774  0.00  0.00     0.033 H 
ENDBRANCH  17  40
ENDBRANCH   1  11
BRANCH   3  44
ATOM     44  C22 2YB d   1     -47.784  -1.791  57.818  0.00  0.00     0.050 C 
ATOM     45  H   2YB d   1     -47.831  -0.887  58.443  0.00  0.00     0.082 H 
ATOM     46  H   2YB d   1     -47.068  -1.633  56.998  0.00  0.00     0.082 H 
BRANCH  44  47
ATOM     47  O23 2YB d   1     -47.360  -2.908  58.618  0.00  0.00    -0.347 OA
BRANCH  47  48
ATOM     48  C24 2YB d   1     -46.108  -2.989  59.147  0.00  0.00     0.071 A 
ATOM     49  C25 2YB d   1     -45.308  -1.855  59.273  0.00  0.00    -0.050 A 
ATOM     50  C26 2YB d   1     -44.033  -1.985  59.809  0.00  0.00    -0.071 A 
ATOM     51  H   2YB d   1     -45.675  -0.885  58.957  0.00  0.00     0.087 H 
ATOM     52  C27 2YB d   1     -43.569  -3.214  60.219  0.00  0.00    -0.018 A 
ATOM     53  H   2YB d   1     -43.398  -1.111  59.905  0.00  0.00     0.084 H 
ATOM     54  C28 2YB d   1     -42.246  -3.612  60.817  0.00  0.00     0.004 C 
ATOM     55  C36 2YB d   1     -44.348  -4.355  60.098  0.00  0.00     0.078 A 
ATOM     56  C34 2YB d   1     -42.431  -5.117  61.153  0.00  0.00     0.034 C 
ATOM     57  H   2YB d   1     -41.991  -3.029  61.714  0.00  0.00     0.051 H 
ATOM     58  O35 2YB d   1     -43.698  -5.466  60.548  0.00  0.00    -0.350 OA
ATOM     59  H   2YB d   1     -42.463  -5.272  62.242  0.00  0.00     0.076 H 
ATOM     60  H   2YB d   1     -41.615  -5.716  60.721  0.00  0.00     0.076 H 
ATOM     61  C37 2YB d   1     -45.633  -4.231  59.564  0.00  0.00    -0.018 A 
ATOM     62  H   2YB d   1     -46.265  -5.107  59.473  0.00  0.00     0.092 H 
BRANCH  54  63
ATOM     63  C30 2YB d   1     -41.221  -3.391  59.709  0.00  0.00     0.025 C 
ATOM     64  H   2YB d   1     -41.468  -2.452  59.193  0.00  0.00     0.050 H 
ATOM     65  H   2YB d   1     -41.293  -4.229  59.000  0.00  0.00     0.050 H 
BRANCH  63  66
ATOM     66  C31 2YB d   1     -39.802  -3.304  60.195  0.00  0.00     0.173 C 
ATOM     67  O32 2YB d   1     -39.435  -3.002  61.467  0.00  0.00    -0.648 OA
ATOM     68  O33 2YB d   1     -38.974  -3.532  59.343  0.00  0.00    -0.648 OA
ENDBRANCH  63  66
ENDBRANCH  54  63
ENDBRANCH  47  48
ENDBRANCH  44  47
ENDBRANCH   3  44
TORSDOF 14
