REMARK  6 active torsions:
REMARK  status: ('A' for Active; 'I' for Inactive)
REMARK    1  A    between atoms: CAL_1  and  N_2 
REMARK    2  A    between atoms: N_2  and  CAM_3 
REMARK    3  A    between atoms: N_2  and  CA_4 
REMARK    4  A    between atoms: CA_4  and  C_5 
REMARK    5  A    between atoms: CA_4  and  CB_8 
REMARK    6  A    between atoms: CB_8  and  CG_9 
ROOT
ATOM      1  CA  AVI d   1       9.097  14.595  14.935  0.00  0.00     0.190 C 
ATOM      2  H   AVI d   1      10.110  14.481  14.521  0.00  0.00     0.102 H 
ENDROOT
BRANCH   1   3
ATOM      3  N   AVI d   1       9.015  15.901  15.591  0.00  0.00    -0.064 N 
ATOM      4  H   AVI d   1       8.086  16.069  15.943  0.00  0.00     0.280 HD
BRANCH   3   5
ATOM      5  CAL AVI d   1      10.005  15.985  16.663  0.00  0.00     0.067 C 
ATOM      6  H   AVI d   1       9.936  16.969  17.150  0.00  0.00     0.068 H 
ATOM      7  H   AVI d   1      11.013  15.854  16.242  0.00  0.00     0.068 H 
ATOM      8  H   AVI d   1       9.811  15.195  17.404  0.00  0.00     0.068 H 
ENDBRANCH   3   5
BRANCH   3   9
ATOM      9  CAM AVI d   1       9.405  16.901  14.593  0.00  0.00     0.067 C 
ATOM     10  H   AVI d   1       8.690  16.883  13.757  0.00  0.00     0.068 H 
ATOM     11  H   AVI d   1      10.413  16.671  14.218  0.00  0.00     0.068 H 
ATOM     12  H   AVI d   1       9.404  17.899  15.055  0.00  0.00     0.068 H 
ENDBRANCH   3   9
ENDBRANCH   1   3
BRANCH   1  13
ATOM     13  C   AVI d   1       8.084  14.505  13.793  0.00  0.00     0.205 C 
ATOM     14  OXT AVI d   1       6.907  14.672  14.120  0.00  0.00    -0.646 OA
ATOM     15  O   AVI d   1       8.464  14.256  12.650  0.00  0.00    -0.646 OA
ENDBRANCH   1  13
BRANCH   1  16
ATOM     16  CB  AVI d   1       8.839  13.446  15.915  0.00  0.00     0.013 C 
ATOM     17  H   AVI d   1       7.837  13.579  16.350  0.00  0.00     0.046 H 
ATOM     18  H   AVI d   1       9.595  13.494  16.713  0.00  0.00     0.046 H 
BRANCH  16  19
ATOM     19  CG  AVI d   1       8.904  12.091  15.283  0.00  0.00     0.053 A 
ATOM     20  ND1 AVI d   1       8.092  11.103  15.623  0.00  0.00    -0.247 NA
ATOM     21  CE1 AVI d   1       8.358  10.021  14.917  0.00  0.00     0.064 A 
ATOM     22  NE2 AVI d   1       9.354  10.299  14.102  0.00  0.00    -0.359 N 
ATOM     23  H   AVI d   1       7.843   9.064  14.995  0.00  0.00     0.143 H 
ATOM     24  CD2 AVI d   1       9.721  11.605  14.312  0.00  0.00     0.002 A 
ATOM     25  H   AVI d   1       9.782   9.651  13.426  0.00  0.00     0.166 HD
ATOM     26  H   AVI d   1      10.514  12.147  13.799  0.00  0.00     0.114 H 
ENDBRANCH  16  19
ENDBRANCH   1  16
TORSDOF 6
