REMARK  10 active torsions:
REMARK  status: ('A' for Active; 'I' for Inactive)
REMARK    1  A    between atoms: N4_3  and  C16_21 
REMARK    2  A    between atoms: C1_33  and  N6_5 
REMARK       I    between atoms: C9_7  and  N3_18 
REMARK    3  A    between atoms: C8_24  and  C9_7 
REMARK    4  A    between atoms: N3_18  and  C10_8 
REMARK    5  A    between atoms: C11_9  and  C13_11 
REMARK    6  A    between atoms: N_25  and  C8_24 
REMARK    7  A    between atoms: C6_28  and  C4_29 
REMARK    8  A    between atoms: C_30  and  O1_31 
REMARK    9  A    between atoms: O1_31  and  C26_32 
REMARK   10  A    between atoms: C23_35  and  C25_36 
ROOT
ATOM      1  C7  31V d   1      33.714 -34.210  -8.746  0.00  0.00     0.031 A 
ATOM      2  N   31V d   1      33.842 -33.930 -10.051  0.00  0.00    -0.252 N 
ATOM      3  N1  31V d   1      32.644 -33.689 -10.611  0.00  0.00    -0.065 NA
ATOM      4  N2  31V d   1      31.747 -33.803  -9.657  0.00  0.00    -0.130 NA
ATOM      5  C6  31V d   1      32.376 -34.119  -8.489  0.00  0.00     0.108 A 
ATOM      6  H   31V d   1      34.507 -34.457  -8.042  0.00  0.00     0.118 H 
ENDROOT
BRANCH   2   7
ATOM      7  C8  31V d   1      35.057 -33.806 -10.836  0.00  0.00     0.091 C 
ATOM      8  H   31V d   1      35.576 -34.776 -10.852  0.00  0.00     0.082 H 
ATOM      9  H   31V d   1      34.794 -33.514 -11.863  0.00  0.00     0.082 H 
BRANCH   7  10
ATOM     10  C9  31V d   1      35.982 -32.756 -10.242  0.00  0.00     0.243 C 
ATOM     11  O   31V d   1      35.734 -32.157  -9.194  0.00  0.00    -0.271 OA
ATOM     12  N3  31V d   1      37.036 -32.423 -11.038  0.00  0.00    -0.310 N 
ATOM     13  H   31V d   1      37.078 -32.864 -11.935  0.00  0.00     0.170 HD
BRANCH  12  14
ATOM     14  C10 31V d   1      38.048 -31.542 -10.734  0.00  0.00     0.134 A 
ATOM     15  N4  31V d   1      38.778 -30.921 -11.703  0.00  0.00    -0.217 N 
ATOM     16  N5  31V d   1      39.659 -30.008 -11.147  0.00  0.00    -0.169 NA
ATOM     17  C11 31V d   1      39.435 -30.093  -9.839  0.00  0.00     0.070 A 
ATOM     18  C12 31V d   1      38.438 -31.021  -9.540  0.00  0.00    -0.012 A 
ATOM     19  H   31V d   1      38.052 -31.276  -8.554  0.00  0.00     0.092 H 
BRANCH  15  20
ATOM     20  C16 31V d   1      38.718 -31.052 -13.125  0.00  0.00     0.060 A 
ATOM     21  C21 31V d   1      39.886 -30.957 -13.884  0.00  0.00    -0.055 A 
ATOM     22  C20 31V d   1      39.826 -31.120 -15.259  0.00  0.00    -0.081 A 
ATOM     23  H   31V d   1      40.835 -30.757 -13.400  0.00  0.00     0.087 H 
ATOM     24  C19 31V d   1      38.617 -31.379 -15.882  0.00  0.00    -0.083 A 
ATOM     25  H   31V d   1      40.731 -31.044 -15.850  0.00  0.00     0.083 H 
ATOM     26  C18 31V d   1      37.454 -31.466 -15.131  0.00  0.00    -0.081 A 
ATOM     27  H   31V d   1      38.579 -31.514 -16.957  0.00  0.00     0.083 H 
ATOM     28  C17 31V d   1      37.496 -31.298 -13.755  0.00  0.00    -0.055 A 
ATOM     29  H   31V d   1      36.508 -31.666 -15.622  0.00  0.00     0.083 H 
ATOM     30  H   31V d   1      36.585 -31.357 -13.171  0.00  0.00     0.087 H 
ENDBRANCH  15  20
BRANCH  17  31
ATOM     31  C13 31V d   1      40.149 -29.331  -8.779  0.00  0.00     0.022 A 
ATOM     32  C15 31V d   1      39.988 -27.841  -8.699  0.00  0.00    -0.093 A 
ATOM     33  C14 31V d   1      41.282 -28.411  -9.129  0.00  0.00    -0.093 A 
ATOM     34  H   31V d   1      39.368 -26.972  -8.482  0.00  0.00     0.078 H 
ATOM     35  H   31V d   1      42.310 -28.268  -9.459  0.00  0.00     0.078 H 
ATOM     36  H   31V d   1      40.194 -29.935  -7.861  0.00  0.00     0.062 H 
ENDBRANCH  17  31
ENDBRANCH  12  14
ENDBRANCH   7  10
ENDBRANCH   2   7
BRANCH   5  37
ATOM     37  C4  31V d   1      31.664 -34.256  -7.210  0.00  0.00    -0.001 A 
ATOM     38  C3  31V d   1      32.182 -35.071  -6.206  0.00  0.00    -0.068 A 
ATOM     39  C2  31V d   1      31.548 -35.182  -4.984  0.00  0.00    -0.053 A 
ATOM     40  H   31V d   1      33.096 -35.626  -6.386  0.00  0.00     0.085 H 
ATOM     41  C1  31V d   1      30.374 -34.471  -4.761  0.00  0.00     0.073 A 
ATOM     42  H   31V d   1      31.961 -35.816  -4.208  0.00  0.00     0.087 H 
ATOM     43  C   31V d   1      29.849 -33.632  -5.759  0.00  0.00     0.096 A 
ATOM     44  C5  31V d   1      30.494 -33.534  -6.980  0.00  0.00    -0.036 A 
ATOM     45  H   31V d   1      30.089 -32.896  -7.757  0.00  0.00     0.089 H 
BRANCH  41  46
ATOM     46  N6  31V d   1      29.717 -34.609  -3.487  0.00  0.00    -0.312 N 
ATOM     47  C22 31V d   1      30.305 -34.918  -2.301  0.00  0.00     0.070 A 
ATOM     48  N7  31V d   1      29.437 -35.044  -1.331  0.00  0.00    -0.247 NA
ATOM     49  H   31V d   1      31.379 -35.046  -2.173  0.00  0.00     0.144 H 
ATOM     50  C23 31V d   1      28.198 -34.797  -1.920  0.00  0.00     0.048 A 
ATOM     51  C24 31V d   1      28.357 -34.525  -3.244  0.00  0.00     0.010 A 
ATOM     52  H   31V d   1      27.575 -34.290  -3.964  0.00  0.00     0.115 H 
BRANCH  50  53
ATOM     53  C25 31V d   1      26.940 -34.856  -1.113  0.00  0.00    -0.034 C 
ATOM     54  H   31V d   1      27.185 -35.104  -0.070  0.00  0.00     0.035 H 
ATOM     55  H   31V d   1      26.275 -35.628  -1.527  0.00  0.00     0.035 H 
ATOM     56  H   31V d   1      26.435 -33.879  -1.149  0.00  0.00     0.035 H 
ENDBRANCH  50  53
ENDBRANCH  41  46
BRANCH  43  57
ATOM     57  O1  31V d   1      28.729 -32.919  -5.424  0.00  0.00    -0.354 OA
BRANCH  57  58
ATOM     58  C26 31V d   1      28.285 -31.894  -6.319  0.00  0.00     0.010 C 
ATOM     59  H   31V d   1      27.381 -31.418  -5.911  0.00  0.00     0.066 H 
ATOM     60  H   31V d   1      28.056 -32.337  -7.299  0.00  0.00     0.066 H 
ATOM     61  H   31V d   1      29.077 -31.139  -6.434  0.00  0.00     0.066 H 
ENDBRANCH  57  58
ENDBRANCH  43  57
ENDBRANCH   5  37
TORSDOF 10
