REMARK  7 active torsions:
REMARK  status: ('A' for Active; 'I' for Inactive)
REMARK    1  A    between atoms: CAK_3  and  CBD_4 
REMARK    2  A    between atoms: NAG_17  and  CAO_18 
REMARK    3  A    between atoms: CAO_18  and  CAP_19 
REMARK       I    between atoms: CAP_19  and  N_21 
REMARK    4  A    between atoms: N_21  and  CA_22 
REMARK    5  A    between atoms: CA_22  and  C_23 
REMARK    6  A    between atoms: CA_22  and  CB_26 
REMARK    7  A    between atoms: CB_26  and  CG_27 
ROOT
ATOM      1  CAM 2VD d   1      10.933  -5.197  -8.998  0.00  0.00    -0.037 C 
ATOM      2  CAL 2VD d   1      11.465  -6.563  -8.638  0.00  0.00    -0.048 C 
ATOM      3  CAK 2VD d   1      11.983  -7.264  -9.868  0.00  0.00     0.036 C 
ATOM      4  CAJ 2VD d   1      10.842  -7.534 -10.804  0.00  0.00    -0.013 C 
ATOM      5  CAH 2VD d   1       9.929  -6.435 -10.830  0.00  0.00     0.020 A 
ATOM      6  CAI 2VD d   1       9.961  -5.355 -10.013  0.00  0.00    -0.023 A 
ATOM      7  CAE 2VD d   1       8.940  -4.534 -10.361  0.00  0.00     0.000 A 
ATOM      8  CAF 2VD d   1       8.511  -3.348  -9.865  0.00  0.00    -0.053 A 
ATOM      9  CAA 2VD d   1       7.405  -2.694 -10.421  0.00  0.00     0.011 A 
ATOM     10 BR   2VD d   1       6.720  -1.059  -9.791  0.00  0.00    -0.051 Br
ATOM     11  CAB 2VD d   1       6.750  -3.293 -11.489  0.00  0.00    -0.064 A 
ATOM     12  CAC 2VD d   1       7.215  -4.512 -11.963  0.00  0.00    -0.055 A 
ATOM     13  CAD 2VD d   1       8.290  -5.101 -11.398  0.00  0.00     0.046 A 
ATOM     14  NAG 2VD d   1       8.898  -6.254 -11.669  0.00  0.00    -0.340 N 
ATOM     15  H1  2VD d   1      11.754  -4.562  -9.364  0.00  0.00     0.040 H 
ATOM     16  H2  2VD d   1      10.475  -4.731  -8.113  0.00  0.00     0.040 H 
ATOM     17  H3  2VD d   1      10.656  -7.162  -8.193  0.00  0.00     0.034 H 
ATOM     18  H4  2VD d   1      12.283  -6.454  -7.911  0.00  0.00     0.034 H 
ATOM     19  H5  2VD d   1      12.699  -6.602 -10.377  0.00  0.00     0.057 H 
ATOM     20  H6  2VD d   1      10.309  -8.436 -10.470  0.00  0.00     0.043 H 
ATOM     21  H7  2VD d   1      11.239  -7.696 -11.817  0.00  0.00     0.043 H 
ATOM     22  H8  2VD d   1       9.031  -2.900  -9.026  0.00  0.00     0.086 H 
ATOM     23  H9  2VD d   1       5.890  -2.817 -11.945  0.00  0.00     0.085 H 
ATOM     24  H10 2VD d   1       6.711  -4.994 -12.793  0.00  0.00     0.087 H 
ENDROOT
BRANCH  14  25
ATOM     25  CAO 2VD d   1       8.502  -7.200 -12.751  0.00  0.00     0.073 C 
ATOM     26  H11 2VD d   1       9.408  -7.700 -13.123  0.00  0.00     0.079 H 
ATOM     27  H12 2VD d   1       8.041  -6.622 -13.566  0.00  0.00     0.079 H 
BRANCH  25  28
ATOM     28  CAP 2VD d   1       7.497  -8.287 -12.293  0.00  0.00     0.236 C 
ATOM     29  OAQ 2VD d   1       7.278  -9.240 -13.031  0.00  0.00    -0.272 OA
ATOM     30  N   2VD d   1       6.865  -8.157 -11.109  0.00  0.00    -0.345 N 
ATOM     31  H13 2VD d   1       7.052  -7.364 -10.529  0.00  0.00     0.163 HD
BRANCH  30  32
ATOM     32  CA  2VD d   1       5.895  -9.185 -10.664  0.00  0.00     0.100 C 
ATOM     33  H14 2VD d   1       5.883  -9.998 -11.405  0.00  0.00     0.090 H 
BRANCH  32  34
ATOM     34  C   2VD d   1       6.276  -9.777  -9.294  0.00  0.00     0.197 C 
ATOM     35  OXT 2VD d   1       7.240  -9.276  -8.676  0.00  0.00    -0.646 OA
ATOM     36  O   2VD d   1       5.571 -10.723  -8.887  0.00  0.00    -0.646 OA
ENDBRANCH  32  34
BRANCH  32  37
ATOM     37  CB  2VD d   1       4.493  -8.566 -10.578  0.00  0.00    -0.013 C 
ATOM     38  H15 2VD d   1       4.498  -7.680  -9.927  0.00  0.00     0.043 H 
ATOM     39  H16 2VD d   1       3.767  -9.298 -10.195  0.00  0.00     0.043 H 
BRANCH  37  40
ATOM     40  CG  2VD d   1       4.185  -8.207 -11.905  0.00  0.00    -0.056 A 
ATOM     41  CD1 2VD d   1       3.690  -9.178 -12.781  0.00  0.00    -0.077 A 
ATOM     42  CE1 2VD d   1       3.392  -8.851 -14.103  0.00  0.00    -0.082 A 
ATOM     43  H17 2VD d   1       3.537 -10.192 -12.430  0.00  0.00     0.084 H 
ATOM     44  CZ  2VD d   1       3.582  -7.548 -14.560  0.00  0.00    -0.083 A 
ATOM     45  H18 2VD d   1       3.012  -9.611 -14.776  0.00  0.00     0.083 H 
ATOM     46  CE2 2VD d   1       4.078  -6.578 -13.695  0.00  0.00    -0.082 A 
ATOM     47  H19 2VD d   1       3.344  -7.291 -15.586  0.00  0.00     0.083 H 
ATOM     48  CD2 2VD d   1       4.378  -6.900 -12.364  0.00  0.00    -0.077 A 
ATOM     49  H20 2VD d   1       4.234  -5.566 -14.053  0.00  0.00     0.083 H 
ATOM     50  H21 2VD d   1       4.758  -6.138 -11.693  0.00  0.00     0.084 H 
ENDBRANCH  37  40
ENDBRANCH  32  37
ENDBRANCH  30  32
ENDBRANCH  25  28
ENDBRANCH  14  25
BRANCH   3  51
ATOM     51  CBD 2VD d   1      12.733  -8.578  -9.465  0.00  0.00     0.177 C 
ATOM     52  OBF 2VD d   1      13.917  -8.436  -9.084  0.00  0.00    -0.648 OA
ATOM     53  OBE 2VD d   1      12.151  -9.693  -9.557  0.00  0.00    -0.648 OA
ENDBRANCH   3  51
TORSDOF 7
