REMARK  7 active torsions:
REMARK  status: ('A' for Active; 'I' for Inactive)
REMARK    1  A    between atoms: C1_8  and  C8'_9 
REMARK    2  A    between atoms: C8_12  and  C9_13 
REMARK    3  A    between atoms: C9_13  and  C19_14 
REMARK    4  A    between atoms: C10_15  and  C11_16 
REMARK    5  A    between atoms: C12_17  and  C13_18 
REMARK    6  A    between atoms: C13_18  and  C20_19 
REMARK    7  A    between atoms: C14_20  and  C15_21 
ROOT
ATOM      1  C2' 2VR d   1      65.600  46.089  28.964  0.00  0.00    -0.040 C 
ATOM      2  C1' 2VR d   1      66.955  45.408  29.170  0.00  0.00    -0.058 C 
ATOM      3  C18 2VR d   1      67.895  46.110  30.157  0.00  0.00    -0.040 C 
ATOM      4  C5  2VR d   1      67.170  46.642  31.399  0.00  0.00    -0.047 A 
ATOM      5  C4  2VR d   1      67.787  46.547  32.640  0.00  0.00    -0.076 A 
ATOM      6  C3  2VR d   1      67.126  46.983  33.791  0.00  0.00    -0.082 A 
ATOM      7  C2  2VR d   1      65.836  47.484  33.707  0.00  0.00    -0.076 A 
ATOM      8  C1  2VR d   1      65.207  47.599  32.465  0.00  0.00    -0.051 A 
ATOM      9  C6  2VR d   1      65.889  47.182  31.315  0.00  0.00    -0.018 A 
ATOM     10  C7  2VR d   1      65.338  47.228  29.969  0.00  0.00    -0.046 C 
ATOM     11  C8  2VR d   1      64.665  48.360  29.533  0.00  0.00    -0.070 C 
ATOM     12  H   2VR d   1      64.808  45.334  29.076  0.00  0.00     0.040 H 
ATOM     13  H   2VR d   1      65.568  46.506  27.946  0.00  0.00     0.040 H 
ATOM     14  H   2VR d   1      67.462  45.357  28.195  0.00  0.00     0.033 H 
ATOM     15  H   2VR d   1      66.771  44.389  29.541  0.00  0.00     0.033 H 
ATOM     16  H   2VR d   1      68.376  46.955  29.643  0.00  0.00     0.040 H 
ATOM     17  H   2VR d   1      68.663  45.392  30.480  0.00  0.00     0.040 H 
ATOM     18  H   2VR d   1      68.786  46.133  32.716  0.00  0.00     0.084 H 
ATOM     19  H   2VR d   1      67.623  46.929  34.753  0.00  0.00     0.083 H 
ATOM     20  H   2VR d   1      65.314  47.787  34.607  0.00  0.00     0.084 H 
ATOM     21  H   2VR d   1      64.456  49.174  30.226  0.00  0.00     0.085 H 
ENDROOT
BRANCH  11  22
ATOM     22  C9  2VR d   1      64.235  48.454  28.129  0.00  0.00    -0.061 C 
ATOM     23  C10 2VR d   1      62.920  48.223  27.746  0.00  0.00    -0.077 C 
ATOM     24  H   2VR d   1      62.680  48.303  26.687  0.00  0.00     0.084 H 
BRANCH  22  25
ATOM     25  C19 2VR d   1      65.283  48.787  27.066  0.00  0.00    -0.051 C 
ATOM     26  H   2VR d   1      64.804  48.820  26.076  0.00  0.00     0.033 H 
ATOM     27  H   2VR d   1      66.066  48.015  27.069  0.00  0.00     0.033 H 
ATOM     28  H   2VR d   1      65.733  49.766  27.288  0.00  0.00     0.033 H 
ENDBRANCH  22  25
BRANCH  23  29
ATOM     29  C11 2VR d   1      61.828  47.878  28.669  0.00  0.00    -0.082 C 
ATOM     30  C12 2VR d   1      60.748  47.127  28.222  0.00  0.00    -0.077 C 
ATOM     31  H   2VR d   1      60.731  46.784  27.189  0.00  0.00     0.084 H 
ATOM     32  H   2VR d   1      61.866  48.212  29.705  0.00  0.00     0.083 H 
BRANCH  30  33
ATOM     33  C13 2VR d   1      59.629  46.784  29.108  0.00  0.00    -0.056 C 
ATOM     34  C14 2VR d   1      58.337  47.070  28.654  0.00  0.00    -0.004 C 
ATOM     35  H   2VR d   1      58.245  47.516  27.665  0.00  0.00     0.094 H 
BRANCH  33  36
ATOM     36  C20 2VR d   1      59.887  46.136  30.467  0.00  0.00    -0.051 C 
ATOM     37  H   2VR d   1      58.928  45.958  30.976  0.00  0.00     0.033 H 
ATOM     38  H   2VR d   1      60.509  46.805  31.080  0.00  0.00     0.033 H 
ATOM     39  H   2VR d   1      60.409  45.178  30.323  0.00  0.00     0.033 H 
ENDBRANCH  33  36
BRANCH  34  40
ATOM     40  C15 2VR d   1      57.100  46.822  29.391  0.00  0.00     0.199 C 
ATOM     41  O1  2VR d   1      56.135  47.582  29.152  0.00  0.00    -0.644 OA
ATOM     42  O2  2VR d   1      57.058  45.891  30.232  0.00  0.00    -0.644 OA
ENDBRANCH  34  40
ENDBRANCH  30  33
ENDBRANCH  23  29
ENDBRANCH  11  22
BRANCH   8  43
ATOM     43  C8' 2VR d   1      63.813  48.194  32.373  0.00  0.00    -0.050 C 
ATOM     44  H   2VR d   1      63.458  48.454  33.381  0.00  0.00     0.033 H 
ATOM     45  H   2VR d   1      63.130  47.459  31.922  0.00  0.00     0.033 H 
ATOM     46  H   2VR d   1      63.841  49.100  31.749  0.00  0.00     0.033 H 
ENDBRANCH   8  43
TORSDOF 7
