REMARK  8 active torsions:
REMARK  status: ('A' for Active; 'I' for Inactive)
REMARK    1  A    between atoms: C2_7  and  C7'_8 
REMARK    2  A    between atoms: C7_11  and  C8_12 
REMARK    3  A    between atoms: C8_12  and  C9_13 
REMARK    4  A    between atoms: C9_13  and  C19_14 
REMARK    5  A    between atoms: C10_15  and  C11_16 
REMARK    6  A    between atoms: C12_17  and  C13_18 
REMARK    7  A    between atoms: C13_18  and  C20_19 
REMARK    8  A    between atoms: C14_20  and  C15_21 
ROOT
ATOM      1  C8  2VP d   1      64.015  47.902  30.189  0.00  0.00    -0.020 C 
ATOM      2  H   2VP d   1      64.197  48.953  30.458  0.00  0.00     0.046 H 
ATOM      3  H   2VP d   1      63.116  47.541  30.710  0.00  0.00     0.046 H 
ENDROOT
BRANCH   1   4
ATOM      4  C7  2VP d   1      65.074  47.185  30.718  0.00  0.00    -0.043 C 
ATOM      5  C2' 2VP d   1      65.945  46.349  29.767  0.00  0.00    -0.076 C 
ATOM      6  C1' 2VP d   1      66.769  45.292  30.509  0.00  0.00    -0.082 C 
ATOM      7  H   2VP d   1      65.973  46.491  28.693  0.00  0.00     0.084 H 
ATOM      8  C18 2VP d   1      67.435  45.821  31.781  0.00  0.00    -0.072 C 
ATOM      9  H   2VP d   1      66.870  44.269  30.166  0.00  0.00     0.083 H 
ATOM     10  C5  2VP d   1      66.470  46.603  32.661  0.00  0.00    -0.025 A 
ATOM     11  H   2VP d   1      68.478  45.657  32.028  0.00  0.00     0.084 H 
ATOM     12  C4  2VP d   1      66.726  46.667  34.018  0.00  0.00    -0.072 A 
ATOM     13  C6  2VP d   1      65.338  47.274  32.146  0.00  0.00    -0.019 A 
ATOM     14  C3  2VP d   1      65.901  47.397  34.872  0.00  0.00    -0.076 A 
ATOM     15  H   2VP d   1      67.582  46.141  34.425  0.00  0.00     0.084 H 
ATOM     16  C2  2VP d   1      64.794  48.053  34.368  0.00  0.00    -0.061 A 
ATOM     17  H   2VP d   1      66.128  47.450  35.931  0.00  0.00     0.084 H 
ATOM     18  C1  2VP d   1      64.515  47.976  32.998  0.00  0.00    -0.066 A 
ATOM     19  H   2VP d   1      63.639  48.476  32.602  0.00  0.00     0.085 H 
BRANCH  16  20
ATOM     20  C7' 2VP d   1      63.875  48.853  35.293  0.00  0.00    -0.051 C 
ATOM     21  H   2VP d   1      63.058  49.296  34.705  0.00  0.00     0.033 H 
ATOM     22  H   2VP d   1      64.451  49.653  35.780  0.00  0.00     0.033 H 
ATOM     23  H   2VP d   1      63.455  48.185  36.059  0.00  0.00     0.033 H 
ENDBRANCH  16  20
ENDBRANCH   1   4
BRANCH   1  24
ATOM     24  C9  2VP d   1      63.676  47.904  28.744  0.00  0.00    -0.080 C 
ATOM     25  C10 2VP d   1      62.421  47.560  28.295  0.00  0.00    -0.081 C 
ATOM     26  H   2VP d   1      62.234  47.573  27.222  0.00  0.00     0.083 H 
BRANCH  24  27
ATOM     27  C19 2VP d   1      64.738  48.334  27.735  0.00  0.00    -0.054 C 
ATOM     28  H   2VP d   1      64.322  48.277  26.718  0.00  0.00     0.033 H 
ATOM     29  H   2VP d   1      65.609  47.667  27.813  0.00  0.00     0.033 H 
ATOM     30  H   2VP d   1      65.048  49.368  27.947  0.00  0.00     0.033 H 
ENDBRANCH  24  27
BRANCH  25  31
ATOM     31  C11 2VP d   1      61.321  47.176  29.189  0.00  0.00    -0.082 C 
ATOM     32  C12 2VP d   1      60.129  46.686  28.655  0.00  0.00    -0.077 C 
ATOM     33  H   2VP d   1      60.031  46.578  27.576  0.00  0.00     0.084 H 
ATOM     34  H   2VP d   1      61.436  47.274  30.267  0.00  0.00     0.083 H 
BRANCH  32  35
ATOM     35  C13 2VP d   1      59.015  46.316  29.515  0.00  0.00    -0.056 C 
ATOM     36  C14 2VP d   1      57.723  46.701  29.120  0.00  0.00    -0.004 C 
ATOM     37  H   2VP d   1      57.625  47.264  28.193  0.00  0.00     0.094 H 
BRANCH  35  38
ATOM     38  C20 2VP d   1      59.257  45.512  30.794  0.00  0.00    -0.051 C 
ATOM     39  H   2VP d   1      58.298  45.334  31.302  0.00  0.00     0.033 H 
ATOM     40  H   2VP d   1      59.926  46.076  31.461  0.00  0.00     0.033 H 
ATOM     41  H   2VP d   1      59.721  44.548  30.539  0.00  0.00     0.033 H 
ENDBRANCH  35  38
BRANCH  36  42
ATOM     42  C15 2VP d   1      56.505  46.401  29.861  0.00  0.00     0.199 C 
ATOM     43  O2  2VP d   1      55.553  47.204  29.723  0.00  0.00    -0.644 OA
ATOM     44  O1  2VP d   1      56.469  45.400  30.614  0.00  0.00    -0.644 OA
ENDBRANCH  36  42
ENDBRANCH  32  35
ENDBRANCH  25  31
ENDBRANCH   1  24
TORSDOF 8
