REMARK  8 active torsions:
REMARK  status: ('A' for Active; 'I' for Inactive)
REMARK    1  A    between atoms: CA_1  and  C_2 
REMARK    2  A    between atoms: CA_1  and  CB_4 
REMARK    3  A    between atoms: CA_1  and  N_11 
REMARK    4  A    between atoms: CB_4  and  CG_5 
REMARK    5  A    between atoms: CG_5  and  CD_6 
REMARK    6  A    between atoms: CD_6  and  NE_7 
REMARK       I    between atoms: NE_7  and  CZ_8 
REMARK       I    between atoms: CZ_8  and  NH2_9 
REMARK    7  A    between atoms: CAU_12  and  CAS_17 
REMARK    8  A    between atoms: CAQ_15  and  OAM_16 
ROOT
ATOM      1  CA  OP1 d   1       3.627  18.204   2.913  0.00  0.00     0.190 C 
ATOM      2  H   OP1 d   1       4.303  17.420   2.543  0.00  0.00     0.102 H 
ENDROOT
BRANCH   1   3
ATOM      3  C   OP1 d   1       2.303  17.544   3.289  0.00  0.00     0.205 C 
ATOM      4  O   OP1 d   1       2.319  16.514   4.012  0.00  0.00    -0.646 OA
ATOM      5  OXT OP1 d   1       1.210  18.094   2.922  0.00  0.00    -0.646 OA
ENDBRANCH   1   3
BRANCH   1   6
ATOM      6  CB  OP1 d   1       4.263  18.801   4.156  0.00  0.00    -0.027 C 
ATOM      7  H   OP1 d   1       5.111  19.425   3.838  0.00  0.00     0.036 H 
ATOM      8  H   OP1 d   1       4.630  17.974   4.781  0.00  0.00     0.036 H 
BRANCH   6   9
ATOM      9  CG  OP1 d   1       3.364  19.638   4.986  0.00  0.00    -0.047 C 
ATOM     10  H   OP1 d   1       2.482  19.044   5.269  0.00  0.00     0.035 H 
ATOM     11  H   OP1 d   1       3.045  20.512   4.399  0.00  0.00     0.035 H 
BRANCH   9  12
ATOM     12  CD  OP1 d   1       4.044  20.105   6.212  0.00  0.00     0.009 C 
ATOM     13  H   OP1 d   1       5.073  20.414   5.977  0.00  0.00     0.064 H 
ATOM     14  H   OP1 d   1       4.065  19.299   6.961  0.00  0.00     0.064 H 
BRANCH  12  15
ATOM     15  NE  OP1 d   1       3.278  21.254   6.729  0.00  0.00    -0.227 N 
ATOM     16  CZ  OP1 d   1       3.679  21.885   7.952  0.00  0.00     0.665 C 
ATOM     17  NH2 OP1 d   1       2.935  22.947   8.286  0.00  0.00    -0.235 N 
ATOM     18  NH1 OP1 d   1       4.685  21.441   8.675  0.00  0.00    -0.235 N 
ATOM     19  H   OP1 d   1       3.143  23.471   9.149  0.00  0.00     0.174 HD
ATOM     20  H   OP1 d   1       2.155  23.241   7.681  0.00  0.00     0.174 HD
ATOM     21  H   OP1 d   1       5.219  20.617   8.363  0.00  0.00     0.174 HD
ATOM     22  H   OP1 d   1       4.938  21.917   9.553  0.00  0.00     0.174 HD
ATOM     23  H   OP1 d   1       2.457  21.602   6.213  0.00  0.00     0.177 HD
ENDBRANCH  12  15
ENDBRANCH   9  12
ENDBRANCH   6   9
ENDBRANCH   1   6
BRANCH   1  24
ATOM     24  N   OP1 d   1       3.444  19.165   1.820  0.00  0.00    -0.017 N 
ATOM     25  CAU OP1 d   1       3.830  20.553   1.626  0.00  0.00     0.190 C 
ATOM     26  CAM OP1 d   1       3.170  20.991   0.366  0.00  0.00    -0.024 C 
ATOM     27  H   OP1 d   1       3.506  21.171   2.476  0.00  0.00     0.102 H 
ATOM     28  CAK OP1 d   1       2.971  19.756  -0.465  0.00  0.00    -0.014 C 
ATOM     29  H   OP1 d   1       3.810  21.709  -0.168  0.00  0.00     0.037 H 
ATOM     30  H   OP1 d   1       2.200  21.459   0.589  0.00  0.00     0.037 H 
ATOM     31  CAQ OP1 d   1       2.898  18.694   0.576  0.00  0.00     0.194 C 
ATOM     32  H   OP1 d   1       3.819  19.591  -1.146  0.00  0.00     0.039 H 
ATOM     33  H   OP1 d   1       2.039  19.811  -1.046  0.00  0.00     0.039 H 
ATOM     34  H   OP1 d   1       1.829  18.777   0.820  0.00  0.00     0.129 H 
ATOM     35  H   OP1 d   1       2.555  19.433   2.211  0.00  0.00     0.285 HD
BRANCH  25  36
ATOM     36  CAS OP1 d   1       5.291  20.645   1.457  0.00  0.00     0.205 C 
ATOM     37  OAH OP1 d   1       5.999  19.606   1.241  0.00  0.00    -0.646 OA
ATOM     38  OAE OP1 d   1       5.864  21.757   1.491  0.00  0.00    -0.646 OA
ENDBRANCH  25  36
BRANCH  31  39
ATOM     39  OAM OP1 d   1       2.884  17.369   0.263  0.00  0.00    -0.369 OA
ATOM     40  H   OP1 d   1       2.380  16.896   0.915  0.00  0.00     0.212 HD
ENDBRANCH  31  39
ENDBRANCH   1  24
TORSDOF 8
