REMARK  8 active torsions:
REMARK  status: ('A' for Active; 'I' for Inactive)
REMARK    1  A    between atoms: CA_1  and  C_2 
REMARK    2  A    between atoms: CA_1  and  CB_4 
REMARK    3  A    between atoms: CA_1  and  N_11 
REMARK    4  A    between atoms: CB_4  and  CG_5 
REMARK    5  A    between atoms: CG_5  and  CD_6 
REMARK    6  A    between atoms: CD_6  and  NE_7 
REMARK       I    between atoms: NE_7  and  CZ_8 
REMARK       I    between atoms: CZ_8  and  NH2_9 
REMARK    7  A    between atoms: CAU_12  and  CAS_17 
REMARK    8  A    between atoms: CAQ_15  and  OAM_16 
ROOT
ATOM      1  CA  OP1 d   1      17.352  -5.735  -4.197  0.00  0.00     0.190 C 
ATOM      2  H   OP1 d   1      16.910  -4.768  -3.914  0.00  0.00     0.102 H 
ENDROOT
BRANCH   1   3
ATOM      3  C   OP1 d   1      16.226  -6.679  -4.564  0.00  0.00     0.205 C 
ATOM      4  O   OP1 d   1      16.171  -7.849  -4.122  0.00  0.00    -0.646 OA
ATOM      5  OXT OP1 d   1      15.336  -6.243  -5.332  0.00  0.00    -0.646 OA
ENDBRANCH   1   3
BRANCH   1   6
ATOM      6  CB  OP1 d   1      18.232  -5.503  -5.417  0.00  0.00    -0.027 C 
ATOM      7  H   OP1 d   1      19.133  -4.960  -5.097  0.00  0.00     0.036 H 
ATOM      8  H   OP1 d   1      17.671  -4.891  -6.138  0.00  0.00     0.036 H 
BRANCH   6   9
ATOM      9  CG  OP1 d   1      18.664  -6.780  -6.108  0.00  0.00    -0.047 C 
ATOM     10  H   OP1 d   1      17.769  -7.377  -6.339  0.00  0.00     0.035 H 
ATOM     11  H   OP1 d   1      19.317  -7.347  -5.428  0.00  0.00     0.035 H 
BRANCH   9  12
ATOM     12  CD  OP1 d   1      19.409  -6.516  -7.381  0.00  0.00     0.009 C 
ATOM     13  H   OP1 d   1      20.183  -5.757  -7.193  0.00  0.00     0.064 H 
ATOM     14  H   OP1 d   1      18.704  -6.142  -8.138  0.00  0.00     0.064 H 
BRANCH  12  15
ATOM     15  NE  OP1 d   1      20.042  -7.726  -7.879  0.00  0.00    -0.227 N 
ATOM     16  CZ  OP1 d   1      20.837  -7.708  -9.077  0.00  0.00     0.665 C 
ATOM     17  NH2 OP1 d   1      20.949  -6.628  -9.830  0.00  0.00    -0.235 N 
ATOM     18  NH1 OP1 d   1      21.414  -8.861  -9.434  0.00  0.00    -0.235 N 
ATOM     19  H   OP1 d   1      21.528  -6.652 -10.682  0.00  0.00     0.174 HD
ATOM     20  H   OP1 d   1      20.458  -5.762  -9.565  0.00  0.00     0.174 HD
ATOM     21  H   OP1 d   1      21.316  -9.693  -8.835  0.00  0.00     0.174 HD
ATOM     22  H   OP1 d   1      21.956  -8.917 -10.308  0.00  0.00     0.174 HD
ATOM     23  H   OP1 d   1      19.919  -8.610  -7.366  0.00  0.00     0.177 HD
ENDBRANCH  12  15
ENDBRANCH   9  12
ENDBRANCH   6   9
ENDBRANCH   1   6
BRANCH   1  24
ATOM     24  N   OP1 d   1      18.100  -6.233  -3.033  0.00  0.00    -0.017 N 
ATOM     25  CAU OP1 d   1      19.353  -6.916  -2.780  0.00  0.00     0.190 C 
ATOM     26  CAM OP1 d   1      19.266  -7.482  -1.412  0.00  0.00    -0.024 C 
ATOM     27  H   OP1 d   1      19.487  -7.724  -3.514  0.00  0.00     0.102 H 
ATOM     28  CAK OP1 d   1      18.220  -6.747  -0.659  0.00  0.00    -0.014 C 
ATOM     29  H   OP1 d   1      20.235  -7.371  -0.903  0.00  0.00     0.037 H 
ATOM     30  H   OP1 d   1      19.001  -8.548  -1.469  0.00  0.00     0.037 H 
ATOM     31  CAQ OP1 d   1      17.511  -6.065  -1.755  0.00  0.00     0.194 C 
ATOM     32  H   OP1 d   1      18.661  -6.027   0.046  0.00  0.00     0.039 H 
ATOM     33  H   OP1 d   1      17.556  -7.434  -0.115  0.00  0.00     0.039 H 
ATOM     34  H   OP1 d   1      17.951  -5.075  -1.562  0.00  0.00     0.129 H 
ATOM     35  H   OP1 d   1      18.579  -5.346  -3.013  0.00  0.00     0.285 HD
BRANCH  25  36
ATOM     36  CAS OP1 d   1      20.520  -5.982  -2.865  0.00  0.00     0.205 C 
ATOM     37  OAH OP1 d   1      20.395  -4.739  -3.134  0.00  0.00    -0.646 OA
ATOM     38  OAE OP1 d   1      21.688  -6.426  -2.607  0.00  0.00    -0.646 OA
ENDBRANCH  25  36
BRANCH  31  39
ATOM     39  OAM OP1 d   1      16.247  -5.635  -1.634  0.00  0.00    -0.369 OA
ATOM     40  H   OP1 d   1      15.663  -6.244  -2.071  0.00  0.00     0.212 HD
ENDBRANCH  31  39
ENDBRANCH   1  24
TORSDOF 8
