REMARK  8 active torsions:
REMARK  status: ('A' for Active; 'I' for Inactive)
REMARK    1  A    between atoms: C3_6  and  C6'_7 
REMARK    2  A    between atoms: C7_11  and  C8_12 
REMARK    3  A    between atoms: C8_12  and  C9_13 
REMARK    4  A    between atoms: C9_13  and  C19_14 
REMARK    5  A    between atoms: C10_15  and  C11_16 
REMARK    6  A    between atoms: C12_17  and  C13_18 
REMARK    7  A    between atoms: C13_18  and  C20_19 
REMARK    8  A    between atoms: C14_20  and  C15_21 
ROOT
ATOM      1  C2' 2VZ d   1      66.368  46.777  29.587  0.00  0.00    -0.040 C 
ATOM      2  C1' 2VZ d   1      67.229  45.789  30.377  0.00  0.00    -0.058 C 
ATOM      3  C18 2VZ d   1      67.731  46.435  31.672  0.00  0.00    -0.040 C 
ATOM      4  C5  2VZ d   1      66.615  47.071  32.503  0.00  0.00    -0.047 A 
ATOM      5  C4  2VZ d   1      66.714  47.080  33.898  0.00  0.00    -0.070 A 
ATOM      6  C3  2VZ d   1      65.719  47.637  34.692  0.00  0.00    -0.061 A 
ATOM      7  C2  2VZ d   1      64.614  48.207  34.068  0.00  0.00    -0.076 A 
ATOM      8  C1  2VZ d   1      64.506  48.228  32.695  0.00  0.00    -0.071 A 
ATOM      9  C6  2VZ d   1      65.518  47.642  31.900  0.00  0.00    -0.024 A 
ATOM     10  C7  2VZ d   1      65.406  47.592  30.459  0.00  0.00    -0.047 C 
ATOM     11  H   2VZ d   1      65.776  46.211  28.852  0.00  0.00     0.040 H 
ATOM     12  H   2VZ d   1      67.035  47.475  29.061  0.00  0.00     0.040 H 
ATOM     13  H   2VZ d   1      68.091  45.489  29.764  0.00  0.00     0.033 H 
ATOM     14  H   2VZ d   1      66.628  44.901  30.624  0.00  0.00     0.033 H 
ATOM     15  H   2VZ d   1      68.461  47.216  31.413  0.00  0.00     0.040 H 
ATOM     16  H   2VZ d   1      68.222  45.661  32.281  0.00  0.00     0.040 H 
ATOM     17  H   2VZ d   1      67.586  46.643  34.370  0.00  0.00     0.085 H 
ATOM     18  H   2VZ d   1      63.825  48.642  34.672  0.00  0.00     0.084 H 
ATOM     19  H   2VZ d   1      63.647  48.693  32.225  0.00  0.00     0.084 H 
ENDROOT
BRANCH  10  20
ATOM     20  C8  2VZ d   1      64.387  48.310  29.837  0.00  0.00    -0.070 C 
ATOM     21  H   2VZ d   1      63.738  48.911  30.472  0.00  0.00     0.085 H 
BRANCH  20  22
ATOM     22  C9  2VZ d   1      64.118  48.320  28.385  0.00  0.00    -0.061 C 
ATOM     23  C10 2VZ d   1      62.880  47.963  27.900  0.00  0.00    -0.077 C 
ATOM     24  H   2VZ d   1      62.725  47.964  26.822  0.00  0.00     0.084 H 
BRANCH  22  25
ATOM     25  C19 2VZ d   1      65.226  48.789  27.438  0.00  0.00    -0.051 C 
ATOM     26  H   2VZ d   1      64.867  48.736  26.399  0.00  0.00     0.033 H 
ATOM     27  H   2VZ d   1      66.107  48.141  27.555  0.00  0.00     0.033 H 
ATOM     28  H   2VZ d   1      65.500  49.827  27.679  0.00  0.00     0.033 H 
ENDBRANCH  22  25
BRANCH  23  29
ATOM     29  C11 2VZ d   1      61.751  47.578  28.775  0.00  0.00    -0.082 C 
ATOM     30  C12 2VZ d   1      60.597  47.008  28.261  0.00  0.00    -0.077 C 
ATOM     31  H   2VZ d   1      60.509  46.831  27.190  0.00  0.00     0.084 H 
ATOM     32  H   2VZ d   1      61.828  47.746  29.848  0.00  0.00     0.083 H 
BRANCH  30  33
ATOM     33  C13 2VZ d   1      59.490  46.641  29.158  0.00  0.00    -0.056 C 
ATOM     34  C14 2VZ d   1      58.199  46.980  28.772  0.00  0.00    -0.004 C 
ATOM     35  H   2VZ d   1      58.079  47.490  27.817  0.00  0.00     0.094 H 
BRANCH  33  36
ATOM     36  C20 2VZ d   1      59.775  45.886  30.460  0.00  0.00    -0.051 C 
ATOM     37  H   2VZ d   1      58.830  45.702  30.992  0.00  0.00     0.033 H 
ATOM     38  H   2VZ d   1      60.442  46.488  31.095  0.00  0.00     0.033 H 
ATOM     39  H   2VZ d   1      60.258  44.925  30.229  0.00  0.00     0.033 H 
ENDBRANCH  33  36
BRANCH  34  40
ATOM     40  C15 2VZ d   1      56.987  46.706  29.548  0.00  0.00     0.199 C 
ATOM     41  O1  2VZ d   1      56.956  45.729  30.327  0.00  0.00    -0.644 OA
ATOM     42  O2  2VZ d   1      56.020  47.484  29.373  0.00  0.00    -0.644 OA
ENDBRANCH  34  40
ENDBRANCH  30  33
ENDBRANCH  23  29
ENDBRANCH  20  22
ENDBRANCH  10  20
BRANCH   6  43
ATOM     43  C6' 2VZ d   1      65.851  47.630  36.219  0.00  0.00    -0.051 C 
ATOM     44  H   2VZ d   1      64.969  48.113  36.665  0.00  0.00     0.033 H 
ATOM     45  H   2VZ d   1      66.758  48.180  36.511  0.00  0.00     0.033 H 
ATOM     46  H   2VZ d   1      65.921  46.592  36.576  0.00  0.00     0.033 H 
ENDBRANCH   6  43
TORSDOF 8
