REMARK  8 active torsions:
REMARK  status: ('A' for Active; 'I' for Inactive)
REMARK    1  A    between atoms: C5'_1  and  C4_2 
REMARK    2  A    between atoms: C7_11  and  C8_12 
REMARK    3  A    between atoms: C8_12  and  C9_13 
REMARK    4  A    between atoms: C9_13  and  C19_14 
REMARK    5  A    between atoms: C10_15  and  C11_16 
REMARK    6  A    between atoms: C12_17  and  C13_18 
REMARK    7  A    between atoms: C13_18  and  C20_19 
REMARK    8  A    between atoms: C14_20  and  C15_21 
ROOT
ATOM      1  C4  2W0 d   1      66.913  47.336  33.718  0.00  0.00    -0.055 A 
ATOM      2  C3  2W0 d   1      66.052  48.066  34.531  0.00  0.00    -0.077 A 
ATOM      3  C2  2W0 d   1      64.958  48.715  33.971  0.00  0.00    -0.082 A 
ATOM      4  C1  2W0 d   1      64.733  48.622  32.602  0.00  0.00    -0.072 A 
ATOM      5  C6  2W0 d   1      65.596  47.887  31.793  0.00  0.00    -0.023 A 
ATOM      6  C5  2W0 d   1      66.702  47.239  32.343  0.00  0.00    -0.041 A 
ATOM      7  C18 2W0 d   1      67.682  46.458  31.463  0.00  0.00    -0.039 C 
ATOM      8  C1' 2W0 d   1      66.970  45.796  30.281  0.00  0.00    -0.058 C 
ATOM      9  C2' 2W0 d   1      66.124  46.813  29.511  0.00  0.00    -0.040 C 
ATOM     10  C7  2W0 d   1      65.336  47.752  30.431  0.00  0.00    -0.047 C 
ATOM     11  H   2W0 d   1      66.234  48.129  35.598  0.00  0.00     0.084 H 
ATOM     12  H   2W0 d   1      64.285  49.290  34.597  0.00  0.00     0.083 H 
ATOM     13  H   2W0 d   1      63.880  49.125  32.161  0.00  0.00     0.084 H 
ATOM     14  H   2W0 d   1      68.165  45.679  32.071  0.00  0.00     0.040 H 
ATOM     15  H   2W0 d   1      68.446  47.150  31.078  0.00  0.00     0.040 H 
ATOM     16  H   2W0 d   1      66.316  44.996  30.657  0.00  0.00     0.033 H 
ATOM     17  H   2W0 d   1      67.722  45.367  29.603  0.00  0.00     0.033 H 
ATOM     18  H   2W0 d   1      65.412  46.267  28.874  0.00  0.00     0.040 H 
ATOM     19  H   2W0 d   1      66.791  47.419  28.880  0.00  0.00     0.040 H 
ENDROOT
BRANCH  10  20
ATOM     20  C8  2W0 d   1      64.315  48.514  29.869  0.00  0.00    -0.070 C 
ATOM     21  H   2W0 d   1      63.759  49.191  30.516  0.00  0.00     0.085 H 
BRANCH  20  22
ATOM     22  C9  2W0 d   1      63.969  48.454  28.522  0.00  0.00    -0.061 C 
ATOM     23  C10 2W0 d   1      62.683  48.111  28.116  0.00  0.00    -0.077 C 
ATOM     24  H   2W0 d   1      62.470  48.073  27.049  0.00  0.00     0.084 H 
BRANCH  22  25
ATOM     25  C19 2W0 d   1      65.002  48.828  27.458  0.00  0.00    -0.051 C 
ATOM     26  H   2W0 d   1      64.554  48.722  26.459  0.00  0.00     0.033 H 
ATOM     27  H   2W0 d   1      65.873  48.161  27.542  0.00  0.00     0.033 H 
ATOM     28  H   2W0 d   1      65.322  49.870  27.608  0.00  0.00     0.033 H 
ENDBRANCH  22  25
BRANCH  23  29
ATOM     29  C11 2W0 d   1      61.656  47.814  29.006  0.00  0.00    -0.082 C 
ATOM     30  C12 2W0 d   1      60.489  47.220  28.539  0.00  0.00    -0.077 C 
ATOM     31  H   2W0 d   1      60.398  46.989  27.479  0.00  0.00     0.084 H 
ATOM     32  H   2W0 d   1      61.766  48.046  30.064  0.00  0.00     0.083 H 
BRANCH  30  33
ATOM     33  C13 2W0 d   1      59.435  46.913  29.394  0.00  0.00    -0.056 C 
ATOM     34  C14 2W0 d   1      58.145  47.265  29.006  0.00  0.00    -0.004 C 
ATOM     35  H   2W0 d   1      58.020  47.761  28.045  0.00  0.00     0.094 H 
BRANCH  33  36
ATOM     36  C20 2W0 d   1      59.706  46.196  30.719  0.00  0.00    -0.051 C 
ATOM     37  H   2W0 d   1      58.757  46.041  31.253  0.00  0.00     0.033 H 
ATOM     38  H   2W0 d   1      60.378  46.809  31.337  0.00  0.00     0.033 H 
ATOM     39  H   2W0 d   1      60.177  45.222  30.519  0.00  0.00     0.033 H 
ENDBRANCH  33  36
BRANCH  34  40
ATOM     40  C15 2W0 d   1      57.005  47.024  29.767  0.00  0.00     0.199 C 
ATOM     41  O2  2W0 d   1      56.031  47.788  29.598  0.00  0.00    -0.644 OA
ATOM     42  O1  2W0 d   1      57.008  46.066  30.570  0.00  0.00    -0.644 OA
ENDBRANCH  34  40
ENDBRANCH  30  33
ENDBRANCH  23  29
ENDBRANCH  20  22
ENDBRANCH  10  20
BRANCH   1  43
ATOM     43  C5' 2W0 d   1      68.100  46.625  34.372  0.00  0.00    -0.051 C 
ATOM     44  H   2W0 d   1      68.094  46.821  35.454  0.00  0.00     0.033 H 
ATOM     45  H   2W0 d   1      69.038  47.001  33.937  0.00  0.00     0.033 H 
ATOM     46  H   2W0 d   1      68.022  45.542  34.195  0.00  0.00     0.033 H 
ENDBRANCH   1  43
TORSDOF 8
