REMARK  4 active torsions:
REMARK  status: ('A' for Active; 'I' for Inactive)
REMARK    1  A    between atoms: C7_2  and  C6_4 
REMARK    2  A    between atoms: C13_10  and  O13_12 
REMARK    3  A    between atoms: C3_20  and  O31_21 
REMARK    4  A    between atoms: C4_22  and  C18_23 
ROOT
ATOM      1  C6  GA3 d   1      10.667   0.605  20.008  0.00  0.00     0.046 C 
ATOM      2  C5  GA3 d   1      11.573   0.258  18.818  0.00  0.00     0.013 C 
ATOM      3  C8  GA3 d   1      11.067   2.058  20.364  0.00  0.00    -0.013 C 
ATOM      4  C15 GA3 d   1      10.196   3.213  19.843  0.00  0.00    -0.034 C 
ATOM      5  C16 GA3 d   1      10.578   4.328  20.771  0.00  0.00    -0.054 C 
ATOM      6  C17 GA3 d   1      10.449   5.625  20.562  0.00  0.00    -0.116 C 
ATOM      7  C13 GA3 d   1      11.345   3.779  21.962  0.00  0.00     0.081 C 
ATOM      8  C14 GA3 d   1      11.030   2.275  21.878  0.00  0.00    -0.024 C 
ATOM      9  C12 GA3 d   1      12.855   3.947  21.724  0.00  0.00    -0.032 C 
ATOM     10  C11 GA3 d   1      13.419   2.691  21.056  0.00  0.00    -0.055 C 
ATOM     11  C9  GA3 d   1      12.524   2.282  19.885  0.00  0.00    -0.011 C 
ATOM     12  C10 GA3 d   1      12.881   0.948  19.252  0.00  0.00     0.098 C 
ATOM     13  O92 GA3 d   1      13.375  -0.062  20.233  0.00  0.00    -0.304 OA
ATOM     14  C1  GA3 d   1      13.917   0.928  18.169  0.00  0.00    -0.070 C 
ATOM     15  C2  GA3 d   1      13.988  -0.154  17.395  0.00  0.00    -0.075 C 
ATOM     16  C3  GA3 d   1      13.015  -1.306  17.457  0.00  0.00     0.068 C 
ATOM     17  C4  GA3 d   1      12.064  -1.208  18.680  0.00  0.00     0.081 C 
ATOM     18  C19 GA3 d   1      12.944  -1.311  19.906  0.00  0.00     0.271 C 
ATOM     19  O91 GA3 d   1      13.240  -2.268  20.549  0.00  0.00    -0.264 OA
ATOM     20  H   GA3 d   1      10.885  -0.080  20.841  0.00  0.00     0.058 H 
ATOM     21  H   GA3 d   1      11.146   0.625  17.873  0.00  0.00     0.048 H 
ATOM     22  H   GA3 d   1       9.125   2.975  19.923  0.00  0.00     0.041 H 
ATOM     23  H   GA3 d   1      10.440   3.459  18.799  0.00  0.00     0.041 H 
ATOM     24  H   GA3 d   1       9.892   5.985  19.698  0.00  0.00     0.067 H 
ATOM     25  H   GA3 d   1      10.899   6.335  21.254  0.00  0.00     0.067 H 
ATOM     26  H   GA3 d   1      11.793   1.672  22.392  0.00  0.00     0.039 H 
ATOM     27  H   GA3 d   1      10.039   2.045  22.296  0.00  0.00     0.039 H 
ATOM     28  H   GA3 d   1      13.361   4.106  22.688  0.00  0.00     0.037 H 
ATOM     29  H   GA3 d   1      13.027   4.816  21.072  0.00  0.00     0.037 H 
ATOM     30  H   GA3 d   1      13.457   1.873  21.790  0.00  0.00     0.033 H 
ATOM     31  H   GA3 d   1      14.434   2.899  20.685  0.00  0.00     0.033 H 
ATOM     32  H   GA3 d   1      12.564   3.077  19.126  0.00  0.00     0.046 H 
ATOM     33  H   GA3 d   1      14.590   1.771  18.020  0.00  0.00     0.081 H 
ATOM     34  H   GA3 d   1      14.800  -0.211  16.671  0.00  0.00     0.080 H 
ATOM     35  H   GA3 d   1      13.578  -2.247  17.543  0.00  0.00     0.091 H 
ENDROOT
BRANCH   1  36
ATOM     36  C7  GA3 d   1       9.168   0.586  19.750  0.00  0.00     0.178 C 
ATOM     37  O71 GA3 d   1       8.373   0.310  20.680  0.00  0.00    -0.648 OA
ATOM     38  O72 GA3 d   1       8.809   0.883  18.592  0.00  0.00    -0.648 OA
ENDBRANCH   1  36
BRANCH  17  39
ATOM     39  C18 GA3 d   1      10.989  -2.295  18.698  0.00  0.00    -0.057 C 
ATOM     40  H   GA3 d   1      10.353  -2.167  19.587  0.00  0.00     0.029 H 
ATOM     41  H   GA3 d   1      11.469  -3.284  18.730  0.00  0.00     0.029 H 
ATOM     42  H   GA3 d   1      10.372  -2.215  17.791  0.00  0.00     0.029 H 
ENDBRANCH  17  39
BRANCH  16  43
ATOM     43  O31 GA3 d   1      12.311  -1.298  16.222  0.00  0.00    -0.390 OA
ATOM     44  H   GA3 d   1      12.927  -1.408  15.507  0.00  0.00     0.210 HD
ENDBRANCH  16  43
BRANCH   7  45
ATOM     45  O13 GA3 d   1      11.074   4.412  23.229  0.00  0.00    -0.385 OA
ATOM     46  H   GA3 d   1      10.151   4.323  23.435  0.00  0.00     0.211 HD
ENDBRANCH   7  45
TORSDOF 4
