REMARK  9 active torsions:
REMARK  status: ('A' for Active; 'I' for Inactive)
REMARK    1  A    between atoms: C3_3  and  O3_31 
REMARK    2  A    between atoms: C4_4  and  C24_24 
REMARK    3  A    between atoms: C4_4  and  C25_25 
REMARK    4  A    between atoms: C8_8  and  C26_26 
REMARK    5  A    between atoms: C10_10  and  C19_19 
REMARK    6  A    between atoms: C14_14  and  C27_27 
REMARK    7  A    between atoms: C17_17  and  C28_28 
REMARK    8  A    between atoms: C21_21  and  C33_29 
REMARK    9  A    between atoms: C21_21  and  C34_30 
ROOT
ATOM      1  C1  CBW d   1      15.762   3.017  23.527  0.00  0.00    -0.055 C 
ATOM      2  C2  CBW d   1      16.730   2.654  24.652  0.00  0.00    -0.040 C 
ATOM      3  C3  CBW d   1      16.725   1.164  24.915  0.00  0.00     0.042 C 
ATOM      4  C4  CBW d   1      15.350   0.626  25.353  0.00  0.00    -0.017 C 
ATOM      5  C5  CBW d   1      14.289   1.755  25.129  0.00  0.00    -0.037 C 
ATOM      6  C6  CBW d   1      12.860   1.374  25.518  0.00  0.00    -0.059 C 
ATOM      7  C7  CBW d   1      12.069   2.647  25.819  0.00  0.00    -0.056 C 
ATOM      8  C8  CBW d   1      11.986   3.601  24.617  0.00  0.00    -0.021 C 
ATOM      9  C9  CBW d   1      13.406   3.808  23.990  0.00  0.00     0.023 C 
ATOM     10  C10 CBW d   1      14.319   2.537  23.772  0.00  0.00    -0.028 C 
ATOM     11  C11 CBW d   1      13.310   4.761  22.802  0.00  0.00     0.155 C 
ATOM     12  C12 CBW d   1      12.286   5.809  22.874  0.00  0.00    -0.035 C 
ATOM     13  C13 CBW d   1      11.399   5.950  23.866  0.00  0.00    -0.062 C 
ATOM     14  C14 CBW d   1      11.457   5.019  25.082  0.00  0.00    -0.012 C 
ATOM     15  C15 CBW d   1      10.082   4.850  25.760  0.00  0.00    -0.053 C 
ATOM     16  C16 CBW d   1       9.236   6.108  25.774  0.00  0.00    -0.057 C 
ATOM     17  C17 CBW d   1       8.989   6.667  24.369  0.00  0.00    -0.036 C 
ATOM     18  C18 CBW d   1      10.351   7.058  23.740  0.00  0.00    -0.023 C 
ATOM     19  C20 CBW d   1      10.882   8.420  24.226  0.00  0.00    -0.041 C 
ATOM     20  C21 CBW d   1       9.910   9.600  24.011  0.00  0.00     0.045 C 
ATOM     21  C22 CBW d   1       8.523   9.074  23.615  0.00  0.00    -0.048 C 
ATOM     22  C23 CBW d   1       8.082   7.902  24.471  0.00  0.00    -0.057 C 
ATOM     23  O11 CBW d   1      14.026   4.676  21.816  0.00  0.00    -0.293 OA
ATOM     24  H1  CBW d   1      16.126   2.560  22.595  0.00  0.00     0.034 H 
ATOM     25  H2  CBW d   1      15.750   4.112  23.419  0.00  0.00     0.034 H 
ATOM     26  H3  CBW d   1      16.429   3.182  25.569  0.00  0.00     0.036 H 
ATOM     27  H4  CBW d   1      17.746   2.965  24.366  0.00  0.00     0.036 H 
ATOM     28  H5  CBW d   1      17.426   0.972  25.741  0.00  0.00     0.084 H 
ATOM     29  H6  CBW d   1      14.578   2.514  25.870  0.00  0.00     0.042 H 
ATOM     30  H7  CBW d   1      12.880   0.732  26.411  0.00  0.00     0.033 H 
ATOM     31  H8  CBW d   1      12.384   0.832  24.688  0.00  0.00     0.033 H 
ATOM     32  H9  CBW d   1      12.557   3.174  26.652  0.00  0.00     0.034 H 
ATOM     33  H10 CBW d   1      11.047   2.364  26.113  0.00  0.00     0.034 H 
ATOM     34  H11 CBW d   1      13.955   4.376  24.756  0.00  0.00     0.054 H 
ATOM     35  H12 CBW d   1      12.245   6.528  22.057  0.00  0.00     0.089 H 
ATOM     36  H13 CBW d   1      10.247   4.534  26.801  0.00  0.00     0.034 H 
ATOM     37  H14 CBW d   1       9.527   4.067  25.223  0.00  0.00     0.034 H 
ATOM     38  H15 CBW d   1       9.752   6.873  26.372  0.00  0.00     0.034 H 
ATOM     39  H16 CBW d   1       8.265   5.875  26.236  0.00  0.00     0.034 H 
ATOM     40  H17 CBW d   1      10.161   7.176  22.663  0.00  0.00     0.048 H 
ATOM     41  H21 CBW d   1      11.813   8.639  23.683  0.00  0.00     0.035 H 
ATOM     42  H22 CBW d   1      11.094   8.342  25.302  0.00  0.00     0.035 H 
ATOM     43  H23 CBW d   1       8.555   8.751  22.564  0.00  0.00     0.035 H 
ATOM     44  H24 CBW d   1       7.792   9.888  23.727  0.00  0.00     0.035 H 
ATOM     45  H25 CBW d   1       8.064   8.230  25.521  0.00  0.00     0.034 H 
ATOM     46  H26 CBW d   1       7.068   7.611  24.160  0.00  0.00     0.034 H 
ENDROOT
BRANCH   4  47
ATOM     47  C24 CBW d   1      15.067  -0.689  24.629  0.00  0.00    -0.067 C 
ATOM     48  H27 CBW d   1      15.867  -1.410  24.852  0.00  0.00     0.028 H 
ATOM     49  H28 CBW d   1      15.027  -0.509  23.544  0.00  0.00     0.028 H 
ATOM     50  H29 CBW d   1      14.103  -1.095  24.969  0.00  0.00     0.028 H 
ENDBRANCH   4  47
BRANCH   4  51
ATOM     51  C25 CBW d   1      15.405   0.315  26.848  0.00  0.00    -0.067 C 
ATOM     52  H30 CBW d   1      15.608   1.240  27.408  0.00  0.00     0.028 H 
ATOM     53  H31 CBW d   1      16.206  -0.414  27.042  0.00  0.00     0.028 H 
ATOM     54  H32 CBW d   1      14.441  -0.105  27.171  0.00  0.00     0.028 H 
ENDBRANCH   4  51
BRANCH   3  55
ATOM     55  O3  CBW d   1      17.210   0.473  23.758  0.00  0.00    -0.395 OA
ATOM     56  H45 CBW d   1      18.057   0.826  23.512  0.00  0.00     0.210 HD
ENDBRANCH   3  55
BRANCH  10  57
ATOM     57  C19 CBW d   1      13.894   1.689  22.559  0.00  0.00    -0.068 C 
ATOM     58  H18 CBW d   1      14.566   0.824  22.463  0.00  0.00     0.028 H 
ATOM     59  H19 CBW d   1      13.951   2.300  21.646  0.00  0.00     0.028 H 
ATOM     60  H20 CBW d   1      12.862   1.337  22.701  0.00  0.00     0.028 H 
ENDBRANCH  10  57
BRANCH   8  61
ATOM     61  C26 CBW d   1      11.006   2.982  23.602  0.00  0.00    -0.067 C 
ATOM     62  H33 CBW d   1      11.380   1.998  23.284  0.00  0.00     0.028 H 
ATOM     63  H34 CBW d   1      10.920   3.642  22.726  0.00  0.00     0.028 H 
ATOM     64  H35 CBW d   1      10.018   2.864  24.071  0.00  0.00     0.028 H 
ENDBRANCH   8  61
BRANCH  14  65
ATOM     65  C27 CBW d   1      12.389   5.679  26.095  0.00  0.00    -0.065 C 
ATOM     66  H36 CBW d   1      13.383   5.816  25.644  0.00  0.00     0.028 H 
ATOM     67  H37 CBW d   1      12.475   5.039  26.985  0.00  0.00     0.028 H 
ATOM     68  H38 CBW d   1      11.980   6.658  26.386  0.00  0.00     0.028 H 
ENDBRANCH  14  65
BRANCH  17  69
ATOM     69  C28 CBW d   1       8.288   5.609  23.507  0.00  0.00    -0.068 C 
ATOM     70  H39 CBW d   1       8.929   4.718  23.427  0.00  0.00     0.028 H 
ATOM     71  H40 CBW d   1       8.102   6.019  22.503  0.00  0.00     0.028 H 
ATOM     72  H41 CBW d   1       7.331   5.331  23.973  0.00  0.00     0.028 H 
ENDBRANCH  17  69
BRANCH  20  73
ATOM     73  C33 CBW d   1      10.298  10.524  22.863  0.00  0.00     0.181 C 
ATOM     74  O34 CBW d   1      11.400  10.212  22.220  0.00  0.00    -0.647 OA
ATOM     75  O35 CBW d   1       9.582  11.465  22.563  0.00  0.00    -0.647 OA
ENDBRANCH  20  73
BRANCH  20  76
ATOM     76  C34 CBW d   1       9.811  10.423  25.302  0.00  0.00    -0.059 C 
ATOM     77  H42 CBW d   1      10.809  10.795  25.577  0.00  0.00     0.029 H 
ATOM     78  H43 CBW d   1       9.420   9.789  26.112  0.00  0.00     0.029 H 
ATOM     79  H44 CBW d   1       9.133  11.275  25.143  0.00  0.00     0.029 H 
ENDBRANCH  20  76
TORSDOF 9
