REMARK  7 active torsions:
REMARK  status: ('A' for Active; 'I' for Inactive)
REMARK    1  A    between atoms: PAI_2  and  CAH_5 
REMARK    2  A    between atoms: CAH_5  and  PAM_6 
REMARK    3  A    between atoms: CAH_5  and  NAG_10 
REMARK    4  A    between atoms: NAG_10  and  CAD_11 
REMARK    5  A    between atoms: CAF_16  and  CAQ_17 
REMARK    6  A    between atoms: CAT_22  and  OAW_23 
REMARK    7  A    between atoms: OAW_23  and  CAX_24 
ROOT
ATOM      1  CAD YS1 d   1      15.233  31.674  -7.705  0.00  0.00     0.125 A 
ATOM      2  CAE YS1 d   1      16.048  30.678  -7.161  0.00  0.00    -0.028 A 
ATOM      3  NAC YS1 d   1      14.256  31.379  -8.642  0.00  0.00    -0.244 NA
ATOM      4  CAB YS1 d   1      14.120  29.999  -8.980  0.00  0.00     0.005 A 
ATOM      5  CAA YS1 d   1      14.941  28.983  -8.417  0.00  0.00    -0.055 A 
ATOM      6  CAF YS1 d   1      15.929  29.298  -7.486  0.00  0.00    -0.021 A 
ATOM      7  H3  YS1 d   1      16.813  30.973  -6.452  0.00  0.00     0.090 H 
ATOM      8  H4  YS1 d   1      13.358  29.713  -9.696  0.00  0.00     0.114 H 
ATOM      9  H5  YS1 d   1      14.796  27.951  -8.716  0.00  0.00     0.087 H 
ENDROOT
BRANCH   6  10
ATOM     10  CAQ YS1 d   1      16.810  28.318  -6.944  0.00  0.00    -0.026 A 
ATOM     11  CAV YS1 d   1      16.487  27.003  -6.692  0.00  0.00    -0.070 A 
ATOM     12  CAU YS1 d   1      17.366  26.045  -6.198  0.00  0.00    -0.050 A 
ATOM     13  H6  YS1 d   1      15.469  26.691  -6.894  0.00  0.00     0.085 H 
ATOM     14  CAT YS1 d   1      18.652  26.380  -5.921  0.00  0.00     0.070 A 
ATOM     15  H7  YS1 d   1      17.024  25.030  -6.034  0.00  0.00     0.087 H 
ATOM     16  CAS YS1 d   1      19.023  27.682  -6.211  0.00  0.00    -0.050 A 
ATOM     17  CAR YS1 d   1      18.130  28.624  -6.715  0.00  0.00    -0.070 A 
ATOM     18  H9  YS1 d   1      20.051  27.980  -6.039  0.00  0.00     0.087 H 
ATOM     19  H8  YS1 d   1      18.485  29.625  -6.932  0.00  0.00     0.085 H 
BRANCH  14  20
ATOM     20  OAW YS1 d   1      19.606  25.491  -5.500  0.00  0.00    -0.338 OA
BRANCH  20  21
ATOM     21  CAX YS1 d   1      19.263  24.276  -4.824  0.00  0.00     0.077 A 
ATOM     22  CAY YS1 d   1      20.252  23.630  -4.049  0.00  0.00    -0.073 A 
ATOM     23  CAZ YS1 d   1      19.677  24.861  -3.590  0.00  0.00    -0.073 A 
ATOM     24  H11 YS1 d   1      20.945  22.802  -3.905  0.00  0.00     0.081 H 
ATOM     25  H12 YS1 d   1      19.608  25.655  -2.848  0.00  0.00     0.081 H 
ATOM     26  H10 YS1 d   1      18.335  23.768  -5.125  0.00  0.00     0.097 H 
ENDBRANCH  20  21
ENDBRANCH  14  20
ENDBRANCH   6  10
BRANCH   1  27
ATOM     27  NAG YS1 d   1      15.489  32.950  -7.318  0.00  0.00    -0.347 N 
ATOM     28  H2  YS1 d   1      15.812  33.145  -6.359  0.00  0.00     0.162 HD
BRANCH  27  29
ATOM     29  CAH YS1 d   1      15.303  34.055  -8.276  0.00  0.00     0.228 C 
ATOM     30  H1  YS1 d   1      14.306  33.976  -8.733  0.00  0.00     0.117 H 
BRANCH  29  31
ATOM     31  PAI YS1 d   1      16.576  34.013  -9.611  0.00  0.00     0.297 P 
ATOM     32  OAJ YS1 d   1      16.352  32.709 -10.489  0.00  0.00    -0.638 OA
ATOM     33  OAK YS1 d   1      17.943  33.872  -8.911  0.00  0.00    -0.638 OA
ATOM     34  OAL YS1 d   1      16.340  35.239 -10.400  0.00  0.00    -0.638 OA
ENDBRANCH  29  31
BRANCH  29  35
ATOM     35  PAM YS1 d   1      15.430  35.620  -7.348  0.00  0.00     0.297 P 
ATOM     36  OAN YS1 d   1      14.344  35.508  -6.254  0.00  0.00    -0.638 OA
ATOM     37  OAP YS1 d   1      16.752  35.664  -6.630  0.00  0.00    -0.638 OA
ATOM     38  OAO YS1 d   1      15.194  36.710  -8.307  0.00  0.00    -0.638 OA
ENDBRANCH  29  35
ENDBRANCH  27  29
ENDBRANCH   1  27
TORSDOF 7
