REMARK  9 active torsions:
REMARK  status: ('A' for Active; 'I' for Inactive)
REMARK    1  A    between atoms: PAI_2  and  CAH_5 
REMARK    2  A    between atoms: CAH_5  and  PAM_6 
REMARK    3  A    between atoms: CAH_5  and  NAG_10 
REMARK    4  A    between atoms: NAG_10  and  CAD_11 
REMARK    5  A    between atoms: CAF_16  and  CAQ_17 
REMARK    6  A    between atoms: CAT_22  and  OAW_23 
REMARK    7  A    between atoms: OAW_23  and  CAX_24 
REMARK    8  A    between atoms: CAX_24  and  CAZ_25 
REMARK    9  A    between atoms: CAX_24  and  CAY_26 
ROOT
ATOM      1  CAD JD1 d   1      14.887  31.377  -7.743  0.00  0.00     0.047 A 
ATOM      2  CAE JD1 d   1      15.605  30.312  -7.202  0.00  0.00    -0.044 A 
ATOM      3  CAC JD1 d   1      13.926  31.086  -8.707  0.00  0.00     0.027 A 
ATOM      4  NAB JD1 d   1      13.716  29.803  -9.090  0.00  0.00    -0.270 NA
ATOM      5  CAA JD1 d   1      14.438  28.770  -8.553  0.00  0.00     0.013 A 
ATOM      6  CAF JD1 d   1      15.400  28.982  -7.585  0.00  0.00    -0.006 A 
ATOM      7  H3  JD1 d   1      16.357  30.524  -6.450  0.00  0.00     0.088 H 
ATOM      8  H4  JD1 d   1      13.345  31.886  -9.152  0.00  0.00     0.118 H 
ATOM      9  H5  JD1 d   1      14.249  27.759  -8.897  0.00  0.00     0.116 H 
ENDROOT
BRANCH   6  10
ATOM     10  CAQ JD1 d   1      16.158  27.905  -7.043  0.00  0.00    -0.024 A 
ATOM     11  CAV JD1 d   1      16.797  27.979  -5.779  0.00  0.00    -0.070 A 
ATOM     12  CAU JD1 d   1      17.498  26.870  -5.257  0.00  0.00    -0.050 A 
ATOM     13  H6  JD1 d   1      16.747  28.898  -5.207  0.00  0.00     0.085 H 
ATOM     14  CAT JD1 d   1      17.658  25.669  -5.998  0.00  0.00     0.069 A 
ATOM     15  H7  JD1 d   1      17.926  26.937  -4.263  0.00  0.00     0.087 H 
ATOM     16  CAS JD1 d   1      17.055  25.615  -7.243  0.00  0.00    -0.050 A 
ATOM     17  CAR JD1 d   1      16.318  26.704  -7.736  0.00  0.00    -0.070 A 
ATOM     18  H9  JD1 d   1      17.153  24.719  -7.846  0.00  0.00     0.087 H 
ATOM     19  H8  JD1 d   1      15.848  26.607  -8.708  0.00  0.00     0.085 H 
BRANCH  14  20
ATOM     20  OAW JD1 d   1      18.308  24.541  -5.583  0.00  0.00    -0.347 OA
BRANCH  20  21
ATOM     21  CAX JD1 d   1      19.131  24.578  -4.421  0.00  0.00     0.038 C 
ATOM     22  H10 JD1 d   1      18.596  25.017  -3.566  0.00  0.00     0.082 H 
BRANCH  21  23
ATOM     23  CAZ JD1 d   1      19.608  23.171  -4.104  0.00  0.00    -0.052 C 
ATOM     24  H11 JD1 d   1      20.244  23.193  -3.207  0.00  0.00     0.030 H 
ATOM     25  H12 JD1 d   1      20.186  22.779  -4.954  0.00  0.00     0.030 H 
ATOM     26  H13 JD1 d   1      18.739  22.522  -3.921  0.00  0.00     0.030 H 
ENDBRANCH  21  23
BRANCH  21  27
ATOM     27  CAY JD1 d   1      20.315  25.365  -4.783  0.00  0.00    -0.052 C 
ATOM     28  H14 JD1 d   1      20.992  25.428  -3.918  0.00  0.00     0.030 H 
ATOM     29  H15 JD1 d   1      20.005  26.378  -5.081  0.00  0.00     0.030 H 
ATOM     30  H16 JD1 d   1      20.836  24.879  -5.621  0.00  0.00     0.030 H 
ENDBRANCH  21  27
ENDBRANCH  20  21
ENDBRANCH  14  20
ENDBRANCH   6  10
BRANCH   1  31
ATOM     31  NAG JD1 d   1      15.175  32.629  -7.373  0.00  0.00    -0.361 N 
ATOM     32  H2  JD1 d   1      15.558  32.789  -6.431  0.00  0.00     0.161 HD
BRANCH  31  33
ATOM     33  CAH JD1 d   1      14.966  33.795  -8.262  0.00  0.00     0.227 C 
ATOM     34  H1  JD1 d   1      13.961  33.747  -8.706  0.00  0.00     0.117 H 
BRANCH  33  35
ATOM     35  PAI JD1 d   1      16.186  33.752  -9.614  0.00  0.00     0.297 P 
ATOM     36  OAJ JD1 d   1      17.608  33.603  -9.026  0.00  0.00    -0.638 OA
ATOM     37  OAK JD1 d   1      16.131  35.029 -10.344  0.00  0.00    -0.638 OA
ATOM     38  OAL JD1 d   1      16.026  32.463 -10.392  0.00  0.00    -0.638 OA
ENDBRANCH  33  35
BRANCH  33  39
ATOM     39  PAM JD1 d   1      15.069  35.305  -7.182  0.00  0.00     0.297 P 
ATOM     40  OAN JD1 d   1      16.447  35.273  -6.617  0.00  0.00    -0.638 OA
ATOM     41  OAP JD1 d   1      14.905  36.512  -8.030  0.00  0.00    -0.638 OA
ATOM     42  OAO JD1 d   1      14.085  35.117  -6.099  0.00  0.00    -0.638 OA
ENDBRANCH  33  39
ENDBRANCH  31  33
ENDBRANCH   1  31
TORSDOF 9
