REMARK  15 active torsions:
REMARK  status: ('A' for Active; 'I' for Inactive)
REMARK    1  A    between atoms: C10_18  and  C1_1 
REMARK    2  A    between atoms: C2_3  and  O2_4 
REMARK    3  A    between atoms: C3_5  and  O3_6 
REMARK    4  A    between atoms: C4_7  and  N1_8 
REMARK    5  A    between atoms: C7_12  and  N3_13 
REMARK    6  A    between atoms: S1_19  and  C10_18 
REMARK    7  A    between atoms: C11_20  and  S1_19 
REMARK    8  A    between atoms: C12_22  and  C11_20 
REMARK    9  A    between atoms: N6_21  and  C12_22 
REMARK       I    between atoms: C13_23  and  N6_21 
REMARK   10  A    between atoms: C14_24  and  C13_23 
REMARK   11  A    between atoms: N7_25  and  C14_24 
REMARK       I    between atoms: C15_26  and  N7_25 
REMARK   12  A    between atoms: C18_35  and  C15_26 
REMARK   13  A    between atoms: C16_29  and  N9_30 
REMARK   14  A    between atoms: C19_36  and  C20_37 
REMARK   15  A    between atoms: C19_36  and  C21_38 
ROOT
ATOM      1  C12 J1D d   1       1.708  31.278 -10.467  0.00  0.00     0.007 C 
ATOM      2  H16 J1D d   1       0.702  31.123 -10.051  0.00  0.00     0.065 H 
ATOM      3  H17 J1D d   1       2.336  31.793  -9.725  0.00  0.00     0.065 H 
ENDROOT
BRANCH   1   4
ATOM      4  C11 J1D d   1       1.632  32.047 -11.666  0.00  0.00     0.043 C 
ATOM      5  H13 J1D d   1       1.441  33.089 -11.370  0.00  0.00     0.058 H 
ATOM      6  H14 J1D d   1       2.614  31.979 -12.156  0.00  0.00     0.058 H 
BRANCH   4   7
ATOM      7  S1  J1D d   1       0.605  31.687 -12.690  0.00  0.00     0.148 S 
ATOM      8  O7  J1D d   1       0.766  32.448 -14.106  0.00  0.00    -0.228 OA
ATOM      9  O8  J1D d   1       0.911  30.193 -13.256  0.00  0.00    -0.228 OA
BRANCH   7  10
ATOM     10  C10 J1D d   1      -0.966  31.499 -11.961  0.00  0.00     0.055 C 
ATOM     11  H11 J1D d   1      -0.991  30.547 -11.410  0.00  0.00     0.060 H 
ATOM     12  H12 J1D d   1      -1.137  32.332 -11.263  0.00  0.00     0.060 H 
BRANCH  10  13
ATOM     13  C1  J1D d   1      -2.063  31.495 -12.992  0.00  0.00     0.081 C 
ATOM     14  O1  J1D d   1      -1.975  30.342 -13.819  0.00  0.00    -0.355 OA
ATOM     15  C4  J1D d   1      -3.254  30.054 -14.333  0.00  0.00     0.139 C 
ATOM     16  C3  J1D d   1      -4.307  30.672 -13.373  0.00  0.00     0.105 C 
ATOM     17  H6  J1D d   1      -3.366  30.489 -15.337  0.00  0.00     0.122 H 
ATOM     18  C2  J1D d   1      -3.446  31.412 -12.323  0.00  0.00     0.090 C 
ATOM     19  H4  J1D d   1      -4.974  29.925 -12.919  0.00  0.00     0.093 H 
ATOM     20  H2  J1D d   1      -3.416  30.871 -11.366  0.00  0.00     0.091 H 
ATOM     21  H1  J1D d   1      -1.989  32.408 -13.601  0.00  0.00     0.088 H 
BRANCH  15  22
ATOM     22  N1  J1D d   1      -3.409  28.603 -14.406  0.00  0.00    -0.294 N 
ATOM     23  C5  J1D d   1      -3.561  27.814 -15.561  0.00  0.00     0.071 A 
ATOM     24  N2  J1D d   1      -3.669  26.524 -15.300  0.00  0.00    -0.236 NA
ATOM     25  H7  J1D d   1      -3.587  28.226 -16.569  0.00  0.00     0.144 H 
ATOM     26  C6  J1D d   1      -3.610  26.445 -13.915  0.00  0.00     0.149 A 
ATOM     27  C7  J1D d   1      -3.670  25.374 -13.043  0.00  0.00     0.155 A 
ATOM     28  C9  J1D d   1      -3.437  27.738 -13.332  0.00  0.00     0.167 A 
ATOM     29  N4  J1D d   1      -3.553  25.604 -11.692  0.00  0.00    -0.222 NA
ATOM     30  C8  J1D d   1      -3.409  26.880 -11.283  0.00  0.00     0.091 A 
ATOM     31  N5  J1D d   1      -3.333  28.009 -11.997  0.00  0.00    -0.222 NA
ATOM     32  H10 J1D d   1      -3.345  27.012 -10.209  0.00  0.00     0.146 H 
BRANCH  27  33
ATOM     33  N3  J1D d   1      -3.837  24.109 -13.507  0.00  0.00    -0.382 N 
ATOM     34  H8  J1D d   1      -3.880  23.320 -12.847  0.00  0.00     0.157 HD
ATOM     35  H9  J1D d   1      -3.921  23.939 -14.519  0.00  0.00     0.157 HD
ENDBRANCH  27  33
ENDBRANCH  15  22
BRANCH  16  36
ATOM     36  O3  J1D d   1      -5.001  31.597 -14.133  0.00  0.00    -0.388 OA
ATOM     37  H5  J1D d   1      -5.564  32.112 -13.567  0.00  0.00     0.210 HD
ENDBRANCH  16  36
BRANCH  18  38
ATOM     38  O2  J1D d   1      -3.905  32.706 -12.145  0.00  0.00    -0.390 OA
ATOM     39  H3  J1D d   1      -3.298  33.183 -11.592  0.00  0.00     0.210 HD
ENDBRANCH  18  38
ENDBRANCH  10  13
ENDBRANCH   7  10
ENDBRANCH   4   7
ENDBRANCH   1   4
BRANCH   1  40
ATOM     40  N6  J1D d   1       2.312  29.984 -10.835  0.00  0.00    -0.359 N 
ATOM     41  C13 J1D d   1       3.450  29.473 -10.239  0.00  0.00     0.235 C 
ATOM     42  O6  J1D d   1       4.083  30.037  -9.348  0.00  0.00    -0.272 OA
ATOM     43  H15 J1D d   1       1.874  29.446 -11.556  0.00  0.00     0.162 HD
BRANCH  41  44
ATOM     44  C14 J1D d   1       3.805  28.122 -10.829  0.00  0.00     0.069 C 
ATOM     45  H18 J1D d   1       3.868  28.224 -11.922  0.00  0.00     0.078 H 
ATOM     46  H19 J1D d   1       3.008  27.408 -10.572  0.00  0.00     0.078 H 
BRANCH  44  47
ATOM     47  N7  J1D d   1       5.064  27.600 -10.343  0.00  0.00    -0.347 N 
ATOM     48  C15 J1D d   1       6.244  28.268 -10.508  0.00  0.00     0.269 C 
ATOM     49  O4  J1D d   1       6.338  29.362 -11.084  0.00  0.00    -0.266 OA
ATOM     50  H20 J1D d   1       5.071  26.719  -9.870  0.00  0.00     0.163 HD
BRANCH  48  51
ATOM     51  C18 J1D d   1       7.437  27.571  -9.944  0.00  0.00     0.130 C 
ATOM     52  N11 J1D d   1       7.233  26.716  -8.958  0.00  0.00    -0.237 NA
ATOM     53  C23 J1D d   1       8.309  25.950  -8.566  0.00  0.00     0.158 A 
ATOM     54  C17 J1D d   1       8.102  24.905  -7.652  0.00  0.00     0.226 A 
ATOM     55  C22 J1D d   1       9.639  26.157  -9.061  0.00  0.00     0.177 A 
ATOM     56  N10 J1D d   1       9.181  24.120  -7.255  0.00  0.00    -0.164 N 
ATOM     57  O5  J1D d   1       6.926  24.613  -7.118  0.00  0.00    -0.169 OA
ATOM     58  C16 J1D d   1      10.424  24.397  -7.789  0.00  0.00     0.702 A 
ATOM     59  H23 J1D d   1       9.059  23.375  -6.600  0.00  0.00     0.186 HD
ATOM     60  N8  J1D d   1      10.713  25.392  -8.689  0.00  0.00    -0.045 NA
ATOM     61  N12 J1D d   1       9.852  27.166  -9.937  0.00  0.00    -0.358 N 
ATOM     62  C19 J1D d   1       8.758  28.045 -10.427  0.00  0.00     0.074 C 
ATOM     63  H30 J1D d   1      10.810  27.331 -10.278  0.00  0.00     0.162 HD
BRANCH  58  64
ATOM     64  N9  J1D d   1      11.434  23.575  -7.354  0.00  0.00    -0.233 N 
ATOM     65  H21 J1D d   1      12.394  23.711  -7.702  0.00  0.00     0.174 HD
ATOM     66  H22 J1D d   1      11.232  22.823  -6.680  0.00  0.00     0.174 HD
ENDBRANCH  58  64
BRANCH  62  67
ATOM     67  C20 J1D d   1       8.982  29.447  -9.896  0.00  0.00    -0.048 C 
ATOM     68  H24 J1D d   1       9.957  29.819 -10.243  0.00  0.00     0.031 H 
ATOM     69  H25 J1D d   1       8.966  29.430  -8.796  0.00  0.00     0.031 H 
ATOM     70  H26 J1D d   1       8.185  30.110 -10.264  0.00  0.00     0.031 H 
ENDBRANCH  62  67
BRANCH  62  71
ATOM     71  C21 J1D d   1       8.797  27.974 -11.951  0.00  0.00    -0.048 C 
ATOM     72  H27 J1D d   1       8.629  26.936 -12.274  0.00  0.00     0.031 H 
ATOM     73  H28 J1D d   1       9.780  28.315 -12.309  0.00  0.00     0.031 H 
ATOM     74  H29 J1D d   1       8.011  28.620 -12.368  0.00  0.00     0.031 H 
ENDBRANCH  62  71
ENDBRANCH  48  51
ENDBRANCH  44  47
ENDBRANCH  41  44
ENDBRANCH   1  40
TORSDOF 15
