REMARK  8 active torsions:
REMARK  status: ('A' for Active; 'I' for Inactive)
REMARK    1  A    between atoms: C6_3  and  S12_4 
REMARK    2  A    between atoms: S12_4  and  C13_5 
REMARK    3  A    between atoms: C13_5  and  C14_6 
REMARK    4  A    between atoms: C14_6  and  O15_7 
REMARK    5  A    between atoms: C4_10  and  N7_18 
REMARK    6  A    between atoms: C3_11  and  S8_12 
REMARK    7  A    between atoms: S8_12  and  N11_14 
REMARK    8  A    between atoms: N7_18  and  C19_19 
ROOT
ATOM      1  N7  V90 d   1      -3.520   0.919  13.962  0.00  0.00    -0.381 N 
ATOM      2  H8  V90 d   1      -3.116   0.261  14.644  0.00  0.00     0.160 HD
ENDROOT
BRANCH   1   3
ATOM      3  C4  V90 d   1      -4.075   2.112  14.458  0.00  0.00     0.095 C 
ATOM      4  C5  V90 d   1      -3.702   3.276  13.813  0.00  0.00     0.164 C 
ATOM      5  F18 V90 d   1      -2.827   3.243  12.821  0.00  0.00    -0.202 F 
ATOM      6  C6  V90 d   1      -4.243   4.560  14.082  0.00  0.00     0.083 C 
ATOM      7  C1  V90 d   1      -5.034   4.606  15.287  0.00  0.00     0.176 C 
ATOM      8  F17 V90 d   1      -5.599   5.741  15.684  0.00  0.00    -0.201 F 
ATOM      9  C2  V90 d   1      -5.405   3.416  15.923  0.00  0.00     0.181 C 
ATOM     10  C3  V90 d   1      -4.974   2.189  15.556  0.00  0.00     0.150 C 
ATOM     11  F16 V90 d   1      -6.232   3.587  16.973  0.00  0.00    -0.201 F 
BRANCH   6  12
ATOM     12  S12 V90 d   1      -3.811   5.998  13.180  0.00  0.00    -0.121 SA
BRANCH  12  13
ATOM     13  C13 V90 d   1      -2.411   6.716  14.082  0.00  0.00     0.001 C 
ATOM     14  H1  V90 d   1      -2.590   6.648  15.165  0.00  0.00     0.052 H 
ATOM     15  H2  V90 d   1      -2.285   7.771  13.797  0.00  0.00     0.052 H 
BRANCH  13  16
ATOM     16  C14 V90 d   1      -1.181   5.941  13.721  0.00  0.00     0.025 C 
ATOM     17  H3  V90 d   1      -1.476   4.910  13.473  0.00  0.00     0.075 H 
ATOM     18  H4  V90 d   1      -0.505   5.931  14.589  0.00  0.00     0.075 H 
BRANCH  16  19
ATOM     19  O15 V90 d   1      -0.508   6.475  12.647  0.00  0.00    -0.400 OA
ATOM     20  H5  V90 d   1       0.260   5.947  12.462  0.00  0.00     0.209 HD
ENDBRANCH  16  19
ENDBRANCH  13  16
ENDBRANCH  12  13
ENDBRANCH   6  12
BRANCH  10  21
ATOM     21  S8  V90 d   1      -5.481   0.825  16.557  0.00  0.00     0.262 S 
ATOM     22  O10 V90 d   1      -6.930   0.852  16.468  0.00  0.00    -0.201 OA
ATOM     23  O9  V90 d   1      -4.916   1.067  17.884  0.00  0.00    -0.201 OA
BRANCH  21  24
ATOM     24  N11 V90 d   1      -4.923  -0.532  15.975  0.00  0.00    -0.324 N 
ATOM     25  H6  V90 d   1      -5.128  -1.395  16.436  0.00  0.00     0.169 HD
ATOM     26  H7  V90 d   1      -4.365  -0.528  15.145  0.00  0.00     0.169 HD
ENDBRANCH  21  24
ENDBRANCH  10  21
ENDBRANCH   1   3
BRANCH   1  27
ATOM     27  C19 V90 d   1      -3.475   0.552  12.579  0.00  0.00     0.010 C 
ATOM     28  C26 V90 d   1      -3.456  -0.996  12.554  0.00  0.00    -0.046 C 
ATOM     29  C25 V90 d   1      -2.164  -1.368  11.862  0.00  0.00    -0.063 C 
ATOM     30  H10 V90 d   1      -4.319  -1.383  11.992  0.00  0.00     0.035 H 
ATOM     31  H11 V90 d   1      -3.474  -1.398  13.578  0.00  0.00     0.035 H 
ATOM     32  C24 V90 d   1      -2.314  -1.357  10.304  0.00  0.00    -0.065 C 
ATOM     33  H12 V90 d   1      -1.866  -2.377  12.184  0.00  0.00     0.033 H 
ATOM     34  H13 V90 d   1      -1.385  -0.646  12.150  0.00  0.00     0.033 H 
ATOM     35  C23 V90 d   1      -2.380   0.062   9.702  0.00  0.00    -0.065 C 
ATOM     36  H14 V90 d   1      -3.239  -1.891  10.040  0.00  0.00     0.033 H 
ATOM     37  H15 V90 d   1      -1.451  -1.881   9.867  0.00  0.00     0.033 H 
ATOM     38  C22 V90 d   1      -3.856   0.462   9.376  0.00  0.00    -0.065 C 
ATOM     39  H16 V90 d   1      -1.787   0.088   8.776  0.00  0.00     0.033 H 
ATOM     40  H17 V90 d   1      -1.964   0.779  10.425  0.00  0.00     0.033 H 
ATOM     41  C21 V90 d   1      -4.227   1.604  10.322  0.00  0.00    -0.063 C 
ATOM     42  H18 V90 d   1      -4.525  -0.396   9.539  0.00  0.00     0.033 H 
ATOM     43  H19 V90 d   1      -3.935   0.796   8.331  0.00  0.00     0.033 H 
ATOM     44  C20 V90 d   1      -4.621   1.155  11.755  0.00  0.00    -0.046 C 
ATOM     45  H20 V90 d   1      -5.079   2.147   9.886  0.00  0.00     0.033 H 
ATOM     46  H21 V90 d   1      -3.362   2.280  10.400  0.00  0.00     0.033 H 
ATOM     47  H22 V90 d   1      -5.005   2.033  12.295  0.00  0.00     0.035 H 
ATOM     48  H23 V90 d   1      -5.416   0.399  11.670  0.00  0.00     0.035 H 
ATOM     49  H9  V90 d   1      -2.534   0.923  12.147  0.00  0.00     0.072 H 
ENDBRANCH   1  27
TORSDOF 8
