REMARK  8 active torsions:
REMARK  status: ('A' for Active; 'I' for Inactive)
REMARK    1  A    between atoms: C4_3  and  S7_4 
REMARK    2  A    between atoms: S7_4  and  N10_6 
REMARK    3  A    between atoms: C6_12  and  N19_20 
REMARK    4  A    between atoms: C1_13  and  S11_14 
REMARK    5  A    between atoms: S11_14  and  C15_17 
REMARK    6  A    between atoms: C15_17  and  C18_18 
REMARK    7  A    between atoms: C18_18  and  O21_19 
REMARK    8  A    between atoms: N19_20  and  C14_21 
ROOT
ATOM      1  F20 V14 d   1      -5.595   3.661  15.608  0.00  0.00    -0.202 F 
ATOM      2  C5  V14 d   1      -4.878   2.942  14.697  0.00  0.00     0.170 A 
ATOM      3  C4  V14 d   1      -4.605   1.595  14.936  0.00  0.00     0.161 A 
ATOM      4  C3  V14 d   1      -3.938   0.923  13.982  0.00  0.00     0.182 A 
ATOM      5  F12 V14 d   1      -3.644  -0.412  14.056  0.00  0.00    -0.201 F 
ATOM      6  C2  V14 d   1      -3.547   1.457  12.799  0.00  0.00     0.180 A 
ATOM      7  F13 V14 d   1      -2.864   0.759  11.899  0.00  0.00    -0.201 F 
ATOM      8  C6  V14 d   1      -4.483   3.593  13.508  0.00  0.00     0.094 A 
ATOM      9  C1  V14 d   1      -3.777   2.825  12.584  0.00  0.00     0.130 A 
ENDROOT
BRANCH   8  10
ATOM     10  N19 V14 d   1      -4.826   4.944  13.274  0.00  0.00    -0.382 N 
ATOM     11  H8  V14 d   1      -5.017   5.181  12.290  0.00  0.00     0.160 HD
BRANCH  10  12
ATOM     12  C14 V14 d   1      -4.952   6.064  14.222  0.00  0.00     0.010 C 
ATOM     13  C28 V14 d   1      -3.567   6.271  14.751  0.00  0.00    -0.046 C 
ATOM     14  C27 V14 d   1      -2.629   7.058  13.873  0.00  0.00    -0.063 C 
ATOM     15  H10 V14 d   1      -3.119   5.280  14.916  0.00  0.00     0.035 H 
ATOM     16  H11 V14 d   1      -3.651   6.800  15.712  0.00  0.00     0.035 H 
ATOM     17  C26 V14 d   1      -2.559   8.562  14.374  0.00  0.00    -0.065 C 
ATOM     18  H12 V14 d   1      -2.994   7.035  12.836  0.00  0.00     0.033 H 
ATOM     19  H13 V14 d   1      -1.625   6.611  13.918  0.00  0.00     0.033 H 
ATOM     20  C25 V14 d   1      -3.784   9.541  14.120  0.00  0.00    -0.065 C 
ATOM     21  H14 V14 d   1      -1.683   9.018  13.890  0.00  0.00     0.033 H 
ATOM     22  H15 V14 d   1      -2.400   8.527  15.462  0.00  0.00     0.033 H 
ATOM     23  C24 V14 d   1      -5.026   9.248  14.997  0.00  0.00    -0.065 C 
ATOM     24  H16 V14 d   1      -4.080   9.456  13.064  0.00  0.00     0.033 H 
ATOM     25  H17 V14 d   1      -3.452  10.569  14.326  0.00  0.00     0.033 H 
ATOM     26  C23 V14 d   1      -6.161   8.368  14.384  0.00  0.00    -0.063 C 
ATOM     27  H18 V14 d   1      -5.472  10.216  15.268  0.00  0.00     0.033 H 
ATOM     28  H19 V14 d   1      -4.673   8.740  15.906  0.00  0.00     0.033 H 
ATOM     29  C22 V14 d   1      -5.678   7.230  13.547  0.00  0.00    -0.046 C 
ATOM     30  H20 V14 d   1      -6.794   9.012  13.756  0.00  0.00     0.033 H 
ATOM     31  H21 V14 d   1      -6.761   7.957  15.209  0.00  0.00     0.033 H 
ATOM     32  H22 V14 d   1      -6.558   6.810  13.037  0.00  0.00     0.035 H 
ATOM     33  H23 V14 d   1      -4.988   7.650  12.801  0.00  0.00     0.035 H 
ATOM     34  H9  V14 d   1      -5.583   5.755  15.069  0.00  0.00     0.072 H 
ENDBRANCH  10  12
ENDBRANCH   8  10
BRANCH   9  35
ATOM     35  S11 V14 d   1      -3.016   3.489  11.086  0.00  0.00     0.182 S 
ATOM     36  O16 V14 d   1      -3.565   4.810  10.868  0.00  0.00    -0.222 OA
ATOM     37  O17 V14 d   1      -3.212   2.582   9.971  0.00  0.00    -0.222 OA
BRANCH  35  38
ATOM     38  C15 V14 d   1      -1.200   3.464  11.098  0.00  0.00     0.053 C 
ATOM     39  H3  V14 d   1      -0.852   3.816  10.116  0.00  0.00     0.059 H 
ATOM     40  H4  V14 d   1      -0.879   2.423  11.249  0.00  0.00     0.059 H 
BRANCH  38  41
ATOM     41  C18 V14 d   1      -0.532   4.314  12.159  0.00  0.00     0.029 C 
ATOM     42  H5  V14 d   1      -1.022   5.299  12.155  0.00  0.00     0.075 H 
ATOM     43  H6  V14 d   1       0.525   4.430  11.877  0.00  0.00     0.075 H 
BRANCH  41  44
ATOM     44  O21 V14 d   1      -0.571   3.817  13.494  0.00  0.00    -0.400 OA
ATOM     45  H7  V14 d   1      -0.138   2.972  13.529  0.00  0.00     0.209 HD
ENDBRANCH  41  44
ENDBRANCH  38  41
ENDBRANCH  35  38
ENDBRANCH   9  35
BRANCH   3  46
ATOM     46  S7  V14 d   1      -5.261   0.887  16.470  0.00  0.00     0.263 S 
ATOM     47  O9  V14 d   1      -6.654   1.251  16.452  0.00  0.00    -0.201 OA
ATOM     48  O8  V14 d   1      -4.435   1.391  17.512  0.00  0.00    -0.201 OA
BRANCH  46  49
ATOM     49  N10 V14 d   1      -5.088  -0.599  16.324  0.00  0.00    -0.324 N 
ATOM     50  H1  V14 d   1      -5.382  -1.211  17.058  0.00  0.00     0.169 HD
ATOM     51  H2  V14 d   1      -4.678  -0.976  15.493  0.00  0.00     0.169 HD
ENDBRANCH  46  49
ENDBRANCH   3  46
TORSDOF 8
