REMARK  4 active torsions:
REMARK  status: ('A' for Active; 'I' for Inactive)
REMARK    1  A    between atoms: C7_2  and  C6_4 
REMARK    2  A    between atoms: C13_10  and  O13_12 
REMARK    3  A    between atoms: C3_20  and  O31_21 
REMARK    4  A    between atoms: C4_22  and  C18_23 
ROOT
ATOM      1  C6  GA3 d   1       2.069  22.148  34.022  0.00  0.00     0.046 C 
ATOM      2  C5  GA3 d   1       3.341  22.629  33.299  0.00  0.00     0.013 C 
ATOM      3  C8  GA3 d   1       1.096  23.355  33.987  0.00  0.00    -0.013 C 
ATOM      4  C15 GA3 d   1      -0.035  23.329  32.944  0.00  0.00    -0.034 C 
ATOM      5  C16 GA3 d   1      -0.863  24.479  33.434  0.00  0.00    -0.054 C 
ATOM      6  C17 GA3 d   1      -1.766  25.144  32.737  0.00  0.00    -0.116 C 
ATOM      7  C13 GA3 d   1      -0.566  24.759  34.898  0.00  0.00     0.081 C 
ATOM      8  C14 GA3 d   1       0.262  23.512  35.262  0.00  0.00    -0.024 C 
ATOM      9  C12 GA3 d   1       0.306  26.019  35.063  0.00  0.00    -0.032 C 
ATOM     10  C11 GA3 d   1       1.784  25.707  34.818  0.00  0.00    -0.055 C 
ATOM     11  C9  GA3 d   1       1.991  24.604  33.773  0.00  0.00    -0.011 C 
ATOM     12  C10 GA3 d   1       3.427  24.104  33.726  0.00  0.00     0.098 C 
ATOM     13  O92 GA3 d   1       3.999  23.928  35.100  0.00  0.00    -0.304 OA
ATOM     14  C1  GA3 d   1       4.474  24.837  32.936  0.00  0.00    -0.070 C 
ATOM     15  C2  GA3 d   1       5.660  24.232  32.846  0.00  0.00    -0.075 C 
ATOM     16  C3  GA3 d   1       5.795  22.734  32.967  0.00  0.00     0.068 C 
ATOM     17  C4  GA3 d   1       4.688  22.082  33.835  0.00  0.00     0.081 C 
ATOM     18  C19 GA3 d   1       4.736  22.787  35.173  0.00  0.00     0.271 C 
ATOM     19  O91 GA3 d   1       5.332  22.570  36.184  0.00  0.00    -0.264 OA
ATOM     20  H   GA3 d   1       2.331  21.941  35.070  0.00  0.00     0.058 H 
ATOM     21  H   GA3 d   1       3.256  22.479  32.213  0.00  0.00     0.048 H 
ATOM     22  H   GA3 d   1      -0.594  22.382  32.971  0.00  0.00     0.041 H 
ATOM     23  H   GA3 d   1       0.344  23.503  31.926  0.00  0.00     0.041 H 
ATOM     24  H   GA3 d   1      -1.935  24.898  31.690  0.00  0.00     0.067 H 
ATOM     25  H   GA3 d   1      -2.342  25.938  33.209  0.00  0.00     0.067 H 
ATOM     26  H   GA3 d   1       0.896  23.688  36.144  0.00  0.00     0.039 H 
ATOM     27  H   GA3 d   1      -0.379  22.636  35.440  0.00  0.00     0.039 H 
ATOM     28  H   GA3 d   1       0.186  26.407  36.085  0.00  0.00     0.037 H 
ATOM     29  H   GA3 d   1      -0.024  26.780  34.341  0.00  0.00     0.037 H 
ATOM     30  H   GA3 d   1       2.237  25.383  35.766  0.00  0.00     0.033 H 
ATOM     31  H   GA3 d   1       2.283  26.622  34.467  0.00  0.00     0.033 H 
ATOM     32  H   GA3 d   1       1.743  25.039  32.794  0.00  0.00     0.046 H 
ATOM     33  H   GA3 d   1       4.278  25.800  32.467  0.00  0.00     0.081 H 
ATOM     34  H   GA3 d   1       6.552  24.834  32.681  0.00  0.00     0.080 H 
ATOM     35  H   GA3 d   1       6.777  22.490  33.399  0.00  0.00     0.091 H 
ENDROOT
BRANCH   1  36
ATOM     36  C7  GA3 d   1       1.451  20.874  33.471  0.00  0.00     0.178 C 
ATOM     37  O71 GA3 d   1       0.884  20.106  34.281  0.00  0.00    -0.648 OA
ATOM     38  O72 GA3 d   1       1.512  20.632  32.244  0.00  0.00    -0.648 OA
ENDBRANCH   1  36
BRANCH  17  39
ATOM     39  C18 GA3 d   1       4.801  20.556  33.916  0.00  0.00    -0.057 C 
ATOM     40  H   GA3 d   1       3.989  20.161  34.544  0.00  0.00     0.029 H 
ATOM     41  H   GA3 d   1       5.771  20.283  34.357  0.00  0.00     0.029 H 
ATOM     42  H   GA3 d   1       4.724  20.128  32.905  0.00  0.00     0.029 H 
ENDBRANCH  17  39
BRANCH  16  43
ATOM     43  O31 GA3 d   1       5.693  22.221  31.649  0.00  0.00    -0.390 OA
ATOM     44  H   GA3 d   1       5.772  21.275  31.672  0.00  0.00     0.210 HD
ENDBRANCH  16  43
BRANCH   7  45
ATOM     45  O13 GA3 d   1      -1.782  24.919  35.656  0.00  0.00    -0.385 OA
ATOM     46  H   GA3 d   1      -2.343  24.166  35.515  0.00  0.00     0.211 HD
ENDBRANCH   7  45
TORSDOF 4
