REMARK  12 active torsions:
REMARK  status: ('A' for Active; 'I' for Inactive)
REMARK    1  A    between atoms: CAB_1  and  OAP_2 
REMARK    2  A    between atoms: OAP_2  and  CAX_3 
REMARK    3  A    between atoms: CAU_4  and  OAE_6 
REMARK    4  A    between atoms: CAV_9  and  CBA_10 
REMARK    5  A    between atoms: CAZ_13  and  CAK_14 
REMARK    6  A    between atoms: CAK_14  and  CAJ_15 
REMARK    7  A    between atoms: CAJ_15  and  CAA_16 
REMARK    8  A    between atoms: CAY_17  and  CAL_18 
REMARK    9  A    between atoms: CAL_18  and  SAQ_19 
REMARK   10  A    between atoms: SAQ_19  and  C2_20 
REMARK   11  A    between atoms: C6_23  and  NAC_24 
REMARK   12  A    between atoms: C4_26  and  NAD_27 
ROOT
ATOM      1  CBA 2XL d   1     -32.766  12.281  -3.991  0.00  0.00     0.108 A 
ATOM      2  NAO 2XL d   1     -31.822  11.976  -3.102  0.00  0.00    -0.243 NA
ATOM      3  SAR 2XL d   1     -32.108  13.101  -5.114  0.00  0.00    -0.072 SA
ATOM      4  CAZ 2XL d   1     -30.678  13.153  -4.602  0.00  0.00     0.010 A 
ATOM      5  CAY 2XL d   1     -30.640  12.505  -3.444  0.00  0.00     0.058 A 
ENDROOT
BRANCH   5   6
ATOM      6  CAL 2XL d   1     -29.393  12.298  -2.631  0.00  0.00     0.025 C 
ATOM      7  H   2XL d   1     -29.640  12.299  -1.559  0.00  0.00     0.059 H 
ATOM      8  H   2XL d   1     -28.671  13.101  -2.841  0.00  0.00     0.059 H 
BRANCH   6   9
ATOM      9  SAQ 2XL d   1     -28.680  10.679  -3.105  0.00  0.00    -0.084 SA
BRANCH   9  10
ATOM     10  C2  2XL d   1     -27.016  11.049  -3.503  0.00  0.00     0.192 A 
ATOM     11  N3  2XL d   1     -26.197  10.025  -3.884  0.00  0.00    -0.206 NA
ATOM     12  C4  2XL d   1     -24.905  10.209  -4.190  0.00  0.00     0.127 A 
ATOM     13  C5  2XL d   1     -24.401  11.510  -4.088  0.00  0.00     0.005 A 
ATOM     14  C6  2XL d   1     -25.268  12.543  -3.705  0.00  0.00     0.127 A 
ATOM     15  H   2XL d   1     -23.358  11.716  -4.301  0.00  0.00     0.095 H 
ATOM     16  N1  2XL d   1     -26.570  12.297  -3.397  0.00  0.00    -0.206 NA
BRANCH  12  17
ATOM     17  NAD 2XL d   1     -24.123   9.160  -4.541  0.00  0.00    -0.384 N 
ATOM     18  H   2XL d   1     -23.131   9.312  -4.774  0.00  0.00     0.157 HD
ATOM     19  H   2XL d   1     -24.520   8.210  -4.575  0.00  0.00     0.157 HD
ENDBRANCH  12  17
BRANCH  14  20
ATOM     20  NAC 2XL d   1     -24.796  13.784  -3.624  0.00  0.00    -0.384 N 
ATOM     21  H   2XL d   1     -23.811  13.977  -3.856  0.00  0.00     0.157 HD
ATOM     22  H   2XL d   1     -25.415  14.552  -3.329  0.00  0.00     0.157 HD
ENDBRANCH  14  20
ENDBRANCH   9  10
ENDBRANCH   6   9
ENDBRANCH   5   6
BRANCH   4  23
ATOM     23  CAK 2XL d   1     -29.525  13.864  -5.335  0.00  0.00    -0.033 C 
ATOM     24  H   2XL d   1     -29.568  13.631  -6.409  0.00  0.00     0.041 H 
ATOM     25  H   2XL d   1     -28.561  13.528  -4.925  0.00  0.00     0.041 H 
BRANCH  23  26
ATOM     26  CAJ 2XL d   1     -29.675  15.351  -5.130  0.00  0.00    -0.064 C 
ATOM     27  H   2XL d   1     -30.735  15.598  -4.971  0.00  0.00     0.032 H 
ATOM     28  H   2XL d   1     -29.303  15.886  -6.016  0.00  0.00     0.032 H 
BRANCH  26  29
ATOM     29  CAA 2XL d   1     -28.852  15.767  -3.887  0.00  0.00    -0.076 C 
ATOM     30  H   2XL d   1     -28.953  16.851  -3.726  0.00  0.00     0.027 H 
ATOM     31  H   2XL d   1     -27.793  15.517  -4.048  0.00  0.00     0.027 H 
ATOM     32  H   2XL d   1     -29.225  15.229  -3.003  0.00  0.00     0.027 H 
ENDBRANCH  26  29
ENDBRANCH  23  26
ENDBRANCH   4  23
BRANCH   1  33
ATOM     33  CAV 2XL d   1     -34.051  11.934  -3.891  0.00  0.00     0.003 A 
ATOM     34  CAI 2XL d   1     -34.354  10.900  -3.034  0.00  0.00    -0.036 A 
ATOM     35  CAU 2XL d   1     -35.667  10.493  -2.865  0.00  0.00     0.099 A 
ATOM     36  H   2XL d   1     -33.561  10.402  -2.489  0.00  0.00     0.089 H 
ATOM     37  CAX 2XL d   1     -36.712  11.143  -3.540  0.00  0.00     0.101 A 
ATOM     38  CAG 2XL d   1     -36.426  12.216  -4.394  0.00  0.00    -0.047 A 
ATOM     39  CAF 2XL d   1     -35.093  12.614  -4.563  0.00  0.00    -0.068 A 
ATOM     40  H   2XL d   1     -37.224  12.731  -4.917  0.00  0.00     0.087 H 
ATOM     41  H   2XL d   1     -34.859  13.449  -5.213  0.00  0.00     0.085 H 
BRANCH  35  42
ATOM     42  OAE 2XL d   1     -35.943   9.477  -2.004  0.00  0.00    -0.358 OA
ATOM     43  H   2XL d   1     -36.879   9.315  -1.997  0.00  0.00     0.217 HD
ENDBRANCH  35  42
BRANCH  37  44
ATOM     44  OAP 2XL d   1     -37.986  10.679  -3.302  0.00  0.00    -0.353 OA
BRANCH  44  45
ATOM     45  CAB 2XL d   1     -38.903  10.787  -4.413  0.00  0.00     0.010 C 
ATOM     46  H   2XL d   1     -39.886  10.390  -4.117  0.00  0.00     0.066 H 
ATOM     47  H   2XL d   1     -38.516  10.209  -5.265  0.00  0.00     0.066 H 
ATOM     48  H   2XL d   1     -39.006  11.843  -4.702  0.00  0.00     0.066 H 
ENDBRANCH  44  45
ENDBRANCH  37  44
ENDBRANCH   1  33
TORSDOF 12
