REMARK  16 active torsions:
REMARK  status: ('A' for Active; 'I' for Inactive)
REMARK    1  A    between atoms: C2_2  and  N1_1 
REMARK    2  A    between atoms: S8_8  and  C5_5 
REMARK    3  A    between atoms: N11_11  and  S8_8 
REMARK    4  A    between atoms: N11_11  and  C12_12 
REMARK    5  A    between atoms: C16_16  and  N11_11 
REMARK    6  A    between atoms: C12_12  and  C13_13 
REMARK    7  A    between atoms: C13_13  and  C14_14 
REMARK    8  A    between atoms: C13_13  and  C15_15 
REMARK    9  A    between atoms: C17_17  and  C16_16 
REMARK   10  A    between atoms: C17_17  and  O18_18 
REMARK   11  A    between atoms: C19_19  and  C17_17 
REMARK   12  A    between atoms: C19_19  and  N20_20 
REMARK   13  A    between atoms: C32_32  and  C19_19 
REMARK       I    between atoms: N20_20  and  C21_21 
REMARK   14  A    between atoms: C21_21  and  O23_23 
REMARK   15  A    between atoms: O23_23  and  C24_24 
REMARK   16  A    between atoms: C38_38  and  C32_32 
ROOT
ATOM      1  C19 017 d   1      19.535  28.811  14.165  0.00  0.00     0.044 C 
ATOM      2  H20 017 d   1      19.421  29.709  13.539  0.00  0.00     0.077 H 
ENDROOT
BRANCH   1   3
ATOM      3  C17 017 d   1      19.898  29.257  15.584  0.00  0.00     0.067 C 
ATOM      4  H18 017 d   1      20.935  29.622  15.560  0.00  0.00     0.088 H 
BRANCH   3   5
ATOM      5  C16 017 d   1      19.037  30.405  16.098  0.00  0.00     0.019 C 
ATOM      6  H16 017 d   1      17.977  30.155  15.941  0.00  0.00     0.061 H 
ATOM      7  H17 017 d   1      19.227  30.541  17.173  0.00  0.00     0.061 H 
BRANCH   5   8
ATOM      8  N11 017 d   1      19.342  31.668  15.393  0.00  0.00    -0.204 NA
BRANCH   8   9
ATOM      9  S8  017 d   1      18.060  32.275  14.601  0.00  0.00     0.243 S 
ATOM     10  O9  017 d   1      17.387  31.172  13.976  0.00  0.00    -0.206 OA
ATOM     11  O10 017 d   1      18.604  33.218  13.667  0.00  0.00    -0.206 OA
BRANCH   9  12
ATOM     12  C5  017 d   1      16.995  33.006  15.593  0.00  0.00     0.074 A 
ATOM     13  C4  017 d   1      15.924  32.287  16.136  0.00  0.00    -0.059 A 
ATOM     14  C3  017 d   1      14.982  32.870  16.991  0.00  0.00    -0.056 A 
ATOM     15  H4  017 d   1      15.820  31.238  15.884  0.00  0.00     0.086 H 
ATOM     16  C2  017 d   1      15.140  34.197  17.364  0.00  0.00     0.025 A 
ATOM     17  H3  017 d   1      14.140  32.293  17.357  0.00  0.00     0.086 H 
ATOM     18  C7  017 d   1      16.198  34.932  16.831  0.00  0.00    -0.056 A 
ATOM     19  C6  017 d   1      17.128  34.335  15.976  0.00  0.00    -0.059 A 
ATOM     20  H6  017 d   1      16.301  35.981  17.083  0.00  0.00     0.086 H 
ATOM     21  H5  017 d   1      17.965  34.917  15.606  0.00  0.00     0.086 H 
BRANCH  16  22
ATOM     22  N1  017 d   1      14.259  34.787  18.209  0.00  0.00    -0.399 N 
ATOM     23  H1  017 d   1      13.478  34.242  18.602  0.00  0.00     0.156 HD
ATOM     24  H2  017 d   1      14.371  35.780  18.458  0.00  0.00     0.156 HD
ENDBRANCH  16  22
ENDBRANCH   9  12
ENDBRANCH   8   9
BRANCH   8  25
ATOM     25  C12 017 d   1      20.012  32.682  16.237  0.00  0.00    -0.004 C 
ATOM     26  H7  017 d   1      19.516  32.711  17.219  0.00  0.00     0.058 H 
ATOM     27  H8  017 d   1      19.922  33.665  15.751  0.00  0.00     0.058 H 
BRANCH  25  28
ATOM     28  C13 017 d   1      21.495  32.365  16.441  0.00  0.00    -0.049 C 
ATOM     29  H9  017 d   1      21.558  31.394  16.954  0.00  0.00     0.040 H 
BRANCH  28  30
ATOM     30  C14 017 d   1      22.242  32.255  15.113  0.00  0.00    -0.072 C 
ATOM     31  H10 017 d   1      23.301  32.027  15.306  0.00  0.00     0.028 H 
ATOM     32  H11 017 d   1      22.165  33.208  14.569  0.00  0.00     0.028 H 
ATOM     33  H12 017 d   1      21.798  31.451  14.508  0.00  0.00     0.028 H 
ENDBRANCH  28  30
BRANCH  28  34
ATOM     34  C15 017 d   1      22.199  33.405  17.304  0.00  0.00    -0.072 C 
ATOM     35  H13 017 d   1      21.675  33.498  18.266  0.00  0.00     0.028 H 
ATOM     36  H14 017 d   1      22.192  34.376  16.787  0.00  0.00     0.028 H 
ATOM     37  H15 017 d   1      23.238  33.091  17.482  0.00  0.00     0.028 H 
ENDBRANCH  28  34
ENDBRANCH  25  28
ENDBRANCH   8  25
ENDBRANCH   5   8
ENDBRANCH   3   5
BRANCH   3  38
ATOM     38  O18 017 d   1      19.855  28.113  16.462  0.00  0.00    -0.392 OA
ATOM     39  H19 017 d   1      20.175  28.362  17.321  0.00  0.00     0.210 HD
ENDBRANCH   3  38
ENDBRANCH   1   3
BRANCH   1  40
ATOM     40  N20 017 d   1      20.635  28.018  13.682  0.00  0.00    -0.329 N 
ATOM     41  C21 017 d   1      21.524  28.364  12.742  0.00  0.00     0.361 C 
ATOM     42  O22 017 d   1      21.599  29.404  12.117  0.00  0.00    -0.238 OA
ATOM     43  H21 017 d   1      20.747  27.113  14.092  0.00  0.00     0.165 HD
BRANCH  41  44
ATOM     44  O23 017 d   1      22.519  27.347  12.531  0.00  0.00    -0.296 OA
BRANCH  44  45
ATOM     45  C24 017 d   1      23.385  27.459  11.405  0.00  0.00     0.078 C 
ATOM     46  C25 017 d   1      24.709  26.909  11.894  0.00  0.00     0.048 C 
ATOM     47  O26 017 d   1      24.531  25.492  11.820  0.00  0.00    -0.358 OA
ATOM     48  H23 017 d   1      24.909  27.227  12.928  0.00  0.00     0.078 H 
ATOM     49  H24 017 d   1      25.534  27.236  11.244  0.00  0.00     0.078 H 
ATOM     50  C27 017 d   1      23.664  25.199  10.723  0.00  0.00     0.137 C 
ATOM     51  O28 017 d   1      22.644  24.271  11.072  0.00  0.00    -0.361 OA
ATOM     52  C31 017 d   1      22.980  26.492  10.315  0.00  0.00     0.023 C 
ATOM     53  H25 017 d   1      24.255  24.797   9.887  0.00  0.00     0.129 H 
ATOM     54  C29 017 d   1      21.352  24.887  11.062  0.00  0.00     0.023 C 
ATOM     55  C30 017 d   1      21.502  26.131  10.202  0.00  0.00    -0.035 C 
ATOM     56  H26 017 d   1      21.048  25.160  12.083  0.00  0.00     0.074 H 
ATOM     57  H27 017 d   1      20.605  24.207  10.627  0.00  0.00     0.074 H 
ATOM     58  H28 017 d   1      20.871  26.947  10.584  0.00  0.00     0.037 H 
ATOM     59  H29 017 d   1      21.232  25.917   9.157  0.00  0.00     0.037 H 
ATOM     60  H30 017 d   1      23.338  26.863   9.343  0.00  0.00     0.051 H 
ATOM     61  H22 017 d   1      23.449  28.494  11.037  0.00  0.00     0.088 H 
ENDBRANCH  44  45
ENDBRANCH  41  44
ENDBRANCH   1  40
BRANCH   1  62
ATOM     62  C32 017 d   1      18.258  27.987  14.043  0.00  0.00    -0.020 C 
ATOM     63  H31 017 d   1      17.406  28.571  14.421  0.00  0.00     0.043 H 
ATOM     64  H32 017 d   1      18.359  27.063  14.632  0.00  0.00     0.043 H 
BRANCH  62  65
ATOM     65  C38 017 d   1      18.023  27.634  12.578  0.00  0.00    -0.056 A 
ATOM     66  C33 017 d   1      17.694  28.601  11.643  0.00  0.00    -0.077 A 
ATOM     67  C34 017 d   1      17.488  28.254  10.301  0.00  0.00    -0.082 A 
ATOM     68  H33 017 d   1      17.595  29.635  11.952  0.00  0.00     0.084 H 
ATOM     69  C35 017 d   1      17.625  26.938   9.897  0.00  0.00    -0.083 A 
ATOM     70  H34 017 d   1      17.221  29.017   9.579  0.00  0.00     0.083 H 
ATOM     71  C36 017 d   1      17.963  25.973  10.815  0.00  0.00    -0.082 A 
ATOM     72  H35 017 d   1      17.466  26.669   8.859  0.00  0.00     0.083 H 
ATOM     73  C37 017 d   1      18.148  26.316  12.149  0.00  0.00    -0.077 A 
ATOM     74  H36 017 d   1      18.085  24.944  10.498  0.00  0.00     0.083 H 
ATOM     75  H37 017 d   1      18.394  25.543  12.868  0.00  0.00     0.084 H 
ENDBRANCH  62  65
ENDBRANCH   1  62
TORSDOF 16
