REMARK  16 active torsions:
REMARK  status: ('A' for Active; 'I' for Inactive)
REMARK    1  A    between atoms: C2_2  and  N1_1 
REMARK    2  A    between atoms: S8_8  and  C5_5 
REMARK    3  A    between atoms: N11_11  and  S8_8 
REMARK    4  A    between atoms: N11_11  and  C12_12 
REMARK    5  A    between atoms: C16_16  and  N11_11 
REMARK    6  A    between atoms: C12_12  and  C13_13 
REMARK    7  A    between atoms: C13_13  and  C14_14 
REMARK    8  A    between atoms: C13_13  and  C15_15 
REMARK    9  A    between atoms: C17_17  and  C16_16 
REMARK   10  A    between atoms: C17_17  and  O18_18 
REMARK   11  A    between atoms: C19_19  and  C17_17 
REMARK   12  A    between atoms: C19_19  and  N20_20 
REMARK   13  A    between atoms: C32_32  and  C19_19 
REMARK       I    between atoms: N20_20  and  C21_21 
REMARK   14  A    between atoms: C21_21  and  O23_23 
REMARK   15  A    between atoms: O23_23  and  C24_24 
REMARK   16  A    between atoms: C38_38  and  C32_32 
ROOT
ATOM      1  C19 017 d   1      19.559  29.216  14.178  0.00  0.00     0.044 C 
ATOM      2  H20 017 d   1      19.472  30.137  13.583  0.00  0.00     0.077 H 
ENDROOT
BRANCH   1   3
ATOM      3  C17 017 d   1      19.914  29.607  15.609  0.00  0.00     0.067 C 
ATOM      4  H18 017 d   1      20.955  29.962  15.602  0.00  0.00     0.088 H 
BRANCH   3   5
ATOM      5  C16 017 d   1      19.032  30.737  16.142  0.00  0.00     0.019 C 
ATOM      6  H16 017 d   1      17.974  30.469  16.001  0.00  0.00     0.061 H 
ATOM      7  H17 017 d   1      19.234  30.880  17.214  0.00  0.00     0.061 H 
BRANCH   5   8
ATOM      8  N11 017 d   1      19.316  31.986  15.424  0.00  0.00    -0.204 NA
BRANCH   8   9
ATOM      9  S8  017 d   1      18.045  32.582  14.616  0.00  0.00     0.243 S 
ATOM     10  O9  017 d   1      17.345  31.500  13.974  0.00  0.00    -0.206 OA
ATOM     11  O10 017 d   1      18.596  33.476  13.652  0.00  0.00    -0.206 OA
BRANCH   9  12
ATOM     12  C5  017 d   1      17.016  33.327  15.614  0.00  0.00     0.074 A 
ATOM     13  C4  017 d   1      17.181  34.647  16.048  0.00  0.00    -0.059 A 
ATOM     14  C3  017 d   1      16.271  35.234  16.931  0.00  0.00    -0.056 A 
ATOM     15  H4  017 d   1      18.028  35.223  15.694  0.00  0.00     0.086 H 
ATOM     16  C2  017 d   1      15.180  34.489  17.398  0.00  0.00     0.025 A 
ATOM     17  H3  017 d   1      16.408  36.260  17.253  0.00  0.00     0.086 H 
ATOM     18  C7  017 d   1      15.004  33.185  16.953  0.00  0.00    -0.056 A 
ATOM     19  C6  017 d   1      15.923  32.606  16.079  0.00  0.00    -0.059 A 
ATOM     20  H6  017 d   1      14.146  32.613  17.288  0.00  0.00     0.086 H 
ATOM     21  H5  017 d   1      15.783  31.580  15.758  0.00  0.00     0.086 H 
BRANCH  16  22
ATOM     22  N1  017 d   1      14.265  35.013  18.252  0.00  0.00    -0.399 N 
ATOM     23  H1  017 d   1      14.374  35.978  18.596  0.00  0.00     0.156 HD
ATOM     24  H2  017 d   1      13.461  34.446  18.557  0.00  0.00     0.156 HD
ENDBRANCH  16  22
ENDBRANCH   9  12
ENDBRANCH   8   9
BRANCH   8  25
ATOM     25  C12 017 d   1      19.995  32.995  16.278  0.00  0.00    -0.004 C 
ATOM     26  H7  017 d   1      19.541  32.981  17.280  0.00  0.00     0.058 H 
ATOM     27  H8  017 d   1      19.864  33.991  15.830  0.00  0.00     0.058 H 
BRANCH  25  28
ATOM     28  C13 017 d   1      21.491  32.697  16.404  0.00  0.00    -0.049 C 
ATOM     29  H9  017 d   1      21.600  31.714  16.886  0.00  0.00     0.040 H 
BRANCH  28  30
ATOM     30  C14 017 d   1      22.193  32.627  15.041  0.00  0.00    -0.072 C 
ATOM     31  H10 017 d   1      23.261  32.411  15.190  0.00  0.00     0.028 H 
ATOM     32  H11 017 d   1      22.082  33.590  14.522  0.00  0.00     0.028 H 
ATOM     33  H12 017 d   1      21.739  31.829  14.435  0.00  0.00     0.028 H 
ENDBRANCH  28  30
BRANCH  28  34
ATOM     34  C15 017 d   1      22.149  33.744  17.301  0.00  0.00    -0.072 C 
ATOM     35  H13 017 d   1      21.629  33.775  18.270  0.00  0.00     0.028 H 
ATOM     36  H14 017 d   1      22.087  34.731  16.819  0.00  0.00     0.028 H 
ATOM     37  H15 017 d   1      23.205  33.480  17.460  0.00  0.00     0.028 H 
ENDBRANCH  28  34
ENDBRANCH  25  28
ENDBRANCH   8  25
ENDBRANCH   5   8
ENDBRANCH   3   5
BRANCH   3  38
ATOM     38  O18 017 d   1      19.828  28.488  16.524  0.00  0.00    -0.392 OA
ATOM     39  H19 017 d   1      18.926  28.196  16.582  0.00  0.00     0.210 HD
ENDBRANCH   3  38
ENDBRANCH   1   3
BRANCH   1  40
ATOM     40  N20 017 d   1      20.667  28.420  13.674  0.00  0.00    -0.329 N 
ATOM     41  C21 017 d   1      21.523  28.810  12.734  0.00  0.00     0.361 C 
ATOM     42  O22 017 d   1      21.535  29.881  12.148  0.00  0.00    -0.238 OA
ATOM     43  H21 017 d   1      20.795  27.509  14.065  0.00  0.00     0.165 HD
BRANCH  41  44
ATOM     44  O23 017 d   1      22.497  27.788  12.451  0.00  0.00    -0.296 OA
BRANCH  44  45
ATOM     45  C24 017 d   1      23.355  27.843  11.315  0.00  0.00     0.078 C 
ATOM     46  C25 017 d   1      24.678  27.252  11.761  0.00  0.00     0.048 C 
ATOM     47  O26 017 d   1      24.500  25.835  11.661  0.00  0.00    -0.358 OA
ATOM     48  H23 017 d   1      24.901  27.542  12.798  0.00  0.00     0.078 H 
ATOM     49  H24 017 d   1      25.493  27.587  11.103  0.00  0.00     0.078 H 
ATOM     50  C27 017 d   1      23.551  25.583  10.617  0.00  0.00     0.137 C 
ATOM     51  O28 017 d   1      22.505  24.710  11.030  0.00  0.00    -0.361 OA
ATOM     52  C31 017 d   1      22.902  26.898  10.218  0.00  0.00     0.023 C 
ATOM     53  H25 017 d   1      24.074  25.143   9.755  0.00  0.00     0.129 H 
ATOM     54  C29 017 d   1      21.244  25.396  11.038  0.00  0.00     0.023 C 
ATOM     55  C30 017 d   1      21.404  26.608  10.132  0.00  0.00    -0.035 C 
ATOM     56  H26 017 d   1      20.992  25.716  12.060  0.00  0.00     0.074 H 
ATOM     57  H27 017 d   1      20.451  24.737  10.655  0.00  0.00     0.074 H 
ATOM     58  H28 017 d   1      20.814  27.460  10.501  0.00  0.00     0.037 H 
ATOM     59  H29 017 d   1      21.104  26.374   9.100  0.00  0.00     0.037 H 
ATOM     60  H30 017 d   1      23.259  27.259   9.242  0.00  0.00     0.051 H 
ATOM     61  H22 017 d   1      23.453  28.874  10.944  0.00  0.00     0.088 H 
ENDBRANCH  44  45
ENDBRANCH  41  44
ENDBRANCH   1  40
BRANCH   1  62
ATOM     62  C32 017 d   1      18.248  28.430  14.012  0.00  0.00    -0.020 C 
ATOM     63  H31 017 d   1      17.408  29.059  14.343  0.00  0.00     0.043 H 
ATOM     64  H32 017 d   1      18.293  27.522  14.632  0.00  0.00     0.043 H 
BRANCH  62  65
ATOM     65  C38 017 d   1      18.027  28.031  12.564  0.00  0.00    -0.056 A 
ATOM     66  C33 017 d   1      18.118  26.690  12.194  0.00  0.00    -0.077 A 
ATOM     67  C34 017 d   1      17.933  26.282  10.880  0.00  0.00    -0.082 A 
ATOM     68  H33 017 d   1      18.339  25.947  12.952  0.00  0.00     0.084 H 
ATOM     69  C35 017 d   1      17.648  27.225   9.912  0.00  0.00    -0.083 A 
ATOM     70  H34 017 d   1      18.012  25.233  10.616  0.00  0.00     0.083 H 
ATOM     71  C36 017 d   1      17.542  28.561  10.270  0.00  0.00    -0.082 A 
ATOM     72  H35 017 d   1      17.508  26.923   8.880  0.00  0.00     0.083 H 
ATOM     73  C37 017 d   1      17.733  28.974  11.588  0.00  0.00    -0.077 A 
ATOM     74  H36 017 d   1      17.306  29.298   9.511  0.00  0.00     0.083 H 
ATOM     75  H37 017 d   1      17.653  30.023  11.849  0.00  0.00     0.084 H 
ENDBRANCH  62  65
ENDBRANCH   1  62
TORSDOF 16
