REMARK  16 active torsions:
REMARK  status: ('A' for Active; 'I' for Inactive)
REMARK    1  A    between atoms: C2_2  and  N1_1 
REMARK    2  A    between atoms: S8_8  and  C5_5 
REMARK    3  A    between atoms: N11_11  and  S8_8 
REMARK    4  A    between atoms: N11_11  and  C12_12 
REMARK    5  A    between atoms: C16_16  and  N11_11 
REMARK    6  A    between atoms: C12_12  and  C13_13 
REMARK    7  A    between atoms: C13_13  and  C14_14 
REMARK    8  A    between atoms: C13_13  and  C15_15 
REMARK    9  A    between atoms: C17_17  and  C16_16 
REMARK   10  A    between atoms: C17_17  and  O18_18 
REMARK   11  A    between atoms: C19_19  and  C17_17 
REMARK   12  A    between atoms: C19_19  and  N20_20 
REMARK   13  A    between atoms: C32_32  and  C19_19 
REMARK       I    between atoms: N20_20  and  C21_21 
REMARK   14  A    between atoms: C21_21  and  O23_23 
REMARK   15  A    between atoms: O23_23  and  C24_24 
REMARK   16  A    between atoms: C38_38  and  C32_32 
ROOT
ATOM      1  C19 017 d   1      19.702  29.108  14.209  0.00  0.00     0.044 C 
ATOM      2  H20 017 d   1      19.610  30.006  13.581  0.00  0.00     0.077 H 
ENDROOT
BRANCH   1   3
ATOM      3  C17 017 d   1      20.052  29.562  15.624  0.00  0.00     0.071 C 
ATOM      4  H18 017 d   1      21.081  29.951  15.625  0.00  0.00     0.088 H 
BRANCH   3   5
ATOM      5  C16 017 d   1      19.118  30.668  16.133  0.00  0.00     0.031 C 
ATOM      6  H16 017 d   1      18.073  30.386  15.938  0.00  0.00     0.069 H 
ATOM      7  H17 017 d   1      19.265  30.806  17.214  0.00  0.00     0.069 H 
BRANCH   5   8
ATOM      8  N11 017 d   1      19.432  31.937  15.422  0.00  0.00    -0.304 N 
BRANCH   8   9
ATOM      9  S8  017 d   1      18.192  32.539  14.551  0.00  0.00     0.260 S 
ATOM     10  O9  017 d   1      17.511  31.458  13.934  0.00  0.00    -0.200 OA
ATOM     11  O10 017 d   1      18.845  33.487  13.692  0.00  0.00    -0.200 OA
BRANCH   9  12
ATOM     12  C5  017 d   1      17.103  33.292  15.510  0.00  0.00     0.079 A 
ATOM     13  C4  017 d   1      15.982  32.576  15.950  0.00  0.00    -0.058 A 
ATOM     14  C3  017 d   1      15.018  33.143  16.788  0.00  0.00    -0.056 A 
ATOM     15  H4  017 d   1      15.858  31.548  15.630  0.00  0.00     0.086 H 
ATOM     16  C2  017 d   1      15.189  34.452  17.207  0.00  0.00     0.025 A 
ATOM     17  H3  017 d   1      14.154  32.570  17.104  0.00  0.00     0.086 H 
ATOM     18  C7  017 d   1      16.282  35.202  16.777  0.00  0.00    -0.056 A 
ATOM     19  C6  017 d   1      17.258  34.615  15.927  0.00  0.00    -0.058 A 
ATOM     20  H6  017 d   1      16.388  36.234  17.091  0.00  0.00     0.086 H 
ATOM     21  H5  017 d   1      18.118  35.191  15.604  0.00  0.00     0.086 H 
BRANCH  16  22
ATOM     22  N1  017 d   1      14.242  34.995  18.024  0.00  0.00    -0.399 N 
ATOM     23  H1  017 d   1      13.441  34.426  18.332  0.00  0.00     0.156 HD
ATOM     24  H2  017 d   1      14.328  35.974  18.333  0.00  0.00     0.156 HD
ENDBRANCH  16  22
ENDBRANCH   9  12
ENDBRANCH   8   9
BRANCH   8  25
ATOM     25  C12 017 d   1      20.219  32.913  16.225  0.00  0.00     0.008 C 
ATOM     26  H7  017 d   1      19.814  32.941  17.247  0.00  0.00     0.066 H 
ATOM     27  H8  017 d   1      20.125  33.908  15.767  0.00  0.00     0.066 H 
BRANCH  25  28
ATOM     28  C13 017 d   1      21.698  32.536  16.289  0.00  0.00    -0.045 C 
ATOM     29  H9  017 d   1      21.797  31.522  16.703  0.00  0.00     0.041 H 
BRANCH  28  30
ATOM     30  C14 017 d   1      22.393  33.533  17.217  0.00  0.00    -0.072 C 
ATOM     31  H10 017 d   1      23.463  33.287  17.284  0.00  0.00     0.028 H 
ATOM     32  H11 017 d   1      21.941  33.478  18.218  0.00  0.00     0.028 H 
ATOM     33  H12 017 d   1      22.275  34.551  16.816  0.00  0.00     0.028 H 
ENDBRANCH  28  30
BRANCH  28  34
ATOM     34  C15 017 d   1      22.329  32.562  14.900  0.00  0.00    -0.072 C 
ATOM     35  H13 017 d   1      21.815  31.839  14.250  0.00  0.00     0.028 H 
ATOM     36  H14 017 d   1      23.393  32.295  14.976  0.00  0.00     0.028 H 
ATOM     37  H15 017 d   1      22.234  33.571  14.473  0.00  0.00     0.028 H 
ENDBRANCH  28  34
ENDBRANCH  25  28
ENDBRANCH   8  25
ENDBRANCH   5   8
ENDBRANCH   3   5
BRANCH   3  38
ATOM     38  O18 017 d   1      19.979  28.406  16.498  0.00  0.00    -0.392 OA
ATOM     39  H19 017 d   1      19.087  28.079  16.514  0.00  0.00     0.210 HD
ENDBRANCH   3  38
ENDBRANCH   1   3
BRANCH   1  40
ATOM     40  N20 017 d   1      20.805  28.291  13.728  0.00  0.00    -0.329 N 
ATOM     41  C21 017 d   1      21.690  28.661  12.827  0.00  0.00     0.361 C 
ATOM     42  O22 017 d   1      21.776  29.698  12.224  0.00  0.00    -0.238 OA
ATOM     43  H21 017 d   1      20.898  27.373  14.114  0.00  0.00     0.165 HD
BRANCH  41  44
ATOM     44  O23 017 d   1      22.659  27.652  12.616  0.00  0.00    -0.296 OA
BRANCH  44  45
ATOM     45  C24 017 d   1      23.495  27.818  11.468  0.00  0.00     0.078 C 
ATOM     46  C25 017 d   1      24.821  27.200  11.846  0.00  0.00     0.048 C 
ATOM     47  O26 017 d   1      24.577  25.807  11.741  0.00  0.00    -0.358 OA
ATOM     48  H23 017 d   1      25.104  27.474  12.873  0.00  0.00     0.078 H 
ATOM     49  H24 017 d   1      25.614  27.514  11.151  0.00  0.00     0.078 H 
ATOM     50  C27 017 d   1      23.688  25.580  10.659  0.00  0.00     0.137 C 
ATOM     51  O28 017 d   1      22.677  24.686  11.072  0.00  0.00    -0.361 OA
ATOM     52  C31 017 d   1      23.010  26.911  10.357  0.00  0.00     0.023 C 
ATOM     53  H25 017 d   1      24.224  25.192   9.780  0.00  0.00     0.129 H 
ATOM     54  C29 017 d   1      21.402  25.342  11.158  0.00  0.00     0.023 C 
ATOM     55  C30 017 d   1      21.522  26.595  10.295  0.00  0.00    -0.035 C 
ATOM     56  H26 017 d   1      21.180  25.614  12.200  0.00  0.00     0.074 H 
ATOM     57  H27 017 d   1      20.607  24.686  10.773  0.00  0.00     0.074 H 
ATOM     58  H28 017 d   1      20.925  27.420  10.710  0.00  0.00     0.037 H 
ATOM     59  H29 017 d   1      21.203  26.395   9.261  0.00  0.00     0.037 H 
ATOM     60  H30 017 d   1      23.328  27.323   9.388  0.00  0.00     0.051 H 
ATOM     61  H22 017 d   1      23.571  28.870  11.156  0.00  0.00     0.088 H 
ENDBRANCH  44  45
ENDBRANCH  41  44
ENDBRANCH   1  40
BRANCH   1  62
ATOM     62  C32 017 d   1      18.418  28.303  14.058  0.00  0.00    -0.020 C 
ATOM     63  H31 017 d   1      17.572  28.911  14.412  0.00  0.00     0.043 H 
ATOM     64  H32 017 d   1      18.495  27.391  14.668  0.00  0.00     0.043 H 
BRANCH  62  65
ATOM     65  C38 017 d   1      18.169  27.907  12.605  0.00  0.00    -0.056 A 
ATOM     66  C33 017 d   1      17.885  28.848  11.630  0.00  0.00    -0.077 A 
ATOM     67  C34 017 d   1      17.675  28.469  10.310  0.00  0.00    -0.082 A 
ATOM     68  H33 017 d   1      17.826  29.896  11.900  0.00  0.00     0.084 H 
ATOM     69  C35 017 d   1      17.720  27.133   9.954  0.00  0.00    -0.083 A 
ATOM     70  H34 017 d   1      17.475  29.223   9.557  0.00  0.00     0.083 H 
ATOM     71  C36 017 d   1      17.997  26.189  10.931  0.00  0.00    -0.082 A 
ATOM     72  H35 017 d   1      17.542  26.829   8.929  0.00  0.00     0.083 H 
ATOM     73  C37 017 d   1      18.193  26.576  12.260  0.00  0.00    -0.077 A 
ATOM     74  H36 017 d   1      18.062  25.141  10.662  0.00  0.00     0.083 H 
ATOM     75  H37 017 d   1      18.365  25.824  13.022  0.00  0.00     0.084 H 
ENDBRANCH  62  65
ENDBRANCH   1  62
TORSDOF 16
