REMARK  7 active torsions:
REMARK  status: ('A' for Active; 'I' for Inactive)
REMARK    1  A    between atoms: N_1  and  CA_2 
REMARK    2  A    between atoms: CA_2  and  C_3 
REMARK    3  A    between atoms: CA_2  and  CB_5 
REMARK    4  A    between atoms: CB_5  and  CG_6 
REMARK    5  A    between atoms: CG_6  and  CD_7 
REMARK    6  A    between atoms: CD_7  and  NE_8 
REMARK       I    between atoms: NE_8  and  CZ_9 
REMARK       I    between atoms: CZ_9  and  NH1_10 
REMARK    7  A    between atoms: NH1_10  and  OH1_12 
ROOT
ATOM      1  CG  HAR d   1     -42.002 -18.885  49.434  0.00  0.00    -0.047 C 
ATOM      2  H   HAR d   1     -41.154 -18.607  50.078  0.00  0.00     0.035 H 
ATOM      3  H   HAR d   1     -42.259 -18.039  48.780  0.00  0.00     0.035 H 
ENDROOT
BRANCH   1   4
ATOM      4  CB  HAR d   1     -43.197 -19.278  50.279  0.00  0.00    -0.028 C 
ATOM      5  H   HAR d   1     -44.073 -19.370  49.620  0.00  0.00     0.036 H 
ATOM      6  H   HAR d   1     -42.986 -20.251  50.747  0.00  0.00     0.036 H 
BRANCH   4   7
ATOM      7  CA  HAR d   1     -43.532 -18.265  51.393  0.00  0.00     0.182 C 
ATOM      8  H   HAR d   1     -44.016 -18.833  52.202  0.00  0.00     0.101 H 
BRANCH   7   9
ATOM      9  N   HAR d   1     -44.458 -17.202  51.033  0.00  0.00    -0.065 N 
ATOM     10  H   HAR d   1     -45.309 -17.605  50.674  0.00  0.00     0.275 HD
ATOM     11  H   HAR d   1     -44.040 -16.617  50.327  0.00  0.00     0.275 HD
ATOM     12  H   HAR d   1     -44.666 -16.648  51.849  0.00  0.00     0.275 HD
ENDBRANCH   7   9
BRANCH   7  13
ATOM     13  C   HAR d   1     -42.222 -17.696  51.944  0.00  0.00     0.204 C 
ATOM     14  O   HAR d   1     -42.269 -16.339  52.080  0.00  0.00    -0.646 OA
ATOM     15  OXT HAR d   1     -41.173 -18.274  52.287  0.00  0.00    -0.646 OA
ENDBRANCH   7  13
ENDBRANCH   4   7
ENDBRANCH   1   4
BRANCH   1  16
ATOM     16  CD  HAR d   1     -41.650 -20.117  48.595  0.00  0.00     0.009 C 
ATOM     17  H   HAR d   1     -42.407 -20.220  47.803  0.00  0.00     0.064 H 
ATOM     18  H   HAR d   1     -41.684 -20.999  49.251  0.00  0.00     0.064 H 
BRANCH  16  19
ATOM     19  NE  HAR d   1     -40.342 -20.070  47.967  0.00  0.00    -0.225 N 
ATOM     20  CZ  HAR d   1     -40.169 -20.121  46.544  0.00  0.00     0.691 C 
ATOM     21  NH1 HAR d   1     -41.484 -20.184  45.832  0.00  0.00    -0.099 N 
ATOM     22  NH2 HAR d   1     -38.978 -20.097  45.986  0.00  0.00    -0.233 N 
ATOM     23  H   HAR d   1     -42.350 -20.188  46.389  0.00  0.00     0.213 HD
ATOM     24  H   HAR d   1     -38.134 -20.053  46.575  0.00  0.00     0.174 HD
ATOM     25  H   HAR d   1     -38.889 -20.122  44.960  0.00  0.00     0.174 HD
ATOM     26  H   HAR d   1     -39.507 -19.997  48.566  0.00  0.00     0.177 HD
BRANCH  21  27
ATOM     27  OH1 HAR d   1     -41.574 -20.235  44.502  0.00  0.00    -0.276 OA
ATOM     28  H   HAR d   1     -41.170 -19.460  44.129  0.00  0.00     0.245 HD
ENDBRANCH  21  27
ENDBRANCH  16  19
ENDBRANCH   1  16
TORSDOF 7
