REMARK  6 active torsions:
REMARK  status: ('A' for Active; 'I' for Inactive)
REMARK    1  A    between atoms: N_1  and  CA_2 
REMARK    2  A    between atoms: CA_2  and  C_3 
REMARK    3  A    between atoms: CA_2  and  CB_5 
REMARK    4  A    between atoms: CB_5  and  CG_6 
REMARK    5  A    between atoms: CG_6  and  ND_7 
REMARK       I    between atoms: ND_7  and  CE_8 
REMARK       I    between atoms: CE_8  and  NH1_9 
REMARK    6  A    between atoms: NH1_9  and  OH1_11 
ROOT
ATOM      1  CG  NNH d   1     -42.187  19.202  39.846  0.00  0.00     0.011 C 
ATOM      2  H   NNH d   1     -41.393  18.473  39.628  0.00  0.00     0.065 H 
ATOM      3  H   NNH d   1     -42.857  18.794  40.617  0.00  0.00     0.065 H 
ENDROOT
BRANCH   1   4
ATOM      4  CB  NNH d   1     -42.975  19.521  38.576  0.00  0.00    -0.014 C 
ATOM      5  H   NNH d   1     -43.787  20.219  38.828  0.00  0.00     0.039 H 
ATOM      6  H   NNH d   1     -42.299  19.992  37.848  0.00  0.00     0.039 H 
BRANCH   4   7
ATOM      7  CA  NNH d   1     -43.584  18.262  37.943  0.00  0.00     0.184 C 
ATOM      8  H   NNH d   1     -44.257  18.583  37.135  0.00  0.00     0.101 H 
BRANCH   7   9
ATOM      9  N   NNH d   1     -44.365  17.428  38.828  0.00  0.00    -0.065 N 
ATOM     10  H   NNH d   1     -45.125  17.966  39.213  0.00  0.00     0.275 HD
ATOM     11  H   NNH d   1     -43.779  17.091  39.576  0.00  0.00     0.275 HD
ATOM     12  H   NNH d   1     -44.735  16.645  38.312  0.00  0.00     0.275 HD
ENDBRANCH   7   9
BRANCH   7  13
ATOM     13  C   NNH d   1     -42.415  17.494  37.330  0.00  0.00     0.204 C 
ATOM     14  O   NNH d   1     -41.477  18.285  36.742  0.00  0.00    -0.646 OA
ATOM     15  OXT NNH d   1     -42.212  16.284  37.282  0.00  0.00    -0.646 OA
ENDBRANCH   7  13
ENDBRANCH   4   7
ENDBRANCH   1   4
BRANCH   1  16
ATOM     16  ND  NNH d   1     -41.610  20.452  40.294  0.00  0.00    -0.225 N 
ATOM     17  CE  NNH d   1     -41.382  20.883  41.645  0.00  0.00     0.691 C 
ATOM     18  NH1 NNH d   1     -41.773  19.915  42.700  0.00  0.00    -0.099 N 
ATOM     19  NH2 NNH d   1     -40.859  22.049  41.881  0.00  0.00    -0.233 N 
ATOM     20  H   NNH d   1     -42.178  19.007  42.431  0.00  0.00     0.213 HD
ATOM     21  H   NNH d   1     -40.612  22.671  41.098  0.00  0.00     0.174 HD
ATOM     22  H   NNH d   1     -40.692  22.352  42.851  0.00  0.00     0.174 HD
ATOM     23  H   NNH d   1     -41.329  21.112  39.555  0.00  0.00     0.177 HD
BRANCH  18  24
ATOM     24  OH1 NNH d   1     -41.607  20.205  43.999  0.00  0.00    -0.276 OA
ATOM     25  H   NNH d   1     -41.910  19.475  44.526  0.00  0.00     0.245 HD
ENDBRANCH  18  24
ENDBRANCH   1  16
TORSDOF 6
