REMARK  8 active torsions:
REMARK  status: ('A' for Active; 'I' for Inactive)
REMARK    1  A    between atoms: PB_1  and  O3A_5 
REMARK    2  A    between atoms: O3A_5  and  PA_6 
REMARK    3  A    between atoms: PA_6  and  O5'_9 
REMARK    4  A    between atoms: O5'_9  and  C5'_10 
REMARK    5  A    between atoms: C5'_10  and  C4'_11 
REMARK    6  A    between atoms: C3'_13  and  O3'_14 
REMARK    7  A    between atoms: C2'_15  and  O2'_16 
REMARK    8  A    between atoms: C1'_17  and  N9_18 
ROOT
ATOM      1  C4' GDP d   1      23.579   2.441   2.332  0.00  0.00     0.089 C 
ATOM      2  O4' GDP d   1      23.693   1.537   1.218  0.00  0.00    -0.353 OA
ATOM      3  C3' GDP d   1      22.156   2.285   2.817  0.00  0.00     0.091 C 
ATOM      4  C2' GDP d   1      21.769   0.865   2.278  0.00  0.00     0.105 C 
ATOM      5  C1' GDP d   1      22.429   0.971   0.882  0.00  0.00     0.139 C 
ATOM      6  H3  GDP d   1      23.778   3.483   2.043  0.00  0.00     0.090 H 
ATOM      7  H4  GDP d   1      22.081   2.317   3.914  0.00  0.00     0.091 H 
ATOM      8  H6  GDP d   1      22.155   0.045   2.901  0.00  0.00     0.093 H 
ATOM      9  H8  GDP d   1      21.838   1.588   0.189  0.00  0.00     0.122 H 
ENDROOT
BRANCH   5  10
ATOM     10  N9  GDP d   1      22.736  -0.349   0.297  0.00  0.00    -0.295 N 
ATOM     11  C8  GDP d   1      23.113  -1.553   0.905  0.00  0.00     0.071 A 
ATOM     12  N7  GDP d   1      23.337  -2.465  -0.106  0.00  0.00    -0.234 NA
ATOM     13  H9  GDP d   1      23.211  -1.735   1.974  0.00  0.00     0.144 H 
ATOM     14  C5  GDP d   1      23.150  -1.836  -1.312  0.00  0.00     0.171 A 
ATOM     15  C6  GDP d   1      23.280  -2.245  -2.729  0.00  0.00     0.292 A 
ATOM     16  C4  GDP d   1      22.770  -0.469  -1.045  0.00  0.00     0.161 A 
ATOM     17  O6  GDP d   1      23.618  -3.437  -3.000  0.00  0.00    -0.265 OA
ATOM     18  N1  GDP d   1      23.042  -1.306  -3.668  0.00  0.00    -0.154 N 
ATOM     19  C2  GDP d   1      22.668  -0.017  -3.378  0.00  0.00     0.680 A 
ATOM     20  H10 GDP d   1      23.144  -1.563  -4.629  0.00  0.00     0.187 HD
ATOM     21  N2  GDP d   1      22.422   0.878  -4.364  0.00  0.00    -0.234 N 
ATOM     22  N3  GDP d   1      22.520   0.425  -2.076  0.00  0.00    -0.174 N 
ATOM     23  H11 GDP d   1      22.142   1.841  -4.128  0.00  0.00     0.174 HD
ATOM     24  H12 GDP d   1      22.515   0.596  -5.350  0.00  0.00     0.174 HD
ATOM     25  H13 GDP d   1      22.231   1.393  -1.877  0.00  0.00     0.186 HD
ENDBRANCH   5  10
BRANCH   4  26
ATOM     26  O2' GDP d   1      20.370   0.742   2.060  0.00  0.00    -0.388 OA
ATOM     27  H7  GDP d   1      19.909   0.885   2.878  0.00  0.00     0.210 HD
ENDBRANCH   4  26
BRANCH   1  28
ATOM     28  C5' GDP d   1      24.626   1.955   3.368  0.00  0.00     0.058 C 
ATOM     29  H1  GDP d   1      24.300   1.008   3.822  0.00  0.00     0.079 H 
ATOM     30  H2  GDP d   1      25.603   1.812   2.883  0.00  0.00     0.079 H 
BRANCH  28  31
ATOM     31  O5' GDP d   1      24.715   2.979   4.368  0.00  0.00    -0.287 OA
BRANCH  31  32
ATOM     32  PA  GDP d   1      25.444   2.723   5.760  0.00  0.00     0.418 P 
ATOM     33  O1A GDP d   1      25.401   4.065   6.469  0.00  0.00    -0.624 OA
ATOM     34  O2A GDP d   1      24.661   1.619   6.359  0.00  0.00    -0.624 OA
BRANCH  32  35
ATOM     35  O3A GDP d   1      26.844   2.128   5.453  0.00  0.00    -0.173 OA
BRANCH  35  36
ATOM     36  PB  GDP d   1      28.236   2.764   4.984  0.00  0.00     0.431 P 
ATOM     37  O1B GDP d   1      28.653   3.805   5.972  0.00  0.00    -0.616 OA
ATOM     38  O2B GDP d   1      29.095   1.535   5.154  0.00  0.00    -0.616 OA
ATOM     39  O3B GDP d   1      28.287   3.373   3.643  0.00  0.00    -0.616 OA
ENDBRANCH  35  36
ENDBRANCH  32  35
ENDBRANCH  31  32
ENDBRANCH  28  31
ENDBRANCH   1  28
BRANCH   3  40
ATOM     40  O3' GDP d   1      21.394   3.394   2.231  0.00  0.00    -0.390 OA
ATOM     41  H5  GDP d   1      20.488   3.337   2.510  0.00  0.00     0.210 HD
ENDBRANCH   3  40
TORSDOF 8
