REMARK  5 active torsions:
REMARK  status: ('A' for Active; 'I' for Inactive)
REMARK    1  A    between atoms: C_7  and  N_8 
REMARK    2  A    between atoms: C5_14  and  N3_16 
REMARK    3  A    between atoms: N3_16  and  C6_17 
REMARK    4  A    between atoms: C6_17  and  C7_18 
REMARK    5  A    between atoms: C7_18  and  N4_19 
ROOT
ATOM      1  N3  2YM d   1     108.087  18.951  16.628  0.00  0.00    -0.223 N 
ATOM      2  H   2YM d   1     109.042  19.321  16.515  0.00  0.00     0.177 HD
ENDROOT
BRANCH   1   3
ATOM      3  C5  2YM d   1     107.688  18.565  17.840  0.00  0.00     0.701 A 
ATOM      4  N5  2YM d   1     106.500  18.079  18.151  0.00  0.00    -0.188 N 
ATOM      5  C13 2YM d   1     106.552  17.887  19.531  0.00  0.00     0.081 A 
ATOM      6  H   2YM d   1     105.712  17.885  17.517  0.00  0.00     0.184 HD
ATOM      7  C14 2YM d   1     105.576  17.441  20.423  0.00  0.00    -0.027 A 
ATOM      8  C4  2YM d   1     107.802  18.278  20.013  0.00  0.00     0.104 A 
ATOM      9  C15 2YM d   1     105.847  17.426  21.798  0.00  0.00     0.067 A 
ATOM     10  H   2YM d   1     104.613  17.108  20.054  0.00  0.00     0.090 H 
ATOM     11  C2  2YM d   1     107.109  17.846  22.271  0.00  0.00     0.062 A 
ATOM     12  N6  2YM d   1     104.848  17.092  22.708  0.00  0.00    -0.191 N 
ATOM     13  C1  2YM d   1     107.319  17.975  23.715  0.00  0.00     0.272 A 
ATOM     14  C3  2YM d   1     108.078  18.258  21.363  0.00  0.00    -0.035 A 
ATOM     15  O   2YM d   1     108.385  18.352  24.194  0.00  0.00    -0.267 OA
ATOM     16  N1  2YM d   1     106.220  17.652  24.499  0.00  0.00    -0.156 N 
ATOM     17  C   2YM d   1     105.035  17.214  24.036  0.00  0.00     0.679 A 
ATOM     18  H   2YM d   1     106.317  17.753  25.489  0.00  0.00     0.187 HD
ATOM     19  H   2YM d   1     109.055  18.565  21.719  0.00  0.00     0.088 H 
ATOM     20  H   2YM d   1     103.945  16.743  22.357  0.00  0.00     0.184 HD
ATOM     21  N2  2YM d   1     108.518  18.687  18.902  0.00  0.00    -0.063 NA
BRANCH  17  22
ATOM     22  N   2YM d   1     104.070  16.886  24.874  0.00  0.00    -0.234 N 
ATOM     23  H   2YM d   1     104.216  16.980  25.889  0.00  0.00     0.174 HD
ATOM     24  H   2YM d   1     103.171  16.536  24.513  0.00  0.00     0.174 HD
ENDBRANCH  17  22
ENDBRANCH   1   3
BRANCH   1  25
ATOM     25  C6  2YM d   1     107.225  18.870  15.459  0.00  0.00     0.032 C 
ATOM     26  H   2YM d   1     106.444  19.640  15.543  0.00  0.00     0.067 H 
ATOM     27  H   2YM d   1     106.757  17.875  15.435  0.00  0.00     0.067 H 
BRANCH  25  28
ATOM     28  C7  2YM d   1     107.978  19.083  14.164  0.00  0.00     0.098 C 
ATOM     29  H   2YM d   1     108.704  18.266  14.042  0.00  0.00     0.078 H 
ATOM     30  H   2YM d   1     108.512  20.043  14.223  0.00  0.00     0.078 H 
BRANCH  28  31
ATOM     31  N4  2YM d   1     107.081  19.108  12.963  0.00  0.00    -0.070 N 
ATOM     32  C12 2YM d   1     107.821  18.713  11.727  0.00  0.00     0.084 C 
ATOM     33  C11 2YM d   1     106.891  18.658  10.539  0.00  0.00    -0.042 C 
ATOM     34  H   2YM d   1     108.272  17.721  11.878  0.00  0.00     0.076 H 
ATOM     35  H   2YM d   1     108.614  19.450  11.530  0.00  0.00     0.076 H 
ATOM     36  C10 2YM d   1     106.198  19.988  10.323  0.00  0.00    -0.062 C 
ATOM     37  H   2YM d   1     106.131  17.882  10.714  0.00  0.00     0.035 H 
ATOM     38  H   2YM d   1     107.472  18.406   9.640  0.00  0.00     0.035 H 
ATOM     39  C9  2YM d   1     105.504  20.445  11.594  0.00  0.00    -0.042 C 
ATOM     40  H   2YM d   1     105.451  19.880   9.523  0.00  0.00     0.033 H 
ATOM     41  H   2YM d   1     106.945  20.741  10.029  0.00  0.00     0.033 H 
ATOM     42  C8  2YM d   1     106.451  20.451  12.774  0.00  0.00     0.084 C 
ATOM     43  H   2YM d   1     104.669  19.762  11.810  0.00  0.00     0.035 H 
ATOM     44  H   2YM d   1     105.116  21.463  11.443  0.00  0.00     0.035 H 
ATOM     45  H   2YM d   1     107.240  21.197  12.598  0.00  0.00     0.076 H 
ATOM     46  H   2YM d   1     105.891  20.717  13.683  0.00  0.00     0.076 H 
ATOM     47  H   2YM d   1     106.344  18.437  13.115  0.00  0.00     0.279 HD
ENDBRANCH  28  31
ENDBRANCH  25  28
ENDBRANCH   1  25
TORSDOF 5
