REMARK  4 active torsions:
REMARK  status: ('A' for Active; 'I' for Inactive)
REMARK    1  A    between atoms: C5_13  and  N3_15 
REMARK    2  A    between atoms: N3_15  and  C6_16 
REMARK    3  A    between atoms: C6_16  and  C7_17 
REMARK    4  A    between atoms: C7_17  and  N4_18 
ROOT
ATOM      1  C6  2YO d   1     107.721  18.992  15.408  0.00  0.00     0.032 C 
ATOM      2  H   2YO d   1     107.014  19.829  15.502  0.00  0.00     0.067 H 
ATOM      3  H   2YO d   1     107.167  18.042  15.412  0.00  0.00     0.067 H 
ENDROOT
BRANCH   1   4
ATOM      4  N3  2YO d   1     108.621  19.012  16.547  0.00  0.00    -0.223 N 
ATOM      5  H   2YO d   1     109.607  19.270  16.397  0.00  0.00     0.177 HD
BRANCH   4   6
ATOM      6  C5  2YO d   1     108.215  18.707  17.782  0.00  0.00     0.701 A 
ATOM      7  N5  2YO d   1     106.999  18.316  18.124  0.00  0.00    -0.188 N 
ATOM      8  C13 2YO d   1     107.075  18.125  19.502  0.00  0.00     0.081 A 
ATOM      9  H   2YO d   1     106.182  18.183  17.511  0.00  0.00     0.184 HD
ATOM     10  C14 2YO d   1     106.095  17.745  20.423  0.00  0.00    -0.028 A 
ATOM     11  C4  2YO d   1     108.361  18.424  19.950  0.00  0.00     0.104 A 
ATOM     12  C15 2YO d   1     106.402  17.700  21.787  0.00  0.00     0.051 A 
ATOM     13  H   2YO d   1     105.100  17.486  20.081  0.00  0.00     0.090 H 
ATOM     14  C2  2YO d   1     107.699  18.035  22.228  0.00  0.00     0.063 A 
ATOM     15  N6  2YO d   1     105.417  17.391  22.721  0.00  0.00    -0.350 N 
ATOM     16  C1  2YO d   1     107.963  18.105  23.667  0.00  0.00     0.280 A 
ATOM     17  C3  2YO d   1     108.671  18.381  21.292  0.00  0.00    -0.035 A 
ATOM     18  O   2YO d   1     109.046  18.454  24.130  0.00  0.00    -0.265 OA
ATOM     19  N1  2YO d   1     106.883  17.785  24.480  0.00  0.00    -0.205 NA
ATOM     20  C   2YO d   1     105.660  17.437  24.043  0.00  0.00     0.068 A 
ATOM     21  H   2YO d   1     104.872  17.194  24.754  0.00  0.00     0.143 H 
ATOM     22  H   2YO d   1     109.676  18.618  21.621  0.00  0.00     0.088 H 
ATOM     23  H   2YO d   1     104.479  17.121  22.392  0.00  0.00     0.166 HD
ATOM     24  N2  2YO d   1     109.075  18.780  18.822  0.00  0.00    -0.063 NA
ENDBRANCH   4   6
ENDBRANCH   1   4
BRANCH   1  25
ATOM     25  C7  2YO d   1     108.455  19.121  14.092  0.00  0.00     0.098 C 
ATOM     26  H   2YO d   1     109.167  18.287  14.004  0.00  0.00     0.078 H 
ATOM     27  H   2YO d   1     109.004  20.074  14.089  0.00  0.00     0.078 H 
BRANCH  25  28
ATOM     28  N4  2YO d   1     107.539  19.094  12.908  0.00  0.00    -0.070 N 
ATOM     29  C12 2YO d   1     108.286  18.764  11.658  0.00  0.00     0.084 C 
ATOM     30  C11 2YO d   1     107.344  18.661  10.483  0.00  0.00    -0.042 C 
ATOM     31  H   2YO d   1     108.804  17.803  11.790  0.00  0.00     0.076 H 
ATOM     32  H   2YO d   1     109.025  19.555  11.460  0.00  0.00     0.076 H 
ATOM     33  C10 2YO d   1     106.557  19.942  10.296  0.00  0.00    -0.062 C 
ATOM     34  H   2YO d   1     106.643  17.832  10.657  0.00  0.00     0.035 H 
ATOM     35  H   2YO d   1     107.927  18.462   9.572  0.00  0.00     0.035 H 
ATOM     36  C9  2YO d   1     105.854  20.332  11.581  0.00  0.00    -0.042 C 
ATOM     37  H   2YO d   1     105.807  19.793   9.505  0.00  0.00     0.033 H 
ATOM     38  H   2YO d   1     107.245  20.748  10.002  0.00  0.00     0.033 H 
ATOM     39  C8  2YO d   1     106.818  20.393  12.745  0.00  0.00     0.084 C 
ATOM     40  H   2YO d   1     105.074  19.588  11.802  0.00  0.00     0.035 H 
ATOM     41  H   2YO d   1     105.391  21.321  11.449  0.00  0.00     0.035 H 
ATOM     42  H   2YO d   1     107.552  21.192  12.563  0.00  0.00     0.076 H 
ATOM     43  H   2YO d   1     106.257  20.612  13.666  0.00  0.00     0.076 H 
ATOM     44  H   2YO d   1     106.853  18.372  13.064  0.00  0.00     0.279 HD
ENDBRANCH  25  28
ENDBRANCH   1  25
TORSDOF 4
