REMARK  2 active torsions:
REMARK  status: ('A' for Active; 'I' for Inactive)
REMARK    1  A    between atoms: N15_14  and  C25_16 
REMARK    2  A    between atoms: C25_16  and  C11_17 
ROOT
ATOM      1  N1  SAQ d   1     -17.359  17.988 -23.888  0.00  0.00    -0.317 N 
ATOM      2  N3  SAQ d   1     -15.821  17.584 -22.136  0.00  0.00    -0.243 NA
ATOM      3  C4  SAQ d   1     -16.835  17.871 -21.224  0.00  0.00     0.076 A 
ATOM      4  C5  SAQ d   1     -18.134  18.215 -21.638  0.00  0.00     0.063 A 
ATOM      5  C6  SAQ d   1     -18.421  18.290 -23.075  0.00  0.00     0.259 A 
ATOM      6  C7  SAQ d   1     -19.108  18.505 -20.688  0.00  0.00    -0.035 A 
ATOM      7  C8  SAQ d   1     -18.790  18.491 -19.344  0.00  0.00     0.104 A 
ATOM      8  C10 SAQ d   1     -16.522  17.843 -19.858  0.00  0.00    -0.025 A 
ATOM      9  N12 SAQ d   1     -19.492  18.814 -18.199  0.00  0.00    -0.063 NA
ATOM     10  C13 SAQ d   1     -18.624  18.705 -17.168  0.00  0.00     0.701 A 
ATOM     11  C2  SAQ d   1     -16.116  17.648 -23.432  0.00  0.00     0.067 A 
ATOM     12  C9  SAQ d   1     -17.501  18.172 -18.916  0.00  0.00     0.081 A 
ATOM     13  N14 SAQ d   1     -17.417  18.314 -17.529  0.00  0.00    -0.188 N 
ATOM     14  N15 SAQ d   1     -19.019  18.991 -15.923  0.00  0.00    -0.220 N 
ATOM     15  O16 SAQ d   1     -19.506  18.627 -23.541  0.00  0.00    -0.267 OA
ATOM     16  H   SAQ d   1     -17.503  18.018 -24.877  0.00  0.00     0.169 HD
ATOM     17  H   SAQ d   1     -20.118  18.742 -21.003  0.00  0.00     0.088 H 
ATOM     18  H   SAQ d   1     -15.525  17.567 -19.534  0.00  0.00     0.090 H 
ATOM     19  H   SAQ d   1     -15.337  17.421 -24.158  0.00  0.00     0.143 H 
ATOM     20  H   SAQ d   1     -16.599  18.151 -16.925  0.00  0.00     0.184 HD
ATOM     21  H   SAQ d   1     -19.999  19.262 -15.758  0.00  0.00     0.178 HD
ENDROOT
BRANCH  14  22
ATOM     22  C25 SAQ d   1     -18.108  18.930 -14.803  0.00  0.00     0.039 C 
ATOM     23  H   SAQ d   1     -17.386  18.115 -14.959  0.00  0.00     0.072 H 
ATOM     24  H   SAQ d   1     -18.673  18.747 -13.877  0.00  0.00     0.072 H 
BRANCH  22  25
ATOM     25  C11 SAQ d   1     -17.383  20.229 -14.699  0.00  0.00     0.001 A 
ATOM     26  S1  SAQ d   1     -18.228  21.710 -14.599  0.00  0.00    -0.105 SA
ATOM     27  C12 SAQ d   1     -16.781  22.606 -14.551  0.00  0.00    -0.044 A 
ATOM     28  C13 SAQ d   1     -15.690  21.819 -14.607  0.00  0.00    -0.076 A 
ATOM     29  H   SAQ d   1     -16.742  23.692 -14.483  0.00  0.00     0.095 H 
ATOM     30  C14 SAQ d   1     -16.023  20.436 -14.693  0.00  0.00    -0.068 A 
ATOM     31  H   SAQ d   1     -14.669  22.197 -14.589  0.00  0.00     0.084 H 
ATOM     32  H   SAQ d   1     -15.286  19.636 -14.748  0.00  0.00     0.085 H 
ENDBRANCH  22  25
ENDBRANCH  14  22
TORSDOF 2
