REMARK  4 active torsions:
REMARK  status: ('A' for Active; 'I' for Inactive)
REMARK    1  A    between atoms: C13_10  and  N15_14 
REMARK    2  A    between atoms: N15_14  and  C25_16 
REMARK    3  A    between atoms: C25_16  and  C11_17 
REMARK    4  A    between atoms: C11_17  and  N6_18 
ROOT
ATOM      1  N15 SQO d   1     108.562  19.039  16.538  0.00  0.00    -0.223 N 
ATOM      2  H   SQO d   1     109.537  19.331  16.383  0.00  0.00     0.177 HD
ENDROOT
BRANCH   1   3
ATOM      3  C13 SQO d   1     108.175  18.715  17.777  0.00  0.00     0.701 A 
ATOM      4  N12 SQO d   1     109.040  18.801  18.811  0.00  0.00    -0.063 NA
ATOM      5  C8  SQO d   1     108.341  18.428  19.942  0.00  0.00     0.104 A 
ATOM      6  C7  SQO d   1     108.659  18.395  21.283  0.00  0.00    -0.035 A 
ATOM      7  C9  SQO d   1     107.058  18.104  19.502  0.00  0.00     0.081 A 
ATOM      8  C5  SQO d   1     107.691  18.046  22.219  0.00  0.00     0.063 A 
ATOM      9  H   SQO d   1     109.663  18.641  21.608  0.00  0.00     0.088 H 
ATOM     10  C4  SQO d   1     106.402  17.683  21.793  0.00  0.00     0.076 A 
ATOM     11  C6  SQO d   1     107.971  18.099  23.656  0.00  0.00     0.259 A 
ATOM     12  N3  SQO d   1     105.396  17.340  22.694  0.00  0.00    -0.243 NA
ATOM     13  C10 SQO d   1     106.087  17.710  20.427  0.00  0.00    -0.025 A 
ATOM     14  C2  SQO d   1     105.684  17.386  23.993  0.00  0.00     0.067 A 
ATOM     15  N1  SQO d   1     106.915  17.754  24.461  0.00  0.00    -0.317 N 
ATOM     16  H   SQO d   1     104.909  17.120  24.711  0.00  0.00     0.143 H 
ATOM     17  H   SQO d   1     107.054  17.773  25.451  0.00  0.00     0.169 HD
ATOM     18  H   SQO d   1     105.096  17.427  20.090  0.00  0.00     0.090 H 
ATOM     19  O16 SQO d   1     109.042  18.463  24.131  0.00  0.00    -0.267 OA
ATOM     20  N14 SQO d   1     106.969  18.299  18.124  0.00  0.00    -0.188 N 
ATOM     21  H   SQO d   1     106.151  18.152  17.516  0.00  0.00     0.184 HD
ENDBRANCH   1   3
BRANCH   1  22
ATOM     22  C25 SQO d   1     107.654  18.993  15.403  0.00  0.00     0.032 C 
ATOM     23  H   SQO d   1     106.892  19.777  15.525  0.00  0.00     0.067 H 
ATOM     24  H   SQO d   1     107.166  18.008  15.378  0.00  0.00     0.067 H 
BRANCH  22  25
ATOM     25  C11 SQO d   1     108.373  19.213  14.100  0.00  0.00     0.099 C 
ATOM     26  H   SQO d   1     109.088  18.392  13.942  0.00  0.00     0.078 H 
ATOM     27  H   SQO d   1     108.917  20.168  14.148  0.00  0.00     0.078 H 
BRANCH  25  28
ATOM     28  N6  SQO d   1     107.435  19.253  12.974  0.00  0.00    -0.066 N 
ATOM     29  C12 SQO d   1     108.083  18.872  11.719  0.00  0.00     0.103 C 
ATOM     30  C13 SQO d   1     107.085  18.908  10.592  0.00  0.00     0.042 C 
ATOM     31  H   SQO d   1     108.489  17.854  11.813  0.00  0.00     0.079 H 
ATOM     32  H   SQO d   1     108.901  19.575  11.504  0.00  0.00     0.079 H 
ATOM     33  O2  SQO d   1     106.505  20.200  10.449  0.00  0.00    -0.388 OA
ATOM     34  H   SQO d   1     106.287  18.179  10.798  0.00  0.00     0.076 H 
ATOM     35  H   SQO d   1     107.594  18.639   9.655  0.00  0.00     0.076 H 
ATOM     36  C14 SQO d   1     105.870  20.585  11.666  0.00  0.00     0.042 C 
ATOM     37  C15 SQO d   1     106.839  20.583  12.821  0.00  0.00     0.103 C 
ATOM     38  H   SQO d   1     105.055  19.879  11.883  0.00  0.00     0.076 H 
ATOM     39  H   SQO d   1     105.457  21.598  11.548  0.00  0.00     0.076 H 
ATOM     40  H   SQO d   1     107.634  21.319  12.630  0.00  0.00     0.079 H 
ATOM     41  H   SQO d   1     106.305  20.851  13.745  0.00  0.00     0.079 H 
ATOM     42  H   SQO d   1     106.696  18.593  13.163  0.00  0.00     0.280 HD
ENDBRANCH  25  28
ENDBRANCH  22  25
ENDBRANCH   1  22
TORSDOF 4
