REMARK  3 active torsions:
REMARK  status: ('A' for Active; 'I' for Inactive)
REMARK    1  A    between atoms: C1_5  and  N14_6 
REMARK    2  A    between atoms: N14_6  and  C15_7 
REMARK    3  A    between atoms: C8_14  and  N22_15 
ROOT
ATOM      1  N2  S98 d   1     -18.983  18.767 -18.145  0.00  0.00    -0.063 NA
ATOM      2  C3  S98 d   1     -18.325  18.358 -19.289  0.00  0.00     0.104 A 
ATOM      3  C12 S98 d   1     -17.076  17.904 -18.861  0.00  0.00     0.081 A 
ATOM      4  N13 S98 d   1     -16.971  18.049 -17.477  0.00  0.00    -0.188 N 
ATOM      5  C1  S98 d   1     -18.131  18.569 -17.113  0.00  0.00     0.701 A 
ATOM      6  C11 S98 d   1     -16.138  17.468 -19.802  0.00  0.00    -0.027 A 
ATOM      7  C10 S98 d   1     -16.443  17.548 -21.169  0.00  0.00     0.067 A 
ATOM      8  C5  S98 d   1     -17.698  18.028 -21.584  0.00  0.00     0.062 A 
ATOM      9  C6  S98 d   1     -17.949  18.206 -23.022  0.00  0.00     0.272 A 
ATOM     10  O21 S98 d   1     -19.010  18.611 -23.487  0.00  0.00    -0.267 OA
ATOM     11  N7  S98 d   1     -16.887  17.888 -23.835  0.00  0.00    -0.156 N 
ATOM     12  C8  S98 d   1     -15.691  17.407 -23.374  0.00  0.00     0.679 A 
ATOM     13  N9  S98 d   1     -15.444  17.218 -22.080  0.00  0.00    -0.191 N 
ATOM     14  C4  S98 d   1     -18.643  18.402 -20.633  0.00  0.00    -0.035 A 
ATOM     15  H   S98 d   1     -16.171  17.806 -16.875  0.00  0.00     0.184 HD
ATOM     16  H   S98 d   1     -15.183  17.071 -19.478  0.00  0.00     0.090 H 
ATOM     17  H   S98 d   1     -16.994  18.015 -24.821  0.00  0.00     0.187 HD
ATOM     18  H   S98 d   1     -14.541  16.839 -21.762  0.00  0.00     0.184 HD
ATOM     19  H   S98 d   1     -19.628  18.728 -20.947  0.00  0.00     0.088 H 
ENDROOT
BRANCH   5  20
ATOM     20  N14 S98 d   1     -18.431  18.896 -15.859  0.00  0.00    -0.229 N 
ATOM     21  H   S98 d   1     -19.354  19.312 -15.671  0.00  0.00     0.177 HD
BRANCH  20  22
ATOM     22  C15 S98 d   1     -17.526  18.697 -14.743  0.00  0.00    -0.005 C 
ATOM     23  H   S98 d   1     -18.005  19.046 -13.816  0.00  0.00     0.057 H 
ATOM     24  H   S98 d   1     -16.601  19.267 -14.915  0.00  0.00     0.057 H 
ATOM     25  H   S98 d   1     -17.286  17.627 -14.652  0.00  0.00     0.057 H 
ENDBRANCH  20  22
ENDBRANCH   5  20
BRANCH  12  26
ATOM     26  N22 S98 d   1     -14.750  17.128 -24.276  0.00  0.00    -0.234 N 
ATOM     27  H   S98 d   1     -13.836  16.764 -23.971  0.00  0.00     0.174 HD
ATOM     28  H   S98 d   1     -14.937  17.276 -25.278  0.00  0.00     0.174 HD
ENDBRANCH  12  26
TORSDOF 3
