REMARK  4 active torsions:
REMARK  status: ('A' for Active; 'I' for Inactive)
REMARK    1  A    between atoms: S7_2  and  N10_4 
REMARK    2  A    between atoms: S7_2  and  C3_5 
REMARK    3  A    between atoms: C6_9  and  N11_11 
REMARK    4  A    between atoms: N12_12  and  N13_13 
ROOT
ATOM      1  N13 WW3 d   1      -2.392   7.011  13.295  0.00  0.00    -0.287 N 
ATOM      2  C16 WW3 d   1      -1.326   7.455  14.165  0.00  0.00     0.013 C 
ATOM      3  C15 WW3 d   1      -0.313   8.528  13.842  0.00  0.00    -0.049 C 
ATOM      4  C17 WW3 d   1      -1.093   9.785  14.150  0.00  0.00    -0.064 C 
ATOM      5  C18 WW3 d   1      -2.135  10.025  13.060  0.00  0.00    -0.064 C 
ATOM      6  C19 WW3 d   1      -2.382   9.003  11.931  0.00  0.00    -0.049 C 
ATOM      7  C14 WW3 d   1      -3.136   7.753  12.334  0.00  0.00     0.013 C 
ATOM      8  H   WW3 d   1      -0.734   6.553  14.381  0.00  0.00     0.066 H 
ATOM      9  H   WW3 d   1      -1.825   7.795  15.084  0.00  0.00     0.066 H 
ATOM     10  H   WW3 d   1      -0.013   8.491  12.784  0.00  0.00     0.035 H 
ATOM     11  H   WW3 d   1       0.579   8.443  14.480  0.00  0.00     0.035 H 
ATOM     12  H   WW3 d   1      -0.404  10.642  14.192  0.00  0.00     0.033 H 
ATOM     13  H   WW3 d   1      -1.599   9.673  15.120  0.00  0.00     0.033 H 
ATOM     14  H   WW3 d   1      -1.855  10.968  12.567  0.00  0.00     0.033 H 
ATOM     15  H   WW3 d   1      -3.098  10.153  13.576  0.00  0.00     0.033 H 
ATOM     16  H   WW3 d   1      -1.404   8.695  11.533  0.00  0.00     0.035 H 
ATOM     17  H   WW3 d   1      -2.958   9.505  11.140  0.00  0.00     0.035 H 
ATOM     18  H   WW3 d   1      -4.105   8.039  12.768  0.00  0.00     0.066 H 
ATOM     19  H   WW3 d   1      -3.303   7.128  11.444  0.00  0.00     0.066 H 
ENDROOT
BRANCH   1  20
ATOM     20  N12 WW3 d   1      -2.892   5.896  13.848  0.00  0.00    -0.070 NA
ATOM     21  N11 WW3 d   1      -4.119   5.621  13.812  0.00  0.00    -0.133 NA
BRANCH  21  22
ATOM     22  C6  WW3 d   1      -4.506   4.495  14.560  0.00  0.00     0.080 A 
ATOM     23  C5  WW3 d   1      -3.580   3.538  14.956  0.00  0.00    -0.052 A 
ATOM     24  C4  WW3 d   1      -4.016   2.390  15.660  0.00  0.00    -0.058 A 
ATOM     25  H   WW3 d   1      -2.529   3.670  14.727  0.00  0.00     0.087 H 
ATOM     26  C3  WW3 d   1      -5.408   2.238  15.948  0.00  0.00     0.079 A 
ATOM     27  H   WW3 d   1      -3.304   1.636  15.976  0.00  0.00     0.086 H 
ATOM     28  C2  WW3 d   1      -6.284   3.241  15.543  0.00  0.00    -0.058 A 
ATOM     29  C1  WW3 d   1      -5.832   4.349  14.851  0.00  0.00    -0.052 A 
ATOM     30  H   WW3 d   1      -7.339   3.152  15.774  0.00  0.00     0.086 H 
ATOM     31  H   WW3 d   1      -6.537   5.110  14.536  0.00  0.00     0.087 H 
BRANCH  26  32
ATOM     32  S7  WW3 d   1      -5.956   0.810  16.789  0.00  0.00     0.256 S 
ATOM     33  O9  WW3 d   1      -7.384   0.853  16.677  0.00  0.00    -0.201 OA
ATOM     34  O8  WW3 d   1      -5.393   0.894  18.122  0.00  0.00    -0.201 OA
BRANCH  32  35
ATOM     35  N10 WW3 d   1      -5.384  -0.497  16.034  0.00  0.00    -0.324 N 
ATOM     36  H   WW3 d   1      -5.675  -0.702  15.100  0.00  0.00     0.169 HD
ATOM     37  H   WW3 d   1      -4.738  -1.102  16.501  0.00  0.00     0.169 HD
ENDBRANCH  32  35
ENDBRANCH  26  32
ENDBRANCH  21  22
ENDBRANCH   1  20
TORSDOF 4
