REMARK  8 active torsions:
REMARK  status: ('A' for Active; 'I' for Inactive)
REMARK       I    between atoms: C22_2  and  N27_3 
REMARK    1  A    between atoms: C22_2  and  C19_10 
REMARK    2  A    between atoms: C29_4  and  C33_5 
REMARK    3  A    between atoms: C31_7  and  C37_8 
REMARK    4  A    between atoms: C19_10  and  C18_11 
REMARK    5  A    between atoms: C18_11  and  N17_12 
REMARK    6  A    between atoms: N17_12  and  C8_13 
REMARK    7  A    between atoms: C5_18  and  S2_19 
REMARK    8  A    between atoms: S2_19  and  N1_22 
ROOT
ATOM      1  C18 KR5 d   1      -2.607   5.522  13.277  0.00  0.00     0.001 C 
ATOM      2  H   KR5 d   1      -1.877   5.304  14.071  0.00  0.00     0.064 H 
ATOM      3  H   KR5 d   1      -2.554   4.740  12.505  0.00  0.00     0.064 H 
ENDROOT
BRANCH   1   4
ATOM      4  C19 KR5 d   1      -2.266   6.836  12.657  0.00  0.00     0.026 C 
ATOM      5  H   KR5 d   1      -1.407   6.712  11.981  0.00  0.00     0.049 H 
ATOM      6  H   KR5 d   1      -3.130   7.209  12.088  0.00  0.00     0.049 H 
BRANCH   4   7
ATOM      7  C22 KR5 d   1      -1.926   7.788  13.705  0.00  0.00     0.246 C 
ATOM      8  O25 KR5 d   1      -1.463   7.629  14.813  0.00  0.00    -0.271 OA
ATOM      9  N27 KR5 d   1      -1.900   9.155  13.327  0.00  0.00    -0.205 N 
ATOM     10  C29 KR5 d   1      -1.240  10.192  14.109  0.00  0.00     0.037 A 
ATOM     11  N28 KR5 d   1      -2.555   9.819  12.302  0.00  0.00    -0.170 NA
ATOM     12  C30 KR5 d   1      -1.411  11.447  13.470  0.00  0.00    -0.034 A 
ATOM     13  C31 KR5 d   1      -2.264  11.165  12.359  0.00  0.00     0.053 A 
ATOM     14  H   KR5 d   1      -0.988  12.408  13.760  0.00  0.00     0.089 H 
BRANCH  10  15
ATOM     15  C33 KR5 d   1      -0.369   9.822  15.270  0.00  0.00    -0.035 C 
ATOM     16  H   KR5 d   1       0.036  10.735  15.730  0.00  0.00     0.035 H 
ATOM     17  H   KR5 d   1       0.460   9.189  14.920  0.00  0.00     0.035 H 
ATOM     18  H   KR5 d   1      -0.963   9.270  16.013  0.00  0.00     0.035 H 
ENDBRANCH  10  15
BRANCH  13  19
ATOM     19  C37 KR5 d   1      -2.825  12.126  11.381  0.00  0.00    -0.034 C 
ATOM     20  H   KR5 d   1      -3.443  11.585  10.649  0.00  0.00     0.035 H 
ATOM     21  H   KR5 d   1      -2.004  12.640  10.860  0.00  0.00     0.035 H 
ATOM     22  H   KR5 d   1      -3.445  12.866  11.908  0.00  0.00     0.035 H 
ENDBRANCH  13  19
ENDBRANCH   4   7
ENDBRANCH   1   4
BRANCH   1  23
ATOM     23  N17 KR5 d   1      -3.971   5.523  13.866  0.00  0.00    -0.389 N 
ATOM     24  H   KR5 d   1      -4.585   6.343  13.756  0.00  0.00     0.159 HD
BRANCH  23  25
ATOM     25  C8  KR5 d   1      -4.415   4.396  14.574  0.00  0.00     0.028 A 
ATOM     26  C7  KR5 d   1      -3.553   3.396  14.950  0.00  0.00    -0.056 A 
ATOM     27  C6  KR5 d   1      -4.039   2.274  15.661  0.00  0.00    -0.058 A 
ATOM     28  H   KR5 d   1      -2.500   3.466  14.702  0.00  0.00     0.087 H 
ATOM     29  C5  KR5 d   1      -5.403   2.193  15.970  0.00  0.00     0.079 A 
ATOM     30  H   KR5 d   1      -3.362   1.484  15.964  0.00  0.00     0.086 H 
ATOM     31  C10 KR5 d   1      -6.251   3.234  15.585  0.00  0.00    -0.058 A 
ATOM     32  C9  KR5 d   1      -5.778   4.338  14.890  0.00  0.00    -0.056 A 
ATOM     33  H   KR5 d   1      -7.304   3.178  15.835  0.00  0.00     0.086 H 
ATOM     34  H   KR5 d   1      -6.449   5.138  14.598  0.00  0.00     0.087 H 
BRANCH  29  35
ATOM     35  S2  KR5 d   1      -6.016   0.794  16.833  0.00  0.00     0.256 S 
ATOM     36  O3  KR5 d   1      -7.409   0.839  16.696  0.00  0.00    -0.201 OA
ATOM     37  O4  KR5 d   1      -5.458   0.876  18.176  0.00  0.00    -0.201 OA
BRANCH  35  38
ATOM     38  N1  KR5 d   1      -5.449  -0.526  16.091  0.00  0.00    -0.324 N 
ATOM     39  H   KR5 d   1      -5.688  -1.434  16.435  0.00  0.00     0.169 HD
ATOM     40  H   KR5 d   1      -4.860  -0.434  15.288  0.00  0.00     0.169 HD
ENDBRANCH  35  38
ENDBRANCH  29  35
ENDBRANCH  23  25
ENDBRANCH   1  23
TORSDOF 8
