REMARK  2 active torsions:
REMARK  status: ('A' for Active; 'I' for Inactive)
REMARK    1  A    between atoms: C2_3  and  C6_4 
REMARK    2  A    between atoms: N1_8  and  O1_9 
ROOT
ATOM      1  S1  3MH d   1      14.953   0.160  16.984  0.00  0.00    -0.057 SA
ATOM      2  C1  3MH d   1      15.452   1.364  15.825  0.00  0.00     0.134 A 
ATOM      3  C2  3MH d   1      15.034   2.711  15.976  0.00  0.00    -0.022 A 
ATOM      4  C3  3MH d   1      15.375   3.628  15.051  0.00  0.00    -0.073 A 
ATOM      5  C4  3MH d   1      16.154   3.259  13.959  0.00  0.00    -0.065 A 
ATOM      6  C5  3MH d   1      16.524   1.943  13.791  0.00  0.00     0.009 A 
ATOM      7  N1  3MH d   1      16.201   1.004  14.756  0.00  0.00    -0.225 N 
ATOM      8  H4  3MH d   1      15.041   4.659  15.158  0.00  0.00     0.084 H 
ATOM      9  H5  3MH d   1      16.471   4.010  13.237  0.00  0.00     0.085 H 
ATOM     10  H6  3MH d   1      17.071   1.641  12.899  0.00  0.00     0.115 H 
ENDROOT
BRANCH   3  11
ATOM     11  C6  3MH d   1      14.242   3.126  17.199  0.00  0.00    -0.048 C 
ATOM     12  H1  3MH d   1      14.011   4.200  17.139  0.00  0.00     0.033 H 
ATOM     13  H2  3MH d   1      14.835   2.929  18.104  0.00  0.00     0.033 H 
ATOM     14  H3  3MH d   1      13.305   2.551  17.242  0.00  0.00     0.033 H 
ENDBRANCH   3  11
BRANCH   7  15
ATOM     15  O1  3MH d   1      16.556  -0.274  14.589  0.00  0.00    -0.282 OA
ATOM     16  H7  3MH d   1      16.156  -0.612  13.796  0.00  0.00     0.245 HD
ENDBRANCH   7  15
TORSDOF 2
