REMARK  2 active torsions:
REMARK  status: ('A' for Active; 'I' for Inactive)
REMARK    1  A    between atoms: C3_4  and  C6_5 
REMARK    2  A    between atoms: N1_8  and  O1_9 
ROOT
ATOM      1  S1  2YU d   1      14.901   0.229  17.004  0.00  0.00    -0.058 SA
ATOM      2  C1  2YU d   1      15.422   1.299  15.781  0.00  0.00     0.129 A 
ATOM      3  C2  2YU d   1      15.083   2.697  15.855  0.00  0.00    -0.038 A 
ATOM      4  C3  2YU d   1      15.510   3.551  14.888  0.00  0.00    -0.058 A 
ATOM      5  C4  2YU d   1      16.308   3.066  13.809  0.00  0.00    -0.060 A 
ATOM      6  C5  2YU d   1      16.651   1.741  13.753  0.00  0.00     0.010 A 
ATOM      7  N1  2YU d   1      16.197   0.841  14.764  0.00  0.00    -0.225 N 
ATOM      8  H1  2YU d   1      14.485   3.069  16.685  0.00  0.00     0.089 H 
ATOM      9  H5  2YU d   1      16.644   3.749  13.030  0.00  0.00     0.086 H 
ATOM     10  H6  2YU d   1      17.271   1.374  12.936  0.00  0.00     0.115 H 
ENDROOT
BRANCH   4  11
ATOM     11  C6  2YU d   1      15.132   4.971  14.942  0.00  0.00    -0.051 C 
ATOM     12  H2  2YU d   1      15.568   5.499  14.081  0.00  0.00     0.033 H 
ATOM     13  H3  2YU d   1      15.509   5.416  15.875  0.00  0.00     0.033 H 
ATOM     14  H4  2YU d   1      14.036   5.060  14.910  0.00  0.00     0.033 H 
ENDBRANCH   4  11
BRANCH   7  15
ATOM     15  O1  2YU d   1      16.568  -0.434  14.735  0.00  0.00    -0.282 OA
ATOM     16  H7  2YU d   1      17.515  -0.488  14.787  0.00  0.00     0.245 HD
ENDBRANCH   7  15
TORSDOF 2
