REMARK  2 active torsions:
REMARK  status: ('A' for Active; 'I' for Inactive)
REMARK    1  A    between atoms: C4_5  and  C6_6 
REMARK    2  A    between atoms: N1_8  and  O1_9 
ROOT
ATOM      1  S1  5MH d   1      14.866   0.032  17.070  0.00  0.00    -0.058 SA
ATOM      2  C1  5MH d   1      15.254   1.338  16.015  0.00  0.00     0.128 A 
ATOM      3  C2  5MH d   1      14.702   2.621  16.245  0.00  0.00    -0.043 A 
ATOM      4  C3  5MH d   1      15.005   3.640  15.421  0.00  0.00    -0.073 A 
ATOM      5  C4  5MH d   1      15.848   3.437  14.360  0.00  0.00    -0.044 A 
ATOM      6  C5  5MH d   1      16.389   2.181  14.135  0.00  0.00     0.015 A 
ATOM      7  N1  5MH d   1      16.079   1.138  14.978  0.00  0.00    -0.225 N 
ATOM      8  H1  5MH d   1      14.033   2.783  17.088  0.00  0.00     0.088 H 
ATOM      9  H2  5MH d   1      14.580   4.627  15.597  0.00  0.00     0.084 H 
ATOM     10  H6  5MH d   1      17.059   2.019  13.292  0.00  0.00     0.116 H 
ENDROOT
BRANCH   5  11
ATOM     11  C6  5MH d   1      16.185   4.574  13.443  0.00  0.00    -0.050 C 
ATOM     12  H3  5MH d   1      16.869   4.221  12.658  0.00  0.00     0.033 H 
ATOM     13  H4  5MH d   1      16.669   5.377  14.018  0.00  0.00     0.033 H 
ATOM     14  H5  5MH d   1      15.264   4.958  12.981  0.00  0.00     0.033 H 
ENDBRANCH   5  11
BRANCH   7  15
ATOM     15  O1  5MH d   1      16.610  -0.097  14.758  0.00  0.00    -0.282 OA
ATOM     16  H7  5MH d   1      16.343  -0.407  13.901  0.00  0.00     0.245 HD
ENDBRANCH   7  15
TORSDOF 2
