REMARK  2 active torsions:
REMARK  status: ('A' for Active; 'I' for Inactive)
REMARK    1  A    between atoms: C6_1  and  C5_2 
REMARK    2  A    between atoms: N1_8  and  O1_9 
ROOT
ATOM      1  C5  6MH d   1      15.532   3.158  14.825  0.00  0.00     0.037 A 
ATOM      2  C4  6MH d   1      14.865   3.991  15.613  0.00  0.00    -0.059 A 
ATOM      3  C3  6MH d   1      14.329   3.536  16.809  0.00  0.00    -0.078 A 
ATOM      4  C2  6MH d   1      14.497   2.256  17.175  0.00  0.00    -0.044 A 
ATOM      5  C1  6MH d   1      15.225   1.394  16.368  0.00  0.00     0.129 A 
ATOM      6  S1  6MH d   1      15.486  -0.254  16.868  0.00  0.00    -0.058 SA
ATOM      7  N1  6MH d   1      15.727   1.827  15.218  0.00  0.00    -0.219 N 
ATOM      8  H4  6MH d   1      14.738   5.032  15.321  0.00  0.00     0.086 H 
ATOM      9  H5  6MH d   1      13.772   4.217  17.451  0.00  0.00     0.083 H 
ATOM     10  H6  6MH d   1      14.062   1.894  18.105  0.00  0.00     0.088 H 
ENDROOT
BRANCH   1  11
ATOM     11  C6  6MH d   1      16.133   3.656  13.550  0.00  0.00    -0.035 C 
ATOM     12  H1  6MH d   1      15.873   4.716  13.412  0.00  0.00     0.035 H 
ATOM     13  H2  6MH d   1      15.741   3.069  12.706  0.00  0.00     0.035 H 
ATOM     14  H3  6MH d   1      17.227   3.549  13.594  0.00  0.00     0.035 H 
ENDBRANCH   1  11
BRANCH   7  15
ATOM     15  O1  6MH d   1      16.441   1.003  14.450  0.00  0.00    -0.282 OA
ATOM     16  H7  6MH d   1      17.201   0.700  14.933  0.00  0.00     0.245 HD
ENDBRANCH   7  15
TORSDOF 2
