REMARK  3 active torsions:
REMARK  status: ('A' for Active; 'I' for Inactive)
REMARK    1  A    between atoms: C7_1  and  C5_2 
REMARK    2  A    between atoms: C3_4  and  C6_5 
REMARK    3  A    between atoms: N1_9  and  O1_10 
ROOT
ATOM      1  C5  7MH d   1      16.369   1.850  13.683  0.00  0.00     0.038 A 
ATOM      2  C4  7MH d   1      15.993   3.158  13.809  0.00  0.00    -0.053 A 
ATOM      3  C3  7MH d   1      15.369   3.591  14.964  0.00  0.00    -0.057 A 
ATOM      4  C2  7MH d   1      15.072   2.698  15.953  0.00  0.00    -0.038 A 
ATOM      5  C1  7MH d   1      15.441   1.379  15.820  0.00  0.00     0.129 A 
ATOM      6  S1  7MH d   1      15.065   0.234  17.087  0.00  0.00    -0.058 SA
ATOM      7  N1  7MH d   1      16.142   0.971  14.711  0.00  0.00    -0.219 N 
ATOM      8  H4  7MH d   1      16.185   3.860  12.999  0.00  0.00     0.087 H 
ATOM      9  H8  7MH d   1      14.544   3.029  16.846  0.00  0.00     0.089 H 
ENDROOT
BRANCH   1  10
ATOM     10  C7  7MH d   1      17.095   1.391  12.450  0.00  0.00    -0.035 C 
ATOM     11  H1  7MH d   1      17.181   2.229  11.742  0.00  0.00     0.035 H 
ATOM     12  H2  7MH d   1      16.535   0.570  11.979  0.00  0.00     0.035 H 
ATOM     13  H3  7MH d   1      18.100   1.039  12.726  0.00  0.00     0.035 H 
ENDBRANCH   1  10
BRANCH   7  14
ATOM     14  O1  7MH d   1      16.547  -0.303  14.605  0.00  0.00    -0.282 OA
ATOM     15  H9  7MH d   1      15.790  -0.877  14.623  0.00  0.00     0.245 HD
ENDBRANCH   7  14
BRANCH   3  16
ATOM     16  C6  7MH d   1      14.947   5.043  15.100  0.00  0.00    -0.051 C 
ATOM     17  H5  7MH d   1      14.471   5.196  16.080  0.00  0.00     0.033 H 
ATOM     18  H6  7MH d   1      14.232   5.293  14.302  0.00  0.00     0.033 H 
ATOM     19  H7  7MH d   1      15.832   5.691  15.017  0.00  0.00     0.033 H 
ENDBRANCH   3  16
TORSDOF 3
