REMARK  2 active torsions:
REMARK  status: ('A' for Active; 'I' for Inactive)
REMARK    1  A    between atoms: C2_3  and  C6_4 
REMARK    2  A    between atoms: N1_11  and  O1_12 
ROOT
ATOM      1  S1  3FH d   1      14.802   0.206  16.956  0.00  0.00    -0.057 SA
ATOM      2  C1  3FH d   1      15.631   1.212  15.795  0.00  0.00     0.143 A 
ATOM      3  C2  3FH d   1      15.570   2.705  15.915  0.00  0.00     0.088 A 
ATOM      4  C3  3FH d   1      16.214   3.449  15.066  0.00  0.00    -0.064 A 
ATOM      5  C4  3FH d   1      17.009   2.849  14.061  0.00  0.00    -0.065 A 
ATOM      6  C5  3FH d   1      17.039   1.429  13.927  0.00  0.00     0.009 A 
ATOM      7  N1  3FH d   1      16.389   0.645  14.832  0.00  0.00    -0.224 N 
ATOM      8  H1  3FH d   1      16.142   4.534  15.128  0.00  0.00     0.085 H 
ATOM      9  H2  3FH d   1      17.598   3.471  13.389  0.00  0.00     0.085 H 
ATOM     10  H3  3FH d   1      17.582   0.972  13.101  0.00  0.00     0.115 H 
ENDROOT
BRANCH   3  11
ATOM     11  C6  3FH d   1      14.659   3.375  17.015  0.00  0.00     0.420 C 
ATOM     12  F1  3FH d   1      14.801   4.702  16.960  0.00  0.00    -0.166 F 
ATOM     13  F2  3FH d   1      13.441   3.070  16.802  0.00  0.00    -0.166 F 
ATOM     14  F3  3FH d   1      15.039   2.918  18.280  0.00  0.00    -0.166 F 
ENDBRANCH   3  11
BRANCH   7  15
ATOM     15  O1  3FH d   1      16.433  -0.681  14.714  0.00  0.00    -0.282 OA
ATOM     16  H4  3FH d   1      16.061  -0.936  13.878  0.00  0.00     0.245 HD
ENDBRANCH   7  15
TORSDOF 2
