REMARK  2 active torsions:
REMARK  status: ('A' for Active; 'I' for Inactive)
REMARK    1  A    between atoms: C3_4  and  C6_5 
REMARK    2  A    between atoms: N1_11  and  O2_12 
ROOT
ATOM      1  S1  4FH d   1      14.783   0.371  16.982  0.00  0.00    -0.058 SA
ATOM      2  C1  4FH d   1      15.448   1.379  15.756  0.00  0.00     0.129 A 
ATOM      3  C2  4FH d   1      15.203   2.818  15.780  0.00  0.00    -0.029 A 
ATOM      4  C3  4FH d   1      15.723   3.603  14.821  0.00  0.00     0.052 A 
ATOM      5  C4  4FH d   1      16.504   3.035  13.794  0.00  0.00    -0.051 A 
ATOM      6  C5  4FH d   1      16.737   1.654  13.773  0.00  0.00     0.010 A 
ATOM      7  N1  4FH d   1      16.198   0.838  14.769  0.00  0.00    -0.225 N 
ATOM      8  H1  4FH d   1      14.600   3.255  16.574  0.00  0.00     0.089 H 
ATOM      9  H2  4FH d   1      16.926   3.670  13.017  0.00  0.00     0.086 H 
ATOM     10  H3  4FH d   1      17.340   1.216  12.979  0.00  0.00     0.115 H 
ENDROOT
BRANCH   4  11
ATOM     11  C6  4FH d   1      15.466   5.132  14.842  0.00  0.00     0.417 C 
ATOM     12  F1  4FH d   1      14.947   5.459  15.950  0.00  0.00    -0.166 F 
ATOM     13  F2  4FH d   1      16.637   5.788  14.682  0.00  0.00    -0.166 F 
ATOM     14  F3  4FH d   1      14.671   5.443  13.893  0.00  0.00    -0.166 F 
ENDBRANCH   4  11
BRANCH   7  15
ATOM     15  O2  4FH d   1      16.422  -0.479  14.746  0.00  0.00    -0.282 OA
ATOM     16  H4  4FH d   1      16.079  -0.843  13.938  0.00  0.00     0.245 HD
ENDBRANCH   7  15
TORSDOF 2
