REMARK  1 active torsions:
REMARK  status: ('A' for Active; 'I' for Inactive)
REMARK    1  A    between atoms: C4_5  and  C6_6 
ROOT
ATOM      1  S1  7FH d   1      14.609   1.095  17.200  0.00  0.00    -0.058 SA
ATOM      2  C1  7FH d   1      15.259   2.295  16.186  0.00  0.00     0.131 A 
ATOM      3  C2  7FH d   1      14.430   3.288  15.660  0.00  0.00    -0.043 A 
ATOM      4  C3  7FH d   1      14.945   4.235  14.809  0.00  0.00    -0.064 A 
ATOM      5  C4  7FH d   1      16.261   4.195  14.463  0.00  0.00     0.066 A 
ATOM      6  C5  7FH d   1      17.091   3.206  14.992  0.00  0.00     0.027 A 
ATOM      7  N1  7FH d   1      16.579   2.270  15.861  0.00  0.00    -0.188 N 
ATOM      8  O1  7FH d   1      17.350   1.308  16.319  0.00  0.00    -0.080 OA
ATOM      9  H1  7FH d   1      13.374   3.312  15.925  0.00  0.00     0.088 H 
ATOM     10  H2  7FH d   1      14.301   5.018  14.411  0.00  0.00     0.085 H 
ATOM     11  H3  7FH d   1      18.144   3.175  14.717  0.00  0.00     0.117 H 
ENDROOT
BRANCH   5  12
ATOM     12  C6  7FH d   1      16.802   5.189  13.576  0.00  0.00     0.418 C 
ATOM     13  F1  7FH d   1      17.188   6.248  14.279  0.00  0.00    -0.166 F 
ATOM     14  F2  7FH d   1      17.846   4.683  12.927  0.00  0.00    -0.166 F 
ATOM     15  F3  7FH d   1      15.871   5.554  12.700  0.00  0.00    -0.166 F 
ENDBRANCH   5  12
TORSDOF 1
