REMARK  2 active torsions:
REMARK  status: ('A' for Active; 'I' for Inactive)
REMARK    1  A    between atoms: S1_1  and  C1_2 
REMARK    2  A    between atoms: N1_11  and  O1_12 
ROOT
ATOM      1  C1  HQT d   1      15.552   1.234  15.746  0.00  0.00     0.105 A 
ATOM      2  C9  HQT d   1      15.307   2.579  15.869  0.00  0.00    -0.013 A 
ATOM      3  C8  HQT d   1      14.617   3.085  17.038  0.00  0.00    -0.073 A 
ATOM      4  C7  HQT d   1      14.386   4.409  17.165  0.00  0.00    -0.082 A 
ATOM      5  C6  HQT d   1      14.796   5.308  16.132  0.00  0.00    -0.082 A 
ATOM      6  C5  HQT d   1      15.457   4.814  14.991  0.00  0.00    -0.072 A 
ATOM      7  C4  HQT d   1      15.713   3.452  14.870  0.00  0.00    -0.026 A 
ATOM      8  C3  HQT d   1      16.365   2.971  13.759  0.00  0.00    -0.056 A 
ATOM      9  C2  HQT d   1      16.606   1.664  13.641  0.00  0.00     0.005 A 
ATOM     10  N1  HQT d   1      16.198   0.768  14.672  0.00  0.00    -0.253 N 
ATOM     11  H2  HQT d   1      14.590   1.103  15.229  0.00  0.00     0.101 H 
ATOM     12  H3  HQT d   1      14.286   2.401  17.811  0.00  0.00     0.084 H 
ATOM     13  H4  HQT d   1      13.890   4.790  18.050  0.00  0.00     0.083 H 
ATOM     14  H5  HQT d   1      14.598   6.370  16.227  0.00  0.00     0.083 H 
ATOM     15  H6  HQT d   1      15.767   5.495  14.207  0.00  0.00     0.084 H 
ATOM     16  H7  HQT d   1      16.685   3.657  12.976  0.00  0.00     0.087 H 
ATOM     17  H8  HQT d   1      17.114   1.282  12.757  0.00  0.00     0.114 H 
ENDROOT
BRANCH   1  18
ATOM     18  S1  HQT d   1      15.032   0.128  17.005  0.00  0.00    -0.150 SA
ATOM     19  H1  HQT d   1      14.398  -0.550  16.614  0.00  0.00     0.104 HD
ENDBRANCH   1  18
BRANCH  10  20
ATOM     20  O1  HQT d   1      16.449  -0.534  14.560  0.00  0.00    -0.287 OA
ATOM     21  H9  HQT d   1      16.024  -0.871  13.780  0.00  0.00     0.244 HD
ENDBRANCH  10  20
TORSDOF 2
