REMARK  2 active torsions:
REMARK  status: ('A' for Active; 'I' for Inactive)
REMARK    1  A    between atoms: C6_1  and  C3_2 
REMARK    2  A    between atoms: C1_4  and  S1_5 
ROOT
ATOM      1  C3  4H2 d   1      15.405   3.685  15.098  0.00  0.00    -0.058 A 
ATOM      2  C2  4H2 d   1      15.042   2.632  15.992  0.00  0.00    -0.043 A 
ATOM      3  C1  4H2 d   1      15.448   1.369  15.746  0.00  0.00     0.090 A 
ATOM      4  N1  4H2 d   1      16.223   1.092  14.615  0.00  0.00    -0.254 NA
ATOM      5  C5  4H2 d   1      16.530   2.098  13.730  0.00  0.00     0.004 A 
ATOM      6  C4  4H2 d   1      16.118   3.410  13.991  0.00  0.00    -0.060 A 
ATOM      7  H4  4H2 d   1      14.441   2.847  16.868  0.00  0.00     0.088 H 
ATOM      8  H6  4H2 d   1      17.091   1.875  12.830  0.00  0.00     0.114 H 
ATOM      9  H7  4H2 d   1      16.374   4.205  13.300  0.00  0.00     0.086 H 
ENDROOT
BRANCH   1  10
ATOM     10  C6  4H2 d   1      14.965   5.116  15.387  0.00  0.00    -0.051 C 
ATOM     11  H1  4H2 d   1      14.397   5.142  16.329  0.00  0.00     0.033 H 
ATOM     12  H2  4H2 d   1      14.329   5.477  14.565  0.00  0.00     0.033 H 
ATOM     13  H3  4H2 d   1      15.851   5.761  15.475  0.00  0.00     0.033 H 
ENDBRANCH   1  10
BRANCH   3  14
ATOM     14  S1  4H2 d   1      15.011   0.061  16.865  0.00  0.00    -0.123 SA
ATOM     15  H5  4H2 d   1      14.480  -0.639  16.371  0.00  0.00     0.108 HD
ENDBRANCH   3  14
TORSDOF 2
