REMARK  5 active torsions:
REMARK  status: ('A' for Active; 'I' for Inactive)
REMARK    1  A    between atoms: C1_1  and  O3_17 
REMARK    2  A    between atoms: C3_3  and  O2_16 
REMARK    3  A    between atoms: C5_5  and  C7_7 
REMARK    4  A    between atoms: C8_8  and  C9_9 
REMARK    5  A    between atoms: C12_12  and  O1_15 
ROOT
ATOM      1  C7  STL d   1     -11.245  12.687  -9.332  0.00  0.00    -0.072 C 
ATOM      2  C8  STL d   1     -10.990  13.261 -10.499  0.00  0.00    -0.072 C 
ATOM      3  H   STL d   1     -12.155  13.031  -8.842  0.00  0.00     0.084 H 
ATOM      4  H   STL d   1     -11.865  13.659 -11.010  0.00  0.00     0.084 H 
ENDROOT
BRANCH   1   5
ATOM      5  C5  STL d   1     -10.500  11.666  -8.598  0.00  0.00    -0.031 A 
ATOM      6  C4  STL d   1      -9.117  11.787  -8.409  0.00  0.00    -0.041 A 
ATOM      7  C3  STL d   1      -8.387  10.787  -7.761  0.00  0.00     0.069 A 
ATOM      8  H   STL d   1      -8.605  12.671  -8.771  0.00  0.00     0.089 H 
ATOM      9  C2  STL d   1      -9.122   9.683  -7.278  0.00  0.00    -0.019 A 
ATOM     10  C1  STL d   1     -10.526   9.616  -7.461  0.00  0.00     0.069 A 
ATOM     11  H   STL d   1      -8.608   8.880  -6.763  0.00  0.00     0.092 H 
ATOM     12  C6  STL d   1     -11.223  10.604  -8.097  0.00  0.00    -0.041 A 
ATOM     13  H   STL d   1     -12.301  10.555  -8.204  0.00  0.00     0.089 H 
BRANCH   7  14
ATOM     14  O2  STL d   1      -7.000  10.908  -7.679  0.00  0.00    -0.361 OA
ATOM     15  H   STL d   1      -6.780  11.705  -7.212  0.00  0.00     0.217 HD
ENDBRANCH   7  14
BRANCH  10  16
ATOM     16  O3  STL d   1     -11.294   8.591  -7.039  0.00  0.00    -0.361 OA
ATOM     17  H   STL d   1     -11.728   8.194  -7.785  0.00  0.00     0.217 HD
ENDBRANCH  10  16
ENDBRANCH   1   5
BRANCH   2  18
ATOM     18  C9  STL d   1      -9.707  13.452 -11.226  0.00  0.00    -0.036 A 
ATOM     19  C10 STL d   1      -9.021  12.335 -11.679  0.00  0.00    -0.070 A 
ATOM     20  C11 STL d   1      -7.775  12.457 -12.317  0.00  0.00    -0.050 A 
ATOM     21  H   STL d   1      -9.454  11.351 -11.539  0.00  0.00     0.084 H 
ATOM     22  C12 STL d   1      -7.225  13.700 -12.490  0.00  0.00     0.065 A 
ATOM     23  H   STL d   1      -7.253  11.575 -12.669  0.00  0.00     0.087 H 
ATOM     24  C13 STL d   1      -7.873  14.814 -11.997  0.00  0.00    -0.050 A 
ATOM     25  C14 STL d   1      -9.116  14.690 -11.366  0.00  0.00    -0.070 A 
ATOM     26  H   STL d   1      -7.416  15.792 -12.099  0.00  0.00     0.087 H 
ATOM     27  H   STL d   1      -9.617  15.572 -10.985  0.00  0.00     0.084 H 
BRANCH  22  28
ATOM     28  O1  STL d   1      -6.004  13.869 -13.063  0.00  0.00    -0.361 OA
ATOM     29  H   STL d   1      -5.674  13.028 -13.357  0.00  0.00     0.217 HD
ENDBRANCH  22  28
ENDBRANCH   2  18
TORSDOF 5
