REMARK  7 active torsions:
REMARK  status: ('A' for Active; 'I' for Inactive)
REMARK    1  A    between atoms: CP3_1  and  CP1_2 
REMARK    2  A    between atoms: CP1_2  and  CP2_3 
REMARK    3  A    between atoms: CP1_2  and  C44_4 
REMARK    4  A    between atoms: C41_9  and  N3_10 
REMARK       I    between atoms: N3_10  and  C3_11 
REMARK    5  A    between atoms: C3_11  and  C25_13 
REMARK    6  A    between atoms: C24_14  and  CM_15 
REMARK    7  A    between atoms: C21_18  and  C11_19 
ROOT
ATOM      1  N3  2ZW d   1      23.542 -17.491   7.251  0.00  0.00    -0.323 N 
ATOM      2  C3  2ZW d   1      24.848 -17.926   7.278  0.00  0.00     0.261 C 
ATOM      3  O3  2ZW d   1      25.803 -17.246   6.903  0.00  0.00    -0.267 OA
ATOM      4  H   2ZW d   1      22.864 -18.151   7.574  0.00  0.00     0.169 HD
ENDROOT
BRANCH   1   5
ATOM      5  C41 2ZW d   1      23.022 -16.241   6.830  0.00  0.00     0.035 A 
ATOM      6  C46 2ZW d   1      21.825 -15.823   7.403  0.00  0.00    -0.057 A 
ATOM      7  C45 2ZW d   1      21.217 -14.656   6.974  0.00  0.00    -0.074 A 
ATOM      8  H   2ZW d   1      21.367 -16.413   8.188  0.00  0.00     0.086 H 
ATOM      9  C44 2ZW d   1      21.782 -13.877   5.971  0.00  0.00    -0.055 A 
ATOM     10  H   2ZW d   1      20.284 -14.344   7.428  0.00  0.00     0.084 H 
ATOM     11  C43 2ZW d   1      22.982 -14.297   5.411  0.00  0.00    -0.074 A 
ATOM     12  C42 2ZW d   1      23.600 -15.462   5.833  0.00  0.00    -0.057 A 
ATOM     13  H   2ZW d   1      23.442 -13.702   4.630  0.00  0.00     0.084 H 
ATOM     14  H   2ZW d   1      24.538 -15.768   5.385  0.00  0.00     0.086 H 
BRANCH   9  15
ATOM     15  CP1 2ZW d   1      21.137 -12.575   5.518  0.00  0.00    -0.036 C 
ATOM     16  H   2ZW d   1      21.519 -12.364   4.508  0.00  0.00     0.046 H 
BRANCH  15  17
ATOM     17  CP3 2ZW d   1      21.546 -11.410   6.415  0.00  0.00    -0.069 C 
ATOM     18  H   2ZW d   1      21.064 -10.487   6.060  0.00  0.00     0.028 H 
ATOM     19  H   2ZW d   1      22.639 -11.288   6.382  0.00  0.00     0.028 H 
ATOM     20  H   2ZW d   1      21.230 -11.615   7.449  0.00  0.00     0.028 H 
ENDBRANCH  15  17
BRANCH  15  21
ATOM     21  CP2 2ZW d   1      19.616 -12.660   5.414  0.00  0.00    -0.069 C 
ATOM     22  H   2ZW d   1      19.340 -13.504   4.765  0.00  0.00     0.028 H 
ATOM     23  H   2ZW d   1      19.225 -11.725   4.987  0.00  0.00     0.028 H 
ATOM     24  H   2ZW d   1      19.188 -12.812   6.416  0.00  0.00     0.028 H 
ENDBRANCH  15  21
ENDBRANCH   9  15
ENDBRANCH   1   5
BRANCH   2  25
ATOM     25  C25 2ZW d   1      25.066 -19.295   7.794  0.00  0.00     0.095 A 
ATOM     26  C24 2ZW d   1      26.284 -19.818   8.150  0.00  0.00     0.093 A 
ATOM     27  O23 2ZW d   1      26.123 -21.106   8.503  0.00  0.00    -0.217 OA
ATOM     28  N22 2ZW d   1      24.759 -21.460   8.334  0.00  0.00    -0.127 NA
ATOM     29  C21 2ZW d   1      24.139 -20.378   7.904  0.00  0.00     0.114 A 
BRANCH  26  30
ATOM     30  CM  2ZW d   1      27.688 -19.343   8.085  0.00  0.00    -0.028 C 
ATOM     31  H   2ZW d   1      28.356 -20.115   8.494  0.00  0.00     0.036 H 
ATOM     32  H   2ZW d   1      27.791 -18.420   8.674  0.00  0.00     0.036 H 
ATOM     33  H   2ZW d   1      27.959 -19.142   7.038  0.00  0.00     0.036 H 
ENDBRANCH  26  30
BRANCH  29  34
ATOM     34  C11 2ZW d   1      22.688 -20.557   7.797  0.00  0.00     0.018 A 
ATOM     35  C12 2ZW d   1      22.139 -20.863   6.547  0.00  0.00     0.046 A 
ATOM     36 CL   2ZW d   1      23.144 -20.939   5.130  0.00  0.00    -0.083 Cl
ATOM     37  C13 2ZW d   1      20.768 -21.004   6.376  0.00  0.00    -0.061 A 
ATOM     38  C14 2ZW d   1      19.922 -20.780   7.449  0.00  0.00    -0.081 A 
ATOM     39  H   2ZW d   1      20.364 -21.287   5.411  0.00  0.00     0.086 H 
ATOM     40  C15 2ZW d   1      20.442 -20.413   8.677  0.00  0.00    -0.082 A 
ATOM     41  H   2ZW d   1      18.851 -20.892   7.327  0.00  0.00     0.083 H 
ATOM     42  C16 2ZW d   1      21.813 -20.298   8.851  0.00  0.00    -0.069 A 
ATOM     43  H   2ZW d   1      19.774 -20.214   9.508  0.00  0.00     0.083 H 
ATOM     44  H   2ZW d   1      22.208 -20.004   9.816  0.00  0.00     0.085 H 
ENDBRANCH  29  34
ENDBRANCH   2  25
TORSDOF 7
