REMARK  2 active torsions:
REMARK  status: ('A' for Active; 'I' for Inactive)
REMARK    1  A    between atoms: C7_1  and  C3_2 
REMARK    2  A    between atoms: C1_4  and  S1_5 
ROOT
ATOM      1  C3  M3T d   1      15.516   3.714  14.922  0.00  0.00    -0.061 A 
ATOM      2  C2  M3T d   1      15.976   2.406  15.033  0.00  0.00    -0.061 A 
ATOM      3  C1  M3T d   1      15.529   1.588  16.094  0.00  0.00    -0.002 A 
ATOM      4  C6  M3T d   1      14.651   2.077  17.005  0.00  0.00    -0.067 A 
ATOM      5  C5  M3T d   1      14.190   3.391  16.893  0.00  0.00    -0.081 A 
ATOM      6  C4  M3T d   1      14.635   4.205  15.836  0.00  0.00    -0.077 A 
ATOM      7  H4  M3T d   1      16.677   2.014  14.305  0.00  0.00     0.086 H 
ATOM      8  H6  M3T d   1      14.307   1.449  17.819  0.00  0.00     0.085 H 
ATOM      9  H7  M3T d   1      13.489   3.783  17.621  0.00  0.00     0.083 H 
ATOM     10  H8  M3T d   1      14.276   5.224  15.749  0.00  0.00     0.084 H 
ENDROOT
BRANCH   1  11
ATOM     11  C7  M3T d   1      15.960   4.529  13.866  0.00  0.00    -0.051 C 
ATOM     12  H1  M3T d   1      16.662   3.963  13.236  0.00  0.00     0.033 H 
ATOM     13  H2  M3T d   1      16.467   5.415  14.275  0.00  0.00     0.033 H 
ATOM     14  H3  M3T d   1      15.098   4.847  13.261  0.00  0.00     0.033 H 
ENDBRANCH   1  11
BRANCH   3  15
ATOM     15  S1  M3T d   1      16.145  -0.161  16.243  0.00  0.00    -0.143 SA
ATOM     16  H5  M3T d   1      15.727  -0.596  17.051  0.00  0.00     0.107 HD
ENDBRANCH   3  15
TORSDOF 2
