REMARK  5 active torsions:
REMARK  status: ('A' for Active; 'I' for Inactive)
REMARK    1  A    between atoms: C7_3  and  C8_4 
REMARK    2  A    between atoms: N2_7  and  C4_8 
REMARK    3  A    between atoms: C2_11  and  N4_12 
REMARK    4  A    between atoms: C6_14  and  C11_15 
REMARK    5  A    between atoms: C14_18  and  C15_19 
ROOT
ATOM      1  C4  KK3 d   1     -49.061 -47.543  29.279  0.00  0.00     0.147 A 
ATOM      2  C5  KK3 d   1     -49.951 -47.377  30.386  0.00  0.00    -0.009 A 
ATOM      3  N3  KK3 d   1     -49.476 -47.341  27.992  0.00  0.00    -0.045 NA
ATOM      4  C2  KK3 d   1     -50.814 -47.000  27.839  0.00  0.00     0.722 A 
ATOM      5  N1  KK3 d   1     -51.722 -46.828  28.819  0.00  0.00    -0.062 NA
ATOM      6  C6  KK3 d   1     -51.293 -47.019  30.088  0.00  0.00     0.089 A 
ATOM      7  H   KK3 d   1     -49.616 -47.518  31.407  0.00  0.00     0.093 H 
ENDROOT
BRANCH   1   8
ATOM      8  N2  KK3 d   1     -47.688 -47.866  29.322  0.00  0.00    -0.365 N 
ATOM      9  C1  KK3 d   1     -46.721 -46.965  28.601  0.00  0.00    -0.003 C 
ATOM     10  C3  KK3 d   1     -45.296 -47.115  29.123  0.00  0.00    -0.047 C 
ATOM     11  H   KK3 d   1     -46.734 -47.216  27.530  0.00  0.00     0.064 H 
ATOM     12  H   KK3 d   1     -47.040 -45.921  28.737  0.00  0.00     0.064 H 
ATOM     13  C7  KK3 d   1     -45.171 -46.806  30.629  0.00  0.00    -0.055 C 
ATOM     14  H   KK3 d   1     -44.645 -46.424  28.568  0.00  0.00     0.035 H 
ATOM     15  H   KK3 d   1     -44.966 -48.150  28.949  0.00  0.00     0.035 H 
ATOM     16  C9  KK3 d   1     -46.479 -47.172  31.335  0.00  0.00    -0.047 C 
ATOM     17  H   KK3 d   1     -44.360 -47.419  31.050  0.00  0.00     0.039 H 
ATOM     18  C10 KK3 d   1     -47.200 -48.310  30.638  0.00  0.00    -0.003 C 
ATOM     19  H   KK3 d   1     -47.136 -46.289  31.347  0.00  0.00     0.035 H 
ATOM     20  H   KK3 d   1     -46.253 -47.474  32.368  0.00  0.00     0.035 H 
ATOM     21  H   KK3 d   1     -48.053 -48.632  31.253  0.00  0.00     0.064 H 
ATOM     22  H   KK3 d   1     -46.506 -49.153  30.504  0.00  0.00     0.064 H 
BRANCH  13  23
ATOM     23  C8  KK3 d   1     -44.830 -45.337  30.847  0.00  0.00    -0.073 C 
ATOM     24  H   KK3 d   1     -44.745 -45.136  31.925  0.00  0.00     0.028 H 
ATOM     25  H   KK3 d   1     -45.625 -44.709  30.419  0.00  0.00     0.028 H 
ATOM     26  H   KK3 d   1     -43.874 -45.105  30.355  0.00  0.00     0.028 H 
ENDBRANCH  13  23
ENDBRANCH   1   8
BRANCH   6  27
ATOM     27  C11 KK3 d   1     -52.367 -46.814  31.114  0.00  0.00    -0.007 A 
ATOM     28  C12 KK3 d   1     -53.216 -47.880  31.475  0.00  0.00    -0.070 A 
ATOM     29  C13 KK3 d   1     -54.272 -47.697  32.392  0.00  0.00    -0.067 A 
ATOM     30  H   KK3 d   1     -53.054 -48.859  31.039  0.00  0.00     0.084 H 
ATOM     31  C14 KK3 d   1     -54.493 -46.436  32.947  0.00  0.00     0.048 A 
ATOM     32  H   KK3 d   1     -54.908 -48.531  32.664  0.00  0.00     0.084 H 
ATOM     33  C16 KK3 d   1     -53.687 -45.367  32.584  0.00  0.00    -0.067 A 
ATOM     34  C17 KK3 d   1     -52.643 -45.549  31.670  0.00  0.00    -0.070 A 
ATOM     35  H   KK3 d   1     -53.867 -44.387  33.010  0.00  0.00     0.084 H 
ATOM     36  H   KK3 d   1     -52.034 -44.699  31.384  0.00  0.00     0.084 H 
BRANCH  31  37
ATOM     37  C15 KK3 d   1     -55.636 -46.197  33.931  0.00  0.00     0.417 C 
ATOM     38  F1  KK3 d   1     -55.334 -45.465  35.025  0.00  0.00    -0.166 F 
ATOM     39  F2  KK3 d   1     -56.249 -47.325  34.386  0.00  0.00    -0.166 F 
ATOM     40  F3  KK3 d   1     -56.618 -45.481  33.352  0.00  0.00    -0.166 F 
ENDBRANCH  31  37
ENDBRANCH   6  27
BRANCH   4  41
ATOM     41  N4  KK3 d   1     -51.265 -46.803  26.534  0.00  0.00    -0.231 N 
ATOM     42  H   KK3 d   1     -50.617 -46.920  25.742  0.00  0.00     0.174 HD
ATOM     43  H   KK3 d   1     -52.246 -46.541  26.362  0.00  0.00     0.174 HD
ENDBRANCH   4  41
TORSDOF 5
