REMARK  6 active torsions:
REMARK  status: ('A' for Active; 'I' for Inactive)
REMARK    1  A    between atoms: C19_6  and  C22_7 
REMARK       I    between atoms: N18_8  and  C19_6 
REMARK    2  A    between atoms: C17_9  and  N18_8 
REMARK    3  A    between atoms: C16_10  and  C17_9 
REMARK    4  A    between atoms: C15_11  and  C16_10 
REMARK    5  A    between atoms: C14_12  and  C15_11 
REMARK    6  A    between atoms: C14_12  and  N1_13 
ROOT
ATOM      1  C2  30M d   1      24.575  51.209  -4.473  0.00  0.00     0.030 A 
ATOM      2  C3  30M d   1      23.225  51.778  -4.638  0.00  0.00    -0.011 C 
ATOM      3  C4  30M d   1      22.896  51.820  -6.114  0.00  0.00     0.000 C 
ATOM      4  C6  30M d   1      24.310  49.826  -6.494  0.00  0.00     0.254 C 
ATOM      5  N1  30M d   1      25.431  51.383  -3.452  0.00  0.00    -0.349 N 
ATOM      6  C7  30M d   1      25.097  50.310  -5.348  0.00  0.00     0.067 A 
ATOM      7  O21 30M d   1      24.601  48.805  -7.140  0.00  0.00    -0.268 OA
ATOM      8  N5  30M d   1      23.188  50.511  -6.740  0.00  0.00    -0.356 N 
ATOM      9  C8  30M d   1      26.360  49.895  -4.859  0.00  0.00     0.008 A 
ATOM     10  C9  30M d   1      26.555  50.578  -3.652  0.00  0.00     0.046 A 
ATOM     11  C10 30M d   1      27.684  50.434  -2.864  0.00  0.00    -0.056 A 
ATOM     12  C11 30M d   1      28.650  49.540  -3.271  0.00  0.00    -0.081 A 
ATOM     13  C12 30M d   1      28.506  48.820  -4.480  0.00  0.00    -0.082 A 
ATOM     14  C13 30M d   1      27.378  48.984  -5.286  0.00  0.00    -0.070 A 
ATOM     15  H1  30M d   1      23.199  52.797  -4.223  0.00  0.00     0.044 H 
ATOM     16  H2  30M d   1      22.491  51.149  -4.112  0.00  0.00     0.044 H 
ATOM     17  H3  30M d   1      23.503  52.598  -6.600  0.00  0.00     0.064 H 
ATOM     18  H4  30M d   1      21.829  52.054  -6.242  0.00  0.00     0.064 H 
ATOM     19  H17 30M d   1      22.518  50.123  -7.373  0.00  0.00     0.162 HD
ATOM     20  H18 30M d   1      27.805  51.008  -1.953  0.00  0.00     0.087 H 
ATOM     21  H19 30M d   1      29.530  49.387  -2.658  0.00  0.00     0.083 H 
ATOM     22  H20 30M d   1      29.284  48.130  -4.786  0.00  0.00     0.083 H 
ATOM     23  H21 30M d   1      27.275  48.434  -6.214  0.00  0.00     0.084 H 
ENDROOT
BRANCH   5  24
ATOM     24  C14 30M d   1      25.311  52.254  -2.297  0.00  0.00     0.000 C 
ATOM     25  H15 30M d   1      26.287  52.725  -2.107  0.00  0.00     0.064 H 
ATOM     26  H16 30M d   1      24.565  53.032  -2.517  0.00  0.00     0.064 H 
BRANCH  24  27
ATOM     27  C15 30M d   1      24.881  51.506  -1.049  0.00  0.00    -0.048 C 
ATOM     28  H13 30M d   1      25.587  50.678  -0.888  0.00  0.00     0.035 H 
ATOM     29  H14 30M d   1      24.933  52.203  -0.200  0.00  0.00     0.035 H 
BRANCH  27  30
ATOM     30  C16 30M d   1      23.496  50.932  -1.095  0.00  0.00    -0.049 C 
ATOM     31  H11 30M d   1      22.806  51.714  -1.445  0.00  0.00     0.035 H 
ATOM     32  H12 30M d   1      23.490  50.092  -1.806  0.00  0.00     0.035 H 
BRANCH  30  33
ATOM     33  C17 30M d   1      23.010  50.428   0.250  0.00  0.00    -0.005 C 
ATOM     34  H9  30M d   1      23.035  51.260   0.969  0.00  0.00     0.064 H 
ATOM     35  H10 30M d   1      21.976  50.069   0.140  0.00  0.00     0.064 H 
BRANCH  33  36
ATOM     36  N18 30M d   1      23.827  49.346   0.761  0.00  0.00    -0.361 N 
ATOM     37  C19 30M d   1      23.444  48.085   0.781  0.00  0.00     0.213 C 
ATOM     38  O20 30M d   1      22.335  47.741   0.275  0.00  0.00    -0.274 OA
ATOM     39  H8  30M d   1      24.734  49.569   1.119  0.00  0.00     0.162 HD
BRANCH  37  40
ATOM     40  C22 30M d   1      24.339  47.079   1.421  0.00  0.00    -0.003 C 
ATOM     41  H5  30M d   1      25.245  47.579   1.795  0.00  0.00     0.040 H 
ATOM     42  H6  30M d   1      24.621  46.315   0.681  0.00  0.00     0.040 H 
ATOM     43  H7  30M d   1      23.812  46.600   2.260  0.00  0.00     0.040 H 
ENDBRANCH  37  40
ENDBRANCH  33  36
ENDBRANCH  30  33
ENDBRANCH  27  30
ENDBRANCH  24  27
ENDBRANCH   5  24
TORSDOF 6
