REMARK  8 active torsions:
REMARK  status: ('A' for Active; 'I' for Inactive)
REMARK    1  A    between atoms: C2_2  and  S7_7 
REMARK    2  A    between atoms: C4_4  and  N16_16 
REMARK    3  A    between atoms: C6_6  and  N17_17 
REMARK    4  A    between atoms: S7_7  and  C8_8 
REMARK    5  A    between atoms: N16_16  and  C23_23 
REMARK    6  A    between atoms: N17_17  and  C18_18 
REMARK    7  A    between atoms: C20_20  and  C30_30 
REMARK    8  A    between atoms: C26_26  and  O29_29 
ROOT
ATOM      1  C1  30T d   1       5.221  24.441  20.693  0.00  0.00    -0.017 A 
ATOM      2  C2  30T d   1       5.792  24.863  19.505  0.00  0.00     0.071 A 
ATOM      3  C3  30T d   1       4.998  24.971  18.359  0.00  0.00    -0.018 A 
ATOM      4  C4  30T d   1       3.621  24.653  18.452  0.00  0.00     0.127 A 
ATOM      5  N5  30T d   1       3.090  24.244  19.613  0.00  0.00    -0.214 NA
ATOM      6  C6  30T d   1       3.864  24.125  20.708  0.00  0.00     0.132 A 
ATOM      7  H1  30T d   1       5.818  24.358  21.594  0.00  0.00     0.091 H 
ATOM      8  H2  30T d   1       5.428  25.292  17.417  0.00  0.00     0.091 H 
ENDROOT
BRANCH   4   9
ATOM      9  N16 30T d   1       2.738  24.707  17.426  0.00  0.00    -0.370 N 
ATOM     10  H8  30T d   1       2.986  25.236  16.578  0.00  0.00     0.161 HD
BRANCH   9  11
ATOM     11  C23 30T d   1       1.444  24.034  17.492  0.00  0.00     0.011 C 
ATOM     12  C24 30T d   1       1.597  22.624  16.937  0.00  0.00    -0.044 C 
ATOM     13  C25 30T d   1       0.259  21.888  16.908  0.00  0.00    -0.039 C 
ATOM     14  H13 30T d   1       2.300  22.064  17.572  0.00  0.00     0.036 H 
ATOM     15  H14 30T d   1       1.995  22.684  15.913  0.00  0.00     0.036 H 
ATOM     16  C26 30T d   1      -0.853  22.626  16.140  0.00  0.00     0.035 C 
ATOM     17  H15 30T d   1      -0.077  21.742  17.945  0.00  0.00     0.036 H 
ATOM     18  H16 30T d   1       0.415  20.909  16.432  0.00  0.00     0.036 H 
ATOM     19  C27 30T d   1      -0.921  24.124  16.458  0.00  0.00    -0.039 C 
ATOM     20  H17 30T d   1      -0.679  22.501  15.061  0.00  0.00     0.082 H 
ATOM     21  C28 30T d   1       0.444  24.783  16.619  0.00  0.00    -0.044 C 
ATOM     22  H18 30T d   1      -1.481  24.254  17.396  0.00  0.00     0.036 H 
ATOM     23  H19 30T d   1      -1.455  24.628  15.639  0.00  0.00     0.036 H 
ATOM     24  H20 30T d   1       0.886  24.892  15.618  0.00  0.00     0.036 H 
ATOM     25  H21 30T d   1       0.288  25.778  17.062  0.00  0.00     0.036 H 
ATOM     26  H12 30T d   1       1.089  23.998  18.532  0.00  0.00     0.072 H 
BRANCH  16  27
ATOM     27  O29 30T d   1      -2.112  22.039  16.500  0.00  0.00    -0.396 OA
ATOM     28  H22 30T d   1      -2.092  21.108  16.311  0.00  0.00     0.210 HD
ENDBRANCH  16  27
ENDBRANCH   9  11
ENDBRANCH   4   9
BRANCH   2  29
ATOM     29  S7  30T d   1       7.357  25.219  19.522  0.00  0.00     0.207 S 
ATOM     30  O14 30T d   1       7.740  25.606  18.194  0.00  0.00    -0.217 OA
ATOM     31  O15 30T d   1       8.160  24.110  19.995  0.00  0.00    -0.217 OA
BRANCH  29  32
ATOM     32  C8  30T d   1       7.754  26.419  20.540  0.00  0.00     0.064 A 
ATOM     33  C9  30T d   1       7.248  27.716  20.394  0.00  0.00    -0.062 A 
ATOM     34  C10 30T d   1       7.626  28.709  21.294  0.00  0.00    -0.082 A 
ATOM     35  H3  30T d   1       6.565  27.946  19.584  0.00  0.00     0.085 H 
ATOM     36  C11 30T d   1       8.518  28.435  22.337  0.00  0.00    -0.083 A 
ATOM     37  H4  30T d   1       7.223  29.709  21.185  0.00  0.00     0.083 H 
ATOM     38  C12 30T d   1       9.041  27.151  22.494  0.00  0.00    -0.082 A 
ATOM     39  H5  30T d   1       8.803  29.223  23.025  0.00  0.00     0.083 H 
ATOM     40  C13 30T d   1       8.650  26.159  21.592  0.00  0.00    -0.062 A 
ATOM     41  H6  30T d   1       9.734  26.929  23.297  0.00  0.00     0.083 H 
ATOM     42  H7  30T d   1       9.050  25.158  21.706  0.00  0.00     0.085 H 
ENDBRANCH  29  32
ENDBRANCH   2  29
BRANCH   6  43
ATOM     43  N17 30T d   1       3.269  23.733  21.843  0.00  0.00    -0.324 N 
ATOM     44  H9  30T d   1       3.843  23.583  22.685  0.00  0.00     0.169 HD
BRANCH  43  45
ATOM     45  C18 30T d   1       1.934  23.530  21.910  0.00  0.00     0.151 A 
ATOM     46  C19 30T d   1       0.845  23.510  21.067  0.00  0.00    -0.009 A 
ATOM     47  C20 30T d   1      -0.184  23.156  21.933  0.00  0.00     0.064 A 
ATOM     48  H10 30T d   1       0.801  23.718  19.999  0.00  0.00     0.093 H 
ATOM     49  N21 30T d   1       0.197  22.957  23.171  0.00  0.00    -0.276 N 
ATOM     50  N22 30T d   1       1.558  23.213  23.132  0.00  0.00    -0.156 NA
ATOM     51  H11 30T d   1      -0.377  22.677  23.979  0.00  0.00     0.189 HD
BRANCH  47  52
ATOM     52  C30 30T d   1      -1.618  22.926  21.827  0.00  0.00    -0.008 A 
ATOM     53  C31 30T d   1      -2.241  22.351  22.920  0.00  0.00    -0.071 A 
ATOM     54  C32 30T d   1      -3.600  22.106  22.800  0.00  0.00    -0.082 A 
ATOM     55  H23 30T d   1      -1.695  22.105  23.823  0.00  0.00     0.084 H 
ATOM     56  C33 30T d   1      -4.329  22.467  21.643  0.00  0.00    -0.083 A 
ATOM     57  H24 30T d   1      -4.120  21.622  23.619  0.00  0.00     0.083 H 
ATOM     58  C34 30T d   1      -3.672  23.070  20.580  0.00  0.00    -0.082 A 
ATOM     59  H25 30T d   1      -5.394  22.274  21.587  0.00  0.00     0.083 H 
ATOM     60  C35 30T d   1      -2.283  23.300  20.662  0.00  0.00    -0.071 A 
ATOM     61  H26 30T d   1      -4.222  23.362  19.693  0.00  0.00     0.083 H 
ATOM     62  H27 30T d   1      -1.746  23.757  19.838  0.00  0.00     0.084 H 
ENDBRANCH  47  52
ENDBRANCH  43  45
ENDBRANCH   6  43
TORSDOF 8
