REMARK  11 active torsions:
REMARK  status: ('A' for Active; 'I' for Inactive)
REMARK    1  A    between atoms: N_1  and  CA_2 
REMARK    2  A    between atoms: CA_2  and  CB_3 
REMARK    3  A    between atoms: CA_2  and  C_6 
REMARK    4  A    between atoms: CB_3  and  CG_4 
REMARK    5  A    between atoms: CG_4  and  SD_5 
REMARK    6  A    between atoms: SD_5  and  C5'_9 
REMARK    7  A    between atoms: C5'_9  and  C4'_10 
REMARK    8  A    between atoms: C3'_12  and  O3'_13 
REMARK    9  A    between atoms: C2'_14  and  O2'_15 
REMARK   10  A    between atoms: C1'_16  and  N9_17 
REMARK   11  A    between atoms: C6_21  and  N6_22 
ROOT
ATOM      1  C4' SAH d   1      21.046   5.193  11.399  0.00  0.00     0.076 C 
ATOM      2  O4' SAH d   1      20.254   4.314  10.625  0.00  0.00    -0.355 OA
ATOM      3  C3' SAH d   1      21.733   6.137  10.419  0.00  0.00     0.090 C 
ATOM      4  C2' SAH d   1      21.235   5.708   9.051  0.00  0.00     0.105 C 
ATOM      5  C1' SAH d   1      20.769   4.286   9.313  0.00  0.00     0.139 C 
ATOM      6  H   SAH d   1      21.812   4.621  11.942  0.00  0.00     0.088 H 
ATOM      7  H   SAH d   1      21.483   7.188  10.626  0.00  0.00     0.091 H 
ATOM      8  H   SAH d   1      20.398   6.342   8.723  0.00  0.00     0.093 H 
ATOM      9  H   SAH d   1      21.631   3.604   9.261  0.00  0.00     0.122 H 
ENDROOT
BRANCH   1  10
ATOM     10  C5' SAH d   1      20.171   5.913  12.418  0.00  0.00     0.003 C 
ATOM     11  H   SAH d   1      19.529   6.632  11.888  0.00  0.00     0.052 H 
ATOM     12  H   SAH d   1      19.543   5.171  12.933  0.00  0.00     0.052 H 
BRANCH  10  13
ATOM     13  SD  SAH d   1      21.149   6.804  13.651  0.00  0.00    -0.166 SA
BRANCH  13  14
ATOM     14  CG  SAH d   1      21.172   5.351  14.736  0.00  0.00    -0.021 C 
ATOM     15  H   SAH d   1      20.947   5.672  15.764  0.00  0.00     0.049 H 
ATOM     16  H   SAH d   1      20.402   4.642  14.396  0.00  0.00     0.049 H 
BRANCH  14  17
ATOM     17  CB  SAH d   1      22.526   4.650  14.725  0.00  0.00    -0.021 C 
ATOM     18  H   SAH d   1      22.684   4.233  13.720  0.00  0.00     0.037 H 
ATOM     19  H   SAH d   1      23.300   5.403  14.936  0.00  0.00     0.037 H 
BRANCH  17  20
ATOM     20  CA  SAH d   1      22.684   3.518  15.734  0.00  0.00     0.183 C 
ATOM     21  H   SAH d   1      23.652   3.026  15.556  0.00  0.00     0.101 H 
BRANCH  20  22
ATOM     22  N   SAH d   1      21.629   2.520  15.587  0.00  0.00    -0.065 N 
ATOM     23  H   SAH d   1      21.643   2.152  14.649  0.00  0.00     0.275 HD
ATOM     24  H   SAH d   1      20.734   2.948  15.766  0.00  0.00     0.275 HD
ATOM     25  H   SAH d   1      21.781   1.771  16.244  0.00  0.00     0.275 HD
ENDBRANCH  20  22
BRANCH  20  26
ATOM     26  C   SAH d   1      22.679   4.086  17.144  0.00  0.00     0.204 C 
ATOM     27  O   SAH d   1      23.697   4.582  17.628  0.00  0.00    -0.646 OA
ATOM     28  OXT SAH d   1      21.655   4.058  17.827  0.00  0.00    -0.646 OA
ENDBRANCH  20  26
ENDBRANCH  17  20
ENDBRANCH  14  17
ENDBRANCH  13  14
ENDBRANCH  10  13
ENDBRANCH   1  10
BRANCH   3  29
ATOM     29  O3' SAH d   1      23.125   5.931  10.500  0.00  0.00    -0.390 OA
ATOM     30  H   SAH d   1      23.324   5.029  10.276  0.00  0.00     0.210 HD
ENDBRANCH   3  29
BRANCH   5  31
ATOM     31  N9  SAH d   1      19.749   3.810   8.364  0.00  0.00    -0.294 N 
ATOM     32  C8  SAH d   1      18.655   4.492   7.902  0.00  0.00     0.071 A 
ATOM     33  N7  SAH d   1      17.981   3.684   7.051  0.00  0.00    -0.236 NA
ATOM     34  H   SAH d   1      18.376   5.509   8.173  0.00  0.00     0.144 H 
ATOM     35  C5  SAH d   1      18.630   2.499   6.969  0.00  0.00     0.149 A 
ATOM     36  C6  SAH d   1      18.378   1.335   6.254  0.00  0.00     0.155 A 
ATOM     37  C4  SAH d   1      19.744   2.568   7.789  0.00  0.00     0.167 A 
ATOM     38  N1  SAH d   1      19.242   0.267   6.369  0.00  0.00    -0.222 NA
ATOM     39  C2  SAH d   1      20.345   0.354   7.197  0.00  0.00     0.091 A 
ATOM     40  N3  SAH d   1      20.589   1.514   7.902  0.00  0.00    -0.222 NA
ATOM     41  H   SAH d   1      21.019  -0.490   7.292  0.00  0.00     0.146 H 
BRANCH  36  42
ATOM     42  N6  SAH d   1      17.316   1.250   5.457  0.00  0.00    -0.382 N 
ATOM     43  H   SAH d   1      17.136   0.384   4.930  0.00  0.00     0.157 HD
ATOM     44  H   SAH d   1      16.674   2.051   5.367  0.00  0.00     0.157 HD
ENDBRANCH  36  42
ENDBRANCH   5  31
BRANCH   4  45
ATOM     45  O2' SAH d   1      22.250   5.750   8.075  0.00  0.00    -0.388 OA
ATOM     46  H   SAH d   1      22.956   5.166   8.328  0.00  0.00     0.210 HD
ENDBRANCH   4  45
TORSDOF 11
