REMARK  3 active torsions:
REMARK  status: ('A' for Active; 'I' for Inactive)
REMARK    1  A    between atoms: C1_1  and  C2_4 
REMARK    2  A    between atoms: C3_5  and  C1'_6 
REMARK    3  A    between atoms: C4'_9  and  O4'_12 
ROOT
ATOM      1  C1' HC4 d   1       2.124 -19.887  -4.760  0.00  0.00    -0.036 A 
ATOM      2  C2' HC4 d   1       1.778 -19.819  -3.397  0.00  0.00    -0.070 A 
ATOM      3  C3' HC4 d   1       0.706 -18.968  -3.011  0.00  0.00    -0.050 A 
ATOM      4  C4' HC4 d   1      -0.030 -18.291  -4.010  0.00  0.00     0.065 A 
ATOM      5  C5' HC4 d   1       0.289 -18.380  -5.376  0.00  0.00    -0.050 A 
ATOM      6  C6' HC4 d   1       1.410 -19.161  -5.732  0.00  0.00    -0.070 A 
ATOM      7  H   HC4 d   1       2.317 -20.402  -2.659  0.00  0.00     0.084 H 
ATOM      8  H   HC4 d   1       0.456 -18.840  -1.964  0.00  0.00     0.087 H 
ATOM      9  H   HC4 d   1      -0.303 -17.869  -6.127  0.00  0.00     0.087 H 
ATOM     10  H   HC4 d   1       1.725 -19.202  -6.768  0.00  0.00     0.084 H 
ENDROOT
BRANCH   1  11
ATOM     11  C3  HC4 d   1       3.287 -20.745  -5.133  0.00  0.00    -0.067 C 
ATOM     12  C2  HC4 d   1       4.078 -20.304  -6.104  0.00  0.00    -0.009 C 
ATOM     13  H   HC4 d   1       3.833 -19.352  -6.572  0.00  0.00     0.094 H 
ATOM     14  H   HC4 d   1       3.478 -21.692  -4.630  0.00  0.00     0.085 H 
BRANCH  12  15
ATOM     15  C1  HC4 d   1       5.264 -21.025  -6.583  0.00  0.00     0.198 C 
ATOM     16  O1  HC4 d   1       6.002 -21.602  -5.729  0.00  0.00    -0.645 OA
ATOM     17  O2  HC4 d   1       5.494 -21.125  -7.848  0.00  0.00    -0.645 OA
ENDBRANCH  12  15
ENDBRANCH   1  11
BRANCH   4  18
ATOM     18  O4' HC4 d   1      -1.037 -17.500  -3.562  0.00  0.00    -0.361 OA
ATOM     19  H   HC4 d   1      -0.859 -16.598  -3.800  0.00  0.00     0.217 HD
ENDBRANCH   4  18
TORSDOF 3
