REMARK  5 active torsions:
REMARK  status: ('A' for Active; 'I' for Inactive)
REMARK    1  A    between atoms: C1_1  and  O3_17 
REMARK    2  A    between atoms: C3_3  and  O2_16 
REMARK    3  A    between atoms: C5_5  and  C7_7 
REMARK    4  A    between atoms: C8_8  and  C9_9 
REMARK    5  A    between atoms: C12_12  and  O1_15 
ROOT
ATOM      1  C7  STL d   1      -5.824  21.880   5.458  0.00  0.00    -0.072 C 
ATOM      2  C8  STL d   1      -5.264  22.839   4.746  0.00  0.00    -0.072 C 
ATOM      3  H   STL d   1      -6.861  22.075   5.729  0.00  0.00     0.084 H 
ATOM      4  H   STL d   1      -4.216  22.800   4.452  0.00  0.00     0.084 H 
ENDROOT
BRANCH   1   5
ATOM      5  C5  STL d   1      -5.305  20.597   5.952  0.00  0.00    -0.031 A 
ATOM      6  C4  STL d   1      -5.076  20.389   7.331  0.00  0.00    -0.041 A 
ATOM      7  C3  STL d   1      -4.630  19.094   7.766  0.00  0.00     0.069 A 
ATOM      8  H   STL d   1      -5.233  21.189   8.045  0.00  0.00     0.089 H 
ATOM      9  C2  STL d   1      -4.390  18.056   6.836  0.00  0.00    -0.019 A 
ATOM     10  C1  STL d   1      -4.598  18.278   5.482  0.00  0.00     0.069 A 
ATOM     11  H   STL d   1      -4.044  17.088   7.180  0.00  0.00     0.092 H 
ATOM     12  C6  STL d   1      -5.081  19.545   5.019  0.00  0.00    -0.041 A 
ATOM     13  H   STL d   1      -5.275  19.702   3.964  0.00  0.00     0.089 H 
BRANCH   7  14
ATOM     14  O2  STL d   1      -4.377  18.821   9.094  0.00  0.00    -0.361 OA
ATOM     15  H   STL d   1      -5.169  18.956   9.601  0.00  0.00     0.217 HD
ENDBRANCH   7  14
BRANCH  10  16
ATOM     16  O3  STL d   1      -4.341  17.219   4.674  0.00  0.00    -0.361 OA
ATOM     17  H   STL d   1      -4.031  16.490   5.198  0.00  0.00     0.217 HD
ENDBRANCH  10  16
ENDBRANCH   1   5
BRANCH   2  18
ATOM     18  C9  STL d   1      -6.149  23.981   4.366  0.00  0.00    -0.036 A 
ATOM     19  C10 STL d   1      -6.218  24.356   3.006  0.00  0.00    -0.070 A 
ATOM     20  C11 STL d   1      -7.099  25.439   2.661  0.00  0.00    -0.050 A 
ATOM     21  H   STL d   1      -5.630  23.847   2.251  0.00  0.00     0.084 H 
ATOM     22  C12 STL d   1      -7.809  26.166   3.657  0.00  0.00     0.065 A 
ATOM     23  H   STL d   1      -7.225  25.708   1.618  0.00  0.00     0.087 H 
ATOM     24  C13 STL d   1      -7.710  25.811   5.017  0.00  0.00    -0.050 A 
ATOM     25  C14 STL d   1      -6.897  24.687   5.335  0.00  0.00    -0.070 A 
ATOM     26  H   STL d   1      -8.230  26.369   5.787  0.00  0.00     0.087 H 
ATOM     27  H   STL d   1      -6.849  24.358   6.367  0.00  0.00     0.084 H 
BRANCH  22  28
ATOM     28  O1  STL d   1      -8.640  27.175   3.244  0.00  0.00    -0.361 OA
ATOM     29  H   STL d   1      -9.535  26.963   3.481  0.00  0.00     0.217 HD
ENDBRANCH  22  28
ENDBRANCH   2  18
TORSDOF 5
