REMARK  10 active torsions:
REMARK  status: ('A' for Active; 'I' for Inactive)
REMARK    1  A    between atoms: CAW_1  and  OAU_2 
REMARK    2  A    between atoms: OAU_2  and  CAT_3 
REMARK    3  A    between atoms: CAT_3  and  CAS_5 
REMARK    4  A    between atoms: CAS_5  and  CBD_6 
REMARK    5  A    between atoms: CAS_5  and  CAI_8 
REMARK    6  A    between atoms: CBD_6  and  CBE_7 
REMARK    7  A    between atoms: CAP_13  and  CAR_14 
REMARK    8  A    between atoms: CAB_19  and  OAL_20 
REMARK    9  A    between atoms: OAL_20  and  CAM_21 
REMARK   10  A    between atoms: CAG_24  and  CAQ_25 
ROOT
ATOM      1  CAI 31P d   1      69.750  -6.894  71.713  0.00  0.00     0.104 C 
ATOM      2  NAH 31P d   1      69.612  -6.375  73.111  0.00  0.00    -0.274 NA
ATOM      3  CAJ 31P d   1      68.783  -6.188  70.960  0.00  0.00     0.161 A 
ATOM      4  NAN 31P d   1      67.625  -6.656  70.456  0.00  0.00    -0.132 NA
ATOM      5  NAO 31P d   1      67.053  -5.684  69.856  0.00  0.00    -0.135 NA
ATOM      6  CAP 31P d   1      67.835  -4.593  69.964  0.00  0.00     0.131 A 
ATOM      7  NAK 31P d   1      68.928  -4.890  70.665  0.00  0.00    -0.282 N 
ATOM      8  CAE 31P d   1      70.021  -4.216  71.089  0.00  0.00     0.055 A 
ATOM      9  CAF 31P d   1      70.650  -3.380  70.159  0.00  0.00    -0.053 A 
ATOM     10  CAA 31P d   1      71.807  -2.678  70.516  0.00  0.00    -0.049 A 
ATOM     11  CAB 31P d   1      72.357  -2.812  71.795  0.00  0.00     0.069 A 
ATOM     12  CAC 31P d   1      71.736  -3.651  72.713  0.00  0.00    -0.036 A 
ATOM     13  CAD 31P d   1      70.575  -4.337  72.379  0.00  0.00     0.023 A 
ATOM     14  CAG 31P d   1      70.069  -5.139  73.407  0.00  0.00     0.074 C 
ATOM     15  H10 31P d   1      70.731  -6.556  71.349  0.00  0.00     0.089 H 
ATOM     16  H14 31P d   1      70.240  -3.276  69.161  0.00  0.00     0.087 H 
ATOM     17  H15 31P d   1      72.282  -2.024  69.794  0.00  0.00     0.087 H 
ATOM     18  H19 31P d   1      72.163  -3.772  73.702  0.00  0.00     0.089 H 
ENDROOT
BRANCH   1  19
ATOM     19  CAS 31P d   1      69.795  -8.414  71.557  0.00  0.00     0.058 C 
ATOM     20  H4  31P d   1      68.784  -8.836  71.661  0.00  0.00     0.059 H 
BRANCH  19  21
ATOM     21  CAT 31P d   1      70.789  -8.974  72.588  0.00  0.00     0.265 C 
ATOM     22  OAV 31P d   1      71.747  -8.310  73.003  0.00  0.00    -0.265 OA
BRANCH  21  23
ATOM     23  OAU 31P d   1      70.618 -10.280  72.862  0.00  0.00    -0.326 OA
BRANCH  23  24
ATOM     24  CAW 31P d   1      71.869 -10.958  73.041  0.00  0.00     0.013 C 
ATOM     25  H1  31P d   1      71.683 -12.019  73.262  0.00  0.00     0.067 H 
ATOM     26  H2  31P d   1      72.418 -10.500  73.877  0.00  0.00     0.067 H 
ATOM     27  H3  31P d   1      72.466 -10.875  72.121  0.00  0.00     0.067 H 
ENDBRANCH  23  24
ENDBRANCH  21  23
ENDBRANCH  19  21
BRANCH  19  28
ATOM     28  CBD 31P d   1      70.469  -8.875  70.279  0.00  0.00    -0.054 C 
ATOM     29  H5  31P d   1      70.154  -9.909  70.073  0.00  0.00     0.033 H 
ATOM     30  H6  31P d   1      71.558  -8.846  70.430  0.00  0.00     0.033 H 
BRANCH  28  31
ATOM     31  CBE 31P d   1      70.130  -8.022  69.073  0.00  0.00    -0.076 C 
ATOM     32  H7  31P d   1      70.652  -8.414  68.188  0.00  0.00     0.027 H 
ATOM     33  H8  31P d   1      70.448  -6.985  69.256  0.00  0.00     0.027 H 
ATOM     34  H9  31P d   1      69.044  -8.047  68.899  0.00  0.00     0.027 H 
ENDBRANCH  28  31
ENDBRANCH  19  28
ENDBRANCH   1  19
BRANCH  14  35
ATOM     35  CAQ 31P d   1      69.935  -4.629  74.717  0.00  0.00    -0.007 A 
ATOM     36  CAX 31P d   1      69.689  -3.266  74.956  0.00  0.00    -0.069 A 
ATOM     37  CAY 31P d   1      69.558  -2.778  76.263  0.00  0.00    -0.061 A 
ATOM     38  H20 31P d   1      69.600  -2.584  74.119  0.00  0.00     0.085 H 
ATOM     39  CAZ 31P d   1      69.659  -3.648  77.337  0.00  0.00     0.034 A 
ATOM     40  H21 31P d   1      69.378  -1.723  76.434  0.00  0.00     0.086 H 
ATOM     41 CL1  31P d   1      69.493  -3.073  78.963  0.00  0.00    -0.084 Cl
ATOM     42  CBA 31P d   1      69.905  -5.000  77.111  0.00  0.00    -0.061 A 
ATOM     43  CBB 31P d   1      70.039  -5.488  75.812  0.00  0.00    -0.069 A 
ATOM     44  H22 31P d   1      69.993  -5.678  77.952  0.00  0.00     0.086 H 
ATOM     45  H23 31P d   1      70.226  -6.544  75.651  0.00  0.00     0.085 H 
ENDBRANCH  14  35
BRANCH   6  46
ATOM     46  CAR 31P d   1      67.519  -3.229  69.370  0.00  0.00    -0.019 C 
ATOM     47  H11 31P d   1      66.554  -3.273  68.844  0.00  0.00     0.037 H 
ATOM     48  H12 31P d   1      68.310  -2.946  68.660  0.00  0.00     0.037 H 
ATOM     49  H13 31P d   1      67.465  -2.482  70.175  0.00  0.00     0.037 H 
ENDBRANCH   6  46
BRANCH  11  50
ATOM     50  OAL 31P d   1      73.481  -2.163  72.236  0.00  0.00    -0.356 OA
BRANCH  50  51
ATOM     51  CAM 31P d   1      74.253  -1.404  71.289  0.00  0.00     0.010 C 
ATOM     52  H16 31P d   1      75.115  -0.949  71.799  0.00  0.00     0.066 H 
ATOM     53  H17 31P d   1      73.625  -0.612  70.854  0.00  0.00     0.066 H 
ATOM     54  H18 31P d   1      74.610  -2.070  70.489  0.00  0.00     0.066 H 
ENDBRANCH  50  51
ENDBRANCH  11  50
TORSDOF 10
