REMARK  5 active torsions:
REMARK  status: ('A' for Active; 'I' for Inactive)
REMARK    1  A    between atoms: C10_10  and  C19_19 
REMARK    2  A    between atoms: C13_13  and  C18_18 
REMARK    3  A    between atoms: C17_17  and  C20_20 
REMARK    4  A    between atoms: C20_20  and  C21_21 
REMARK    5  A    between atoms: C21_21  and  O4_25 
ROOT
ATOM      1  C1  C0R d   1      21.886   9.797  -7.078  0.00  0.00    -0.048 C 
ATOM      2  C2  C0R d   1      21.716  10.868  -8.135  0.00  0.00    -0.005 C 
ATOM      3  C3  C0R d   1      22.134  10.353  -9.464  0.00  0.00     0.149 C 
ATOM      4  C4  C0R d   1      21.818   8.950  -9.799  0.00  0.00    -0.036 C 
ATOM      5  C5  C0R d   1      21.554   8.076  -8.806  0.00  0.00    -0.067 C 
ATOM      6  C6  C0R d   1      21.584   6.614  -9.184  0.00  0.00    -0.043 C 
ATOM      7  C7  C0R d   1      21.781   5.671  -8.055  0.00  0.00    -0.057 C 
ATOM      8  C8  C0R d   1      21.245   6.156  -6.719  0.00  0.00    -0.039 C 
ATOM      9  C9  C0R d   1      21.618   7.538  -6.292  0.00  0.00     0.018 C 
ATOM     10  C10 C0R d   1      21.209   8.538  -7.397  0.00  0.00    -0.009 C 
ATOM     11  C11 C0R d   1      21.187   7.914  -4.815  0.00  0.00     0.133 C 
ATOM     12  C12 C0R d   1      20.517   6.780  -3.984  0.00  0.00    -0.002 C 
ATOM     13  C13 C0R d   1      20.490   5.353  -4.554  0.00  0.00    -0.023 C 
ATOM     14  C14 C0R d   1      21.577   5.236  -5.595  0.00  0.00    -0.042 C 
ATOM     15  C15 C0R d   1      21.819   3.822  -5.887  0.00  0.00    -0.060 C 
ATOM     16  C16 C0R d   1      22.020   3.522  -4.465  0.00  0.00    -0.054 C 
ATOM     17  C17 C0R d   1      20.849   4.098  -3.736  0.00  0.00     0.014 C 
ATOM     18  O1  C0R d   1      22.628  11.119 -10.230  0.00  0.00    -0.293 OA
ATOM     19  O2  C0R d   1      20.822   9.147  -4.711  0.00  0.00    -0.297 OA
ATOM     20  H   C0R d   1      21.480  10.178  -6.130  0.00  0.00     0.035 H 
ATOM     21  H   C0R d   1      22.960   9.593  -6.961  0.00  0.00     0.035 H 
ATOM     22  H   C0R d   1      22.335  11.738  -7.872  0.00  0.00     0.044 H 
ATOM     23  H   C0R d   1      20.659  11.170  -8.179  0.00  0.00     0.044 H 
ATOM     24  H   C0R d   1      21.798   8.624 -10.838  0.00  0.00     0.089 H 
ATOM     25  H   C0R d   1      22.407   6.465  -9.899  0.00  0.00     0.039 H 
ATOM     26  H   C0R d   1      20.628   6.369  -9.669  0.00  0.00     0.039 H 
ATOM     27  H   C0R d   1      22.860   5.489  -7.945  0.00  0.00     0.034 H 
ATOM     28  H   C0R d   1      21.274   4.727  -8.305  0.00  0.00     0.034 H 
ATOM     29  H   C0R d   1      20.151   6.153  -6.828  0.00  0.00     0.042 H 
ATOM     30  H   C0R d   1      22.718   7.558  -6.270  0.00  0.00     0.054 H 
ATOM     31  H   C0R d   1      19.472   7.079  -3.815  0.00  0.00     0.045 H 
ATOM     32  H   C0R d   1      21.045   6.732  -3.020  0.00  0.00     0.045 H 
ATOM     33  H   C0R d   1      22.511   5.616  -5.155  0.00  0.00     0.041 H 
ATOM     34  H   C0R d   1      22.710   3.644  -6.508  0.00  0.00     0.033 H 
ATOM     35  H   C0R d   1      20.954   3.307  -6.330  0.00  0.00     0.033 H 
ATOM     36  H   C0R d   1      22.953   3.983  -4.108  0.00  0.00     0.034 H 
ATOM     37  H   C0R d   1      22.066   2.434  -4.310  0.00  0.00     0.034 H 
ATOM     38  H   C0R d   1      21.055   4.412  -2.702  0.00  0.00     0.053 H 
ENDROOT
BRANCH  17  39
ATOM     39  C20 C0R d   1      20.090   2.787  -3.735  0.00  0.00     0.154 C 
ATOM     40  O3  C0R d   1      20.430   1.920  -3.002  0.00  0.00    -0.295 OA
BRANCH  39  41
ATOM     41  C21 C0R d   1      18.946   2.376  -4.579  0.00  0.00     0.072 C 
ATOM     42  H   C0R d   1      19.081   2.735  -5.610  0.00  0.00     0.085 H 
ATOM     43  H   C0R d   1      18.005   2.775  -4.172  0.00  0.00     0.085 H 
BRANCH  41  44
ATOM     44  O4  C0R d   1      18.938   0.960  -4.546  0.00  0.00    -0.394 OA
ATOM     45  H   C0R d   1      18.831   0.666  -3.649  0.00  0.00     0.209 HD
ENDBRANCH  41  44
ENDBRANCH  39  41
ENDBRANCH  17  39
BRANCH  13  46
ATOM     46  C18 C0R d   1      19.119   5.278  -5.142  0.00  0.00    -0.068 C 
ATOM     47  H   C0R d   1      18.915   6.195  -5.713  0.00  0.00     0.028 H 
ATOM     48  H   C0R d   1      18.379   5.176  -4.335  0.00  0.00     0.028 H 
ATOM     49  H   C0R d   1      19.054   4.407  -5.811  0.00  0.00     0.028 H 
ENDBRANCH  13  46
BRANCH  10  50
ATOM     50  C19 C0R d   1      20.000   8.883  -8.088  0.00  0.00    -0.065 C 
ATOM     51  H   C0R d   1      20.209   9.682  -8.815  0.00  0.00     0.028 H 
ATOM     52  H   C0R d   1      19.251   9.234  -7.363  0.00  0.00     0.028 H 
ATOM     53  H   C0R d   1      19.614   7.998  -8.616  0.00  0.00     0.028 H 
ENDBRANCH  10  50
TORSDOF 5
