REMARK  9 active torsions:
REMARK  status: ('A' for Active; 'I' for Inactive)
REMARK    1  A    between atoms: N1_1  and  C2_2 
REMARK    2  A    between atoms: C2_2  and  C3_3 
REMARK    3  A    between atoms: C3_3  and  C4_4 
REMARK    4  A    between atoms: C4_4  and  C5_5 
REMARK    5  A    between atoms: C5_5  and  N6_6 
REMARK    6  A    between atoms: N6_6  and  C7_7 
REMARK    7  A    between atoms: C7_7  and  C8_8 
REMARK    8  A    between atoms: C8_8  and  C9_9 
REMARK    9  A    between atoms: C9_9  and  N10_10 
ROOT
ATOM      1  C5  SPD d   1      19.944   1.943  -3.234  0.00  0.00     0.082 C 
ATOM      2  H   SPD d   1      20.145   1.490  -2.252  0.00  0.00     0.075 H 
ATOM      3  H   SPD d   1      18.967   2.448  -3.212  0.00  0.00     0.075 H 
ENDROOT
BRANCH   1   4
ATOM      4  C4  SPD d   1      19.911   0.849  -4.285  0.00  0.00    -0.041 C 
ATOM      5  H   SPD d   1      20.591   1.123  -5.105  0.00  0.00     0.035 H 
ATOM      6  H   SPD d   1      20.248  -0.093  -3.828  0.00  0.00     0.035 H 
BRANCH   4   7
ATOM      7  C3  SPD d   1      18.531   0.651  -4.844  0.00  0.00    -0.041 C 
ATOM      8  H   SPD d   1      17.855   1.409  -4.422  0.00  0.00     0.035 H 
ATOM      9  H   SPD d   1      18.562   0.757  -5.938  0.00  0.00     0.035 H 
BRANCH   7  10
ATOM     10  C2  SPD d   1      18.018  -0.742  -4.485  0.00  0.00     0.080 C 
ATOM     11  H   SPD d   1      17.556  -1.191  -5.376  0.00  0.00     0.075 H 
ATOM     12  H   SPD d   1      18.867  -1.361  -4.161  0.00  0.00     0.075 H 
BRANCH  10  13
ATOM     13  N1  SPD d   1      17.023  -0.697  -3.405  0.00  0.00    -0.079 N 
ATOM     14  H   SPD d   1      16.710  -1.632  -3.198  0.00  0.00     0.274 HD
ATOM     15  H   SPD d   1      16.237  -0.136  -3.695  0.00  0.00     0.274 HD
ATOM     16  H   SPD d   1      17.439  -0.292  -2.581  0.00  0.00     0.274 HD
ENDBRANCH  10  13
ENDBRANCH   7  10
ENDBRANCH   4   7
ENDBRANCH   1   4
BRANCH   1  17
ATOM     17  N6  SPD d   1      20.963   2.910  -3.520  0.00  0.00    -0.075 N 
ATOM     18  H   SPD d   1      21.813   2.386  -3.660  0.00  0.00     0.277 HD
ATOM     19  H   SPD d   1      21.050   3.477  -2.691  0.00  0.00     0.277 HD
BRANCH  17  20
ATOM     20  C7  SPD d   1      20.876   3.842  -4.637  0.00  0.00     0.083 C 
ATOM     21  H   SPD d   1      19.868   4.277  -4.707  0.00  0.00     0.075 H 
ATOM     22  H   SPD d   1      21.127   3.343  -5.585  0.00  0.00     0.075 H 
BRANCH  20  23
ATOM     23  C8  SPD d   1      21.909   4.912  -4.295  0.00  0.00    -0.020 C 
ATOM     24  H   SPD d   1      22.883   4.599  -4.701  0.00  0.00     0.037 H 
ATOM     25  H   SPD d   1      21.977   4.994  -3.200  0.00  0.00     0.037 H 
BRANCH  23  26
ATOM     26  C9  SPD d   1      21.568   6.286  -4.862  0.00  0.00     0.081 C 
ATOM     27  H   SPD d   1      21.042   6.172  -5.821  0.00  0.00     0.075 H 
ATOM     28  H   SPD d   1      22.491   6.864  -5.016  0.00  0.00     0.075 H 
BRANCH  26  29
ATOM     29  N10 SPD d   1      20.709   6.976  -3.908  0.00  0.00    -0.079 N 
ATOM     30  H   SPD d   1      20.473   7.888  -4.267  0.00  0.00     0.274 HD
ATOM     31  H   SPD d   1      21.194   7.076  -3.030  0.00  0.00     0.274 HD
ATOM     32  H   SPD d   1      19.866   6.442  -3.767  0.00  0.00     0.274 HD
ENDBRANCH  26  29
ENDBRANCH  23  26
ENDBRANCH  20  23
ENDBRANCH  17  20
ENDBRANCH   1  17
TORSDOF 9
