REMARK  5 active torsions:
REMARK  status: ('A' for Active; 'I' for Inactive)
REMARK    1  A    between atoms: C9_16  and  C2_4 
REMARK    2  A    between atoms: C11_18  and  N3_8 
REMARK    3  A    between atoms: C10_17  and  C9_16 
REMARK    4  A    between atoms: C11_18  and  C10_17 
REMARK    5  A    between atoms: C11_18  and  C12_19 
ROOT
ATOM      1  C1  35K d   1      62.019 -27.169 -35.822  0.00  0.00    -0.075 A 
ATOM      2  N1  35K d   1      58.654 -25.278 -37.517  0.00  0.00    -0.317 N 
ATOM      3  O1  35K d   1      57.649 -23.395 -38.250  0.00  0.00    -0.262 OA
ATOM      4  C2  35K d   1      60.880 -27.925 -36.161  0.00  0.00    -0.056 A 
ATOM      5  N2  35K d   1      60.924 -23.786 -36.848  0.00  0.00    -0.317 N 
ATOM      6  O2  35K d   1      59.885 -21.925 -37.591  0.00  0.00    -0.262 OA
ATOM      7  C3  35K d   1      59.739 -27.312 -36.725  0.00  0.00    -0.049 A 
ATOM      8  C4  35K d   1      62.052 -25.782 -36.047  0.00  0.00    -0.054 A 
ATOM      9  C5  35K d   1      60.921 -25.173 -36.611  0.00  0.00     0.062 A 
ATOM     10  C6  35K d   1      59.774 -25.924 -36.950  0.00  0.00     0.062 A 
ATOM     11  C7  35K d   1      58.669 -23.887 -37.750  0.00  0.00     0.314 A 
ATOM     12  C8  35K d   1      59.809 -23.133 -37.414  0.00  0.00     0.314 A 
ATOM     13  H1  35K d   1      62.879 -27.662 -35.383  0.00  0.00     0.084 H 
ATOM     14  H2  35K d   1      57.843 -25.811 -37.756  0.00  0.00     0.169 HD
ATOM     15  H3  35K d   1      61.735 -23.251 -36.610  0.00  0.00     0.169 HD
ATOM     16  H4  35K d   1      58.861 -27.895 -36.977  0.00  0.00     0.087 H 
ATOM     17  H8  35K d   1      62.929 -25.198 -35.791  0.00  0.00     0.087 H 
ENDROOT
BRANCH   4  18
ATOM     18  C9  35K d   1      60.868 -29.306 -35.919  0.00  0.00    -0.039 C 
ATOM     19  H9  35K d   1      61.893 -29.700 -35.986  0.00  0.00     0.040 H 
ATOM     20  H10 35K d   1      60.234 -29.805 -36.666  0.00  0.00     0.040 H 
BRANCH  18  21
ATOM     21  C10 35K d   1      60.311 -29.565 -34.521  0.00  0.00    -0.025 C 
ATOM     22  H11 35K d   1      59.226 -29.385 -34.531  0.00  0.00     0.037 H 
ATOM     23  H12 35K d   1      60.791 -28.874 -33.812  0.00  0.00     0.037 H 
BRANCH  21  24
ATOM     24  C11 35K d   1      60.571 -30.999 -34.066  0.00  0.00     0.182 C 
ATOM     25  H13 35K d   1      60.644 -31.025 -32.969  0.00  0.00     0.101 H 
BRANCH  24  26
ATOM     26  N3  35K d   1      61.784 -31.572 -34.659  0.00  0.00    -0.065 N 
ATOM     27  H5  35K d   1      62.586 -31.032 -34.372  0.00  0.00     0.275 HD
ATOM     28  H6  35K d   1      61.708 -31.552 -35.664  0.00  0.00     0.275 HD
ATOM     29  H7  35K d   1      61.892 -32.525 -34.349  0.00  0.00     0.275 HD
ENDBRANCH  24  26
BRANCH  24  30
ATOM     30  C12 35K d   1      59.424 -31.871 -34.551  0.00  0.00     0.204 C 
ATOM     31  O3  35K d   1      58.281 -31.381 -34.484  0.00  0.00    -0.646 OA
ATOM     32  O4  35K d   1      59.738 -33.002 -34.966  0.00  0.00    -0.646 OA
ENDBRANCH  24  30
ENDBRANCH  21  24
ENDBRANCH  18  21
ENDBRANCH   4  18
TORSDOF 5
