REMARK  7 active torsions:
REMARK  status: ('A' for Active; 'I' for Inactive)
REMARK    1  A    between atoms: N_1  and  CA_2 
REMARK    2  A    between atoms: CA_2  and  C_3 
REMARK    3  A    between atoms: CA_2  and  CB_5 
REMARK       I    between atoms: C_3  and  N_6 
REMARK    4  A    between atoms: N_6  and  CA_7 
REMARK    5  A    between atoms: CA_7  and  C_8 
REMARK    6  A    between atoms: CA_7  and  CB_10 
REMARK    7  A    between atoms: CB_10  and  CG_11 
ROOT
ATOM      1  CA  PHE d   1      10.742  -6.833   9.756  0.00  0.00     0.100 C 
ATOM      2  H9  PHE d   1      10.568  -7.791   9.244  0.00  0.00     0.090 H 
ENDROOT
BRANCH   1   3
ATOM      3  N   PHE d   1      11.514  -7.071  10.970  0.00  0.00    -0.344 N 
ATOM      4  C   PHE d   1      12.614  -7.822  10.976  0.00  0.00     0.248 C 
ATOM      5  O   PHE d   1      13.001  -8.445   9.988  0.00  0.00    -0.271 OA
ATOM      6  H8  PHE d   1      11.207  -6.657  11.827  0.00  0.00     0.163 HD
BRANCH   4   7
ATOM      7  CA  PHE d   1      13.387  -7.895  12.291  0.00  0.00     0.172 C 
ATOM      8  H4  PHE d   1      12.669  -7.799  13.118  0.00  0.00     0.098 H 
BRANCH   7   9
ATOM      9  N   PHE d   1      14.068  -9.180  12.422  0.00  0.00    -0.067 N 
ATOM     10  H1  PHE d   1      14.571  -9.206  13.295  0.00  0.00     0.275 HD
ATOM     11  H2  PHE d   1      14.715  -9.297  11.658  0.00  0.00     0.275 HD
ATOM     12  H3  PHE d   1      13.388  -9.924  12.403  0.00  0.00     0.275 HD
ENDBRANCH   7   9
BRANCH   7  13
ATOM     13  CB  PHE d   1      14.392  -6.744  12.391  0.00  0.00    -0.042 C 
ATOM     14  H5  PHE d   1      13.863  -5.785  12.290  0.00  0.00     0.030 H 
ATOM     15  H6  PHE d   1      15.137  -6.837  11.588  0.00  0.00     0.030 H 
ATOM     16  H7  PHE d   1      14.898  -6.783  13.367  0.00  0.00     0.030 H 
ENDBRANCH   7  13
ENDBRANCH   4   7
ENDBRANCH   1   3
BRANCH   1  17
ATOM     17  C   PHE d   1      11.500  -5.900   8.840  0.00  0.00     0.197 C 
ATOM     18  O   PHE d   1      11.430  -6.025   7.622  0.00  0.00    -0.646 OA
ATOM     19  OXT PHE d   1      12.193  -4.994   9.305  0.00  0.00    -0.646 OA
ENDBRANCH   1  17
BRANCH   1  20
ATOM     20  CB  PHE d   1       9.403  -6.189  10.098  0.00  0.00    -0.013 C 
ATOM     21  H10 PHE d   1       8.946  -5.824   9.166  0.00  0.00     0.043 H 
ATOM     22  H11 PHE d   1       9.590  -5.340  10.771  0.00  0.00     0.043 H 
BRANCH  20  23
ATOM     23  CG  PHE d   1       8.440  -7.110  10.762  0.00  0.00    -0.056 A 
ATOM     24  CD1 PHE d   1       8.197  -8.372  10.245  0.00  0.00    -0.077 A 
ATOM     25  CE1 PHE d   1       7.304  -9.218  10.842  0.00  0.00    -0.082 A 
ATOM     26  H12 PHE d   1       8.723  -8.694   9.353  0.00  0.00     0.084 H 
ATOM     27  CZ  PHE d   1       6.639  -8.812  11.980  0.00  0.00    -0.083 A 
ATOM     28  H14 PHE d   1       7.120 -10.201  10.424  0.00  0.00     0.083 H 
ATOM     29  CE2 PHE d   1       6.873  -7.556  12.503  0.00  0.00    -0.082 A 
ATOM     30  H16 PHE d   1       5.934  -9.478  12.463  0.00  0.00     0.083 H 
ATOM     31  CD2 PHE d   1       7.770  -6.716  11.898  0.00  0.00    -0.077 A 
ATOM     32  H15 PHE d   1       6.346  -7.234  13.394  0.00  0.00     0.083 H 
ATOM     33  H13 PHE d   1       7.954  -5.733  12.317  0.00  0.00     0.084 H 
ENDBRANCH  20  23
ENDBRANCH   1  20
TORSDOF 7
