REMARK  7 active torsions:
REMARK  status: ('A' for Active; 'I' for Inactive)
REMARK    1  A    between atoms: N_1  and  CA_2 
REMARK    2  A    between atoms: CA_2  and  C_3 
REMARK       I    between atoms: C_3  and  N_5 
REMARK    3  A    between atoms: N_5  and  CA_6 
REMARK    4  A    between atoms: CA_6  and  C_7 
REMARK    5  A    between atoms: CA_6  and  CB_9 
REMARK    6  A    between atoms: CB_9  and  CG_10 
REMARK    7  A    between atoms: CG_10  and  CD_11 
ROOT
ATOM      1  CA  GLU d   1      11.322   5.887   9.592  0.00  0.00     0.097 C 
ATOM      2  H7  GLU d   1      12.124   5.389   9.027  0.00  0.00     0.089 H 
ENDROOT
BRANCH   1   3
ATOM      3  N   GLU d   1      11.905   6.359  10.846  0.00  0.00    -0.345 N 
ATOM      4  C   GLU d   1      13.100   6.948  10.890  0.00  0.00     0.243 C 
ATOM      5  O   GLU d   1      13.752   7.214   9.876  0.00  0.00    -0.272 OA
ATOM      6  H6  GLU d   1      11.393   6.237  11.696  0.00  0.00     0.163 HD
BRANCH   4   7
ATOM      7  CA  GLU d   1      13.640   7.279  12.275  0.00  0.00     0.152 C 
ATOM      8  H4  GLU d   1      12.789   7.520  12.928  0.00  0.00     0.090 H 
ATOM      9  H5  GLU d   1      14.160   6.391  12.664  0.00  0.00     0.090 H 
BRANCH   7  10
ATOM     10  N   GLU d   1      14.565   8.396  12.302  0.00  0.00    -0.071 N 
ATOM     11  H1  GLU d   1      14.876   8.552  13.248  0.00  0.00     0.274 HD
ATOM     12  H2  GLU d   1      14.102   9.224  11.960  0.00  0.00     0.274 HD
ATOM     13  H3  GLU d   1      15.359   8.189  11.717  0.00  0.00     0.274 HD
ENDBRANCH   7  10
ENDBRANCH   4   7
ENDBRANCH   1   3
BRANCH   1  14
ATOM     14  C   GLU d   1      10.787   7.017   8.723  0.00  0.00     0.196 C 
ATOM     15  O   GLU d   1      10.398   8.081   9.204  0.00  0.00    -0.646 OA
ATOM     16  OXT GLU d   1      10.729   6.875   7.503  0.00  0.00    -0.646 OA
ENDBRANCH   1  14
BRANCH   1  17
ATOM     17  CB  GLU d   1      10.221   4.854   9.849  0.00  0.00    -0.028 C 
ATOM     18  H8  GLU d   1       9.807   4.540   8.879  0.00  0.00     0.037 H 
ATOM     19  H9  GLU d   1       9.431   5.331  10.448  0.00  0.00     0.037 H 
BRANCH  17  20
ATOM     20  CG  GLU d   1      10.700   3.618  10.587  0.00  0.00     0.018 C 
ATOM     21  H10 GLU d   1      11.778   3.498  10.406  0.00  0.00     0.049 H 
ATOM     22  H11 GLU d   1      10.163   2.744  10.191  0.00  0.00     0.049 H 
BRANCH  20  23
ATOM     23  CD  GLU d   1      10.464   3.693  12.097  0.00  0.00     0.172 C 
ATOM     24  OE1 GLU d   1      10.562   2.639  12.770  0.00  0.00    -0.648 OA
ATOM     25  OE2 GLU d   1      10.161   4.799  12.610  0.00  0.00    -0.648 OA
ENDBRANCH  20  23
ENDBRANCH  17  20
ENDBRANCH   1  17
TORSDOF 7
