REMARK  10 active torsions:
REMARK  status: ('A' for Active; 'I' for Inactive)
REMARK    1  A    between atoms: N_1  and  CA_2 
REMARK    2  A    between atoms: CA_2  and  C_3 
REMARK    3  A    between atoms: CA_2  and  CB_5 
REMARK       I    between atoms: C_3  and  N_8 
REMARK    4  A    between atoms: CB_5  and  CG1_6 
REMARK    5  A    between atoms: CB_5  and  CG2_7 
REMARK    6  A    between atoms: N_8  and  CA_9 
REMARK    7  A    between atoms: CA_9  and  C_10 
REMARK    8  A    between atoms: CA_9  and  CB_12 
REMARK    9  A    between atoms: CB_12  and  OG1_13 
REMARK   10  A    between atoms: CB_12  and  CG2_14 
ROOT
ATOM      1  C   VAL d   1      13.095   6.301 -10.241  0.00  0.00     0.249 C 
ATOM      2  O   VAL d   1      13.386   7.103  -9.359  0.00  0.00    -0.271 OA
ATOM      3  H12 VAL d   1      11.824   4.894 -10.926  0.00  0.00     0.163 HD
ATOM      4  N   THR d   1      12.061   5.470 -10.144  0.00  0.00    -0.343 N 
ENDROOT
BRANCH   1   5
ATOM      5  CA  VAL d   1      13.926   6.185 -11.511  0.00  0.00     0.178 C 
ATOM      6  H4  VAL d   1      13.259   6.170 -12.385  0.00  0.00     0.099 H 
BRANCH   5   7
ATOM      7  N   VAL d   1      14.849   7.307 -11.652  0.00  0.00    -0.066 N 
ATOM      8  H1  VAL d   1      14.326   8.167 -11.710  0.00  0.00     0.275 HD
ATOM      9  H2  VAL d   1      15.396   7.189 -12.491  0.00  0.00     0.275 HD
ATOM     10  H3  VAL d   1      15.462   7.340 -10.853  0.00  0.00     0.275 HD
ENDBRANCH   5   7
BRANCH   5  11
ATOM     11  CB  VAL d   1      14.678   4.848 -11.418  0.00  0.00    -0.025 C 
ATOM     12  H5  VAL d   1      13.938   4.047 -11.276  0.00  0.00     0.042 H 
BRANCH  11  13
ATOM     13  CG1 VAL d   1      15.453   4.553 -12.699  0.00  0.00    -0.071 C 
ATOM     14  H6  VAL d   1      15.977   3.591 -12.597  0.00  0.00     0.028 H 
ATOM     15  H7  VAL d   1      16.186   5.354 -12.877  0.00  0.00     0.028 H 
ATOM     16  H8  VAL d   1      14.754   4.501 -13.547  0.00  0.00     0.028 H 
ENDBRANCH  11  13
BRANCH  11  17
ATOM     17  CG2 VAL d   1      15.611   4.858 -10.212  0.00  0.00    -0.071 C 
ATOM     18  H9  VAL d   1      15.031   5.072  -9.302  0.00  0.00     0.028 H 
ATOM     19  H10 VAL d   1      16.379   5.634 -10.349  0.00  0.00     0.028 H 
ATOM     20  H11 VAL d   1      16.096   3.875 -10.115  0.00  0.00     0.028 H 
ENDBRANCH  11  17
ENDBRANCH   5  11
ENDBRANCH   1   5
BRANCH   4  21
ATOM     21  CA  THR d   1      11.265   5.378  -8.927  0.00  0.00     0.120 C 
ATOM     22  H13 VAL d   1      11.325   6.337  -8.391  0.00  0.00     0.093 H 
BRANCH  21  23
ATOM     23  C   THR d   1      11.817   4.267  -8.033  0.00  0.00     0.199 C 
ATOM     24  O   THR d   1      11.455   4.124  -6.852  0.00  0.00    -0.646 OA
ATOM     25  OXT THR d   1      12.640   3.470  -8.494  0.00  0.00    -0.646 OA
ENDBRANCH  21  23
BRANCH  21  26
ATOM     26  CB  THR d   1       9.792   5.079  -9.249  0.00  0.00     0.061 C 
ATOM     27  H14 VAL d   1       9.252   4.866  -8.315  0.00  0.00     0.086 H 
BRANCH  26  28
ATOM     28  OG1 THR d   1       9.724   3.940 -10.112  0.00  0.00    -0.393 OA
ATOM     29  H15 VAL d   1       8.815   3.751 -10.314  0.00  0.00     0.210 HD
ENDBRANCH  26  28
BRANCH  26  30
ATOM     30  CG2 THR d   1       9.141   6.274  -9.948  0.00  0.00    -0.050 C 
ATOM     31  H16 VAL d   1       8.089   6.041 -10.170  0.00  0.00     0.031 H 
ATOM     32  H17 VAL d   1       9.675   6.486 -10.886  0.00  0.00     0.031 H 
ATOM     33  H18 VAL d   1       9.191   7.155  -9.291  0.00  0.00     0.031 H 
ENDBRANCH  26  30
ENDBRANCH  21  26
ENDBRANCH   4  21
TORSDOF 10
