REMARK  8 active torsions:
REMARK  status: ('A' for Active; 'I' for Inactive)
REMARK    1  A    between atoms: C3_2  and  C10_10 
REMARK    2  A    between atoms: C7_7  and  C14_14 
REMARK    3  A    between atoms: C10_10  and  N11_11 
REMARK    4  A    between atoms: N11_11  and  C12_12 
REMARK    5  A    between atoms: N11_11  and  C13_13 
REMARK    6  A    between atoms: C14_14  and  C15_15 
REMARK    7  A    between atoms: C15_15  and  C16_16 
REMARK    8  A    between atoms: C16_16  and  O17_17 
ROOT
ATOM      1  C2  PZZ d   1     -21.930   6.638   8.149  0.00  0.00    -0.014 A 
ATOM      2  C3  PZZ d   1     -21.721   7.705   7.211  0.00  0.00    -0.005 A 
ATOM      3  N1  PZZ d   1     -21.750   5.415   7.489  0.00  0.00    -0.364 N 
ATOM      4  C4  PZZ d   1     -21.102   7.669   4.711  0.00  0.00    -0.070 A 
ATOM      5  C5  PZZ d   1     -20.813   6.804   3.661  0.00  0.00    -0.082 A 
ATOM      6  C6  PZZ d   1     -20.844   5.410   3.772  0.00  0.00    -0.075 A 
ATOM      7  C7  PZZ d   1     -21.136   4.764   4.955  0.00  0.00    -0.030 A 
ATOM      8  C8  PZZ d   1     -21.403   7.070   5.925  0.00  0.00     0.000 A 
ATOM      9  C9  PZZ d   1     -21.450   5.611   6.142  0.00  0.00     0.049 A 
ATOM     10  H   PZZ d   1     -22.186   6.759   9.200  0.00  0.00     0.112 H 
ATOM     11  H   PZZ d   1     -21.829   4.492   7.940  0.00  0.00     0.165 HD
ATOM     12  H   PZZ d   1     -21.093   8.746   4.588  0.00  0.00     0.084 H 
ATOM     13  H   PZZ d   1     -20.549   7.235   2.702  0.00  0.00     0.083 H 
ATOM     14  H   PZZ d   1     -20.630   4.813   2.893  0.00  0.00     0.084 H 
ENDROOT
BRANCH   2  15
ATOM     15  C10 PZZ d   1     -21.779   9.227   7.271  0.00  0.00     0.108 C 
ATOM     16  H   PZZ d   1     -22.799   9.519   6.982  0.00  0.00     0.083 H 
ATOM     17  H   PZZ d   1     -21.064   9.603   6.525  0.00  0.00     0.083 H 
BRANCH  15  18
ATOM     18  N11 PZZ d   1     -21.480   9.916   8.533  0.00  0.00    -0.075 N 
ATOM     19  H   PZZ d   1     -20.541   9.684   8.816  0.00  0.00     0.279 HD
BRANCH  18  20
ATOM     20  C12 PZZ d   1     -21.583  11.349   8.201  0.00  0.00     0.066 C 
ATOM     21  H   PZZ d   1     -21.372  11.949   9.098  0.00  0.00     0.068 H 
ATOM     22  H   PZZ d   1     -22.599  11.570   7.842  0.00  0.00     0.068 H 
ATOM     23  H   PZZ d   1     -20.855  11.597   7.415  0.00  0.00     0.068 H 
ENDBRANCH  18  20
BRANCH  18  24
ATOM     24  C13 PZZ d   1     -22.388   9.639   9.677  0.00  0.00     0.066 C 
ATOM     25  H   PZZ d   1     -22.328   8.573   9.943  0.00  0.00     0.068 H 
ATOM     26  H   PZZ d   1     -23.421   9.889   9.394  0.00  0.00     0.068 H 
ATOM     27  H   PZZ d   1     -22.087  10.250  10.541  0.00  0.00     0.068 H 
ENDBRANCH  18  24
ENDBRANCH  15  18
ENDBRANCH   2  15
BRANCH   7  28
ATOM     28  C14 PZZ d   1     -21.093   3.234   5.040  0.00  0.00    -0.037 C 
ATOM     29  H   PZZ d   1     -22.015   2.892   5.533  0.00  0.00     0.040 H 
ATOM     30  H   PZZ d   1     -20.223   2.949   5.649  0.00  0.00     0.040 H 
BRANCH  28  31
ATOM     31  C15 PZZ d   1     -20.982   2.518   3.678  0.00  0.00    -0.042 C 
ATOM     32  H   PZZ d   1     -21.153   3.256   2.881  0.00  0.00     0.036 H 
ATOM     33  H   PZZ d   1     -21.758   1.739   3.629  0.00  0.00     0.036 H 
BRANCH  31  34
ATOM     34  C16 PZZ d   1     -19.610   1.856   3.444  0.00  0.00     0.017 C 
ATOM     35  H   PZZ d   1     -18.866   2.660   3.347  0.00  0.00     0.073 H 
ATOM     36  H   PZZ d   1     -19.669   1.295   2.499  0.00  0.00     0.073 H 
BRANCH  34  37
ATOM     37  O17 PZZ d   1     -19.127   0.924   4.487  0.00  0.00    -0.401 OA
ATOM     38  H   PZZ d   1     -18.278   0.581   4.235  0.00  0.00     0.209 HD
ENDBRANCH  34  37
ENDBRANCH  31  34
ENDBRANCH  28  31
ENDBRANCH   7  28
TORSDOF 8
