REMARK  8 active torsions:
REMARK  status: ('A' for Active; 'I' for Inactive)
REMARK    1  A    between atoms: C5_5  and  N8_6 
REMARK    2  A    between atoms: C14_15  and  N18_16 
REMARK    3  A    between atoms: N18_16  and  C19_17 
REMARK    4  A    between atoms: C19_17  and  C20_18 
REMARK    5  A    between atoms: C19_17  and  C21_19 
REMARK       I    between atoms: C21_19  and  N23_21 
REMARK    6  A    between atoms: N23_21  and  C24_22 
REMARK    7  A    between atoms: C27_25  and  O30_26 
REMARK    8  A    between atoms: O30_26  and  C31_27 
ROOT
ATOM      1  N18 35O d   1      74.558  53.566  41.834  0.00  0.00    -0.211 N 
ATOM      2  H12 35O d   1      73.804  54.027  42.363  0.00  0.00     0.178 HD
ENDROOT
BRANCH   1   3
ATOM      3  C14 35O d   1      75.409  52.773  42.481  0.00  0.00     0.705 A 
ATOM      4  N13 35O d   1      76.396  52.164  41.808  0.00  0.00    -0.044 NA
ATOM      5  C11 35O d   1      77.323  51.457  42.469  0.00  0.00     0.181 A 
ATOM      6  N8  35O d   1      78.401  50.778  42.082  0.00  0.00    -0.246 N 
ATOM      7  C12 35O d   1      77.267  51.361  43.792  0.00  0.00     0.086 A 
ATOM      8  N9  35O d   1      78.937  50.324  42.972  0.00  0.00    -0.182 NA
ATOM      9  C10 35O d   1      78.325  50.624  44.117  0.00  0.00     0.040 A 
ATOM     10  H10 35O d   1      78.630  50.325  45.119  0.00  0.00     0.119 H 
ATOM     11  C16 35O d   1      76.294  51.967  44.465  0.00  0.00     0.209 A 
ATOM     12  O17 35O d   1      76.444  52.052  45.815  0.00  0.00    -0.171 OA
ATOM     13  N15 35O d   1      75.355  52.675  43.817  0.00  0.00    -0.165 N 
ATOM     14  H11 35O d   1      74.622  53.125  44.327  0.00  0.00     0.186 HD
BRANCH   6  15
ATOM     15  C5  35O d   1      78.844  50.676  40.674  0.00  0.00     0.036 C 
ATOM     16  C4  35O d   1      78.756  49.272  40.101  0.00  0.00    -0.044 C 
ATOM     17  C1  35O d   1      79.602  49.475  38.856  0.00  0.00    -0.063 C 
ATOM     18  H1  35O d   1      79.190  48.522  40.778  0.00  0.00     0.036 H 
ATOM     19  H2  35O d   1      77.721  48.990  39.856  0.00  0.00     0.036 H 
ATOM     20  C2  35O d   1      80.853  50.041  39.506  0.00  0.00    -0.063 C 
ATOM     21  H3  35O d   1      79.142  50.189  38.157  0.00  0.00     0.033 H 
ATOM     22  H4  35O d   1      79.801  48.527  38.334  0.00  0.00     0.033 H 
ATOM     23  C3  35O d   1      80.296  51.085  40.465  0.00  0.00    -0.044 C 
ATOM     24  H5  35O d   1      81.513  50.504  38.758  0.00  0.00     0.033 H 
ATOM     25  H6  35O d   1      81.405  49.260  40.049  0.00  0.00     0.033 H 
ATOM     26  H7  35O d   1      80.357  52.090  40.023  0.00  0.00     0.036 H 
ATOM     27  H8  35O d   1      80.845  51.070  41.418  0.00  0.00     0.036 H 
ATOM     28  H9  35O d   1      78.198  51.341  40.083  0.00  0.00     0.076 H 
ENDBRANCH   6  15
ENDBRANCH   1   3
BRANCH   1  29
ATOM     29  C19 35O d   1      74.661  53.804  40.387  0.00  0.00     0.100 C 
ATOM     30  H13 35O d   1      75.699  54.072  40.142  0.00  0.00     0.087 H 
BRANCH  29  31
ATOM     31  C20 35O d   1      73.739  54.954  39.974  0.00  0.00    -0.049 C 
ATOM     32  H14 35O d   1      73.825  55.122  38.890  0.00  0.00     0.030 H 
ATOM     33  H15 35O d   1      74.031  55.869  40.511  0.00  0.00     0.030 H 
ATOM     34  H16 35O d   1      72.699  54.698  40.224  0.00  0.00     0.030 H 
ENDBRANCH  29  31
BRANCH  29  35
ATOM     35  C21 35O d   1      74.279  52.534  39.623  0.00  0.00     0.245 C 
ATOM     36  O22 35O d   1      73.109  52.153  39.602  0.00  0.00    -0.271 OA
ATOM     37  N23 35O d   1      75.267  52.047  38.857  0.00  0.00    -0.325 N 
ATOM     38  H17 35O d   1      76.145  52.524  38.825  0.00  0.00     0.169 HD
BRANCH  37  39
ATOM     39  C24 35O d   1      75.096  50.938  38.138  0.00  0.00     0.035 A 
ATOM     40  C29 35O d   1      76.161  50.466  37.378  0.00  0.00    -0.054 A 
ATOM     41  C28 35O d   1      76.042  49.286  36.653  0.00  0.00    -0.049 A 
ATOM     42  H18 35O d   1      77.091  51.023  37.351  0.00  0.00     0.087 H 
ATOM     43  C27 35O d   1      74.854  48.563  36.680  0.00  0.00     0.068 A 
ATOM     44  H19 35O d   1      76.879  48.928  36.064  0.00  0.00     0.087 H 
ATOM     45  C26 35O d   1      73.781  49.043  37.425  0.00  0.00    -0.049 A 
ATOM     46  C25 35O d   1      73.900  50.227  38.145  0.00  0.00    -0.054 A 
ATOM     47  H23 35O d   1      72.848  48.491  37.444  0.00  0.00     0.087 H 
ATOM     48  H24 35O d   1      73.056  50.598  38.715  0.00  0.00     0.087 H 
BRANCH  43  49
ATOM     49  O30 35O d   1      74.751  47.421  35.947  0.00  0.00    -0.356 OA
BRANCH  49  50
ATOM     50  C31 35O d   1      73.474  46.797  36.109  0.00  0.00     0.010 C 
ATOM     51  H20 35O d   1      73.434  45.881  35.501  0.00  0.00     0.066 H 
ATOM     52  H21 35O d   1      72.684  47.489  35.782  0.00  0.00     0.066 H 
ATOM     53  H22 35O d   1      73.323  46.541  37.168  0.00  0.00     0.066 H 
ENDBRANCH  49  50
ENDBRANCH  43  49
ENDBRANCH  37  39
ENDBRANCH  29  35
ENDBRANCH   1  29
TORSDOF 8
