REMARK  17 active torsions:
REMARK  status: ('A' for Active; 'I' for Inactive)
REMARK    1  A    between atoms: C_1  and  C2_4 
REMARK       I    between atoms: N_13  and  C_1 
REMARK    2  A    between atoms: CA_14  and  N_13 
REMARK    3  A    between atoms: C1_15  and  CA_14 
REMARK    4  A    between atoms: CA_14  and  CB_17 
REMARK       I    between atoms: N2_24  and  C1_15 
REMARK    5  A    between atoms: CB_17  and  CG_18 
REMARK       I    between atoms: CG_18  and  ND2_20 
REMARK    6  A    between atoms: C9_21  and  O2_22 
REMARK    7  A    between atoms: CA1_23  and  C9_21 
REMARK    8  A    between atoms: C9_21  and  CM_33 
REMARK    9  A    between atoms: CA1_23  and  N2_24 
REMARK   10  A    between atoms: CA1_23  and  CB1_25 
REMARK   11  A    between atoms: CB1_25  and  CG1_26 
REMARK   12  A    between atoms: CM_33  and  N11_32 
REMARK   13  A    between atoms: C21_34  and  CC_35 
REMARK       I    between atoms: CC_35  and  N3_45 
REMARK   14  A    between atoms: N3_45  and  CD_46 
REMARK   15  A    between atoms: CD_46  and  C11_47 
REMARK   16  A    between atoms: CD_46  and  C22_48 
REMARK   17  A    between atoms: CD_46  and  C32_49 
ROOT
ATOM      1  CA1 ROC d   1      14.696  -6.911  -9.373  0.00  0.00     0.039 C 
ATOM      2  H   ROC d   1      14.342  -7.910  -9.079  0.00  0.00     0.076 H 
ENDROOT
BRANCH   1   3
ATOM      3  C9  ROC d   1      13.595  -5.857  -9.384  0.00  0.00     0.078 C 
ATOM      4  H   ROC d   1      12.978  -6.114 -10.257  0.00  0.00     0.088 H 
BRANCH   3   5
ATOM      5  O2  ROC d   1      13.876  -4.505  -9.482  0.00  0.00    -0.392 OA
ATOM      6  H   ROC d   1      14.416  -4.241  -8.747  0.00  0.00     0.210 HD
ENDBRANCH   3   5
BRANCH   3   7
ATOM      7  CM  ROC d   1      12.717  -5.896  -8.148  0.00  0.00     0.110 C 
ATOM      8  H   ROC d   1      12.224  -4.933  -7.950  0.00  0.00     0.080 H 
ATOM      9  H   ROC d   1      13.266  -6.218  -7.251  0.00  0.00     0.080 H 
BRANCH   7  10
ATOM     10  N11 ROC d   1      11.754  -6.949  -8.648  0.00  0.00    -0.055 N 
ATOM     11  C21 ROC d   1      10.931  -7.302  -7.455  0.00  0.00     0.180 C 
ATOM     12  C31 ROC d   1       9.764  -8.288  -7.699  0.00  0.00    -0.026 C 
ATOM     13  H   ROC d   1      10.479  -6.385  -7.049  0.00  0.00     0.100 H 
ATOM     14  C3A ROC d   1       8.491  -7.942  -8.515  0.00  0.00    -0.047 C 
ATOM     15  H   ROC d   1       9.407  -8.581  -6.700  0.00  0.00     0.037 H 
ATOM     16  H   ROC d   1      10.210  -9.160  -8.199  0.00  0.00     0.037 H 
ATOM     17  C41 ROC d   1       7.678  -9.059  -9.146  0.00  0.00    -0.061 C 
ATOM     18  C7A ROC d   1       9.158  -7.389  -9.740  0.00  0.00    -0.027 C 
ATOM     19  H   ROC d   1       7.843  -7.241  -7.968  0.00  0.00     0.040 H 
ATOM     20  C51 ROC d   1       8.410 -10.225  -9.793  0.00  0.00    -0.065 C 
ATOM     21  H   ROC d   1       7.049  -8.601  -9.924  0.00  0.00     0.033 H 
ATOM     22  H   ROC d   1       7.037  -9.478  -8.356  0.00  0.00     0.033 H 
ATOM     23  C61 ROC d   1       9.111  -9.506 -10.924  0.00  0.00    -0.065 C 
ATOM     24  H   ROC d   1       7.711 -10.988 -10.166  0.00  0.00     0.033 H 
ATOM     25  H   ROC d   1       9.126 -10.691  -9.101  0.00  0.00     0.033 H 
ATOM     26  C71 ROC d   1      10.042  -8.435 -10.383  0.00  0.00    -0.060 C 
ATOM     27  H   ROC d   1       8.359  -9.036 -11.574  0.00  0.00     0.033 H 
ATOM     28  H   ROC d   1       9.696 -10.233 -11.506  0.00  0.00     0.033 H 
ATOM     29  H   ROC d   1      10.626  -7.989 -11.202  0.00  0.00     0.033 H 
ATOM     30  H   ROC d   1      10.726  -8.866  -9.637  0.00  0.00     0.033 H 
ATOM     31  C81 ROC d   1      10.494  -6.681  -9.418  0.00  0.00     0.088 C 
ATOM     32  H   ROC d   1       8.450  -6.852 -10.389  0.00  0.00     0.043 H 
ATOM     33  H   ROC d   1      10.886  -6.474 -10.425  0.00  0.00     0.076 H 
ATOM     34  H   ROC d   1      10.146  -5.744  -8.960  0.00  0.00     0.076 H 
ATOM     35  H   ROC d   1      12.283  -7.700  -9.062  0.00  0.00     0.281 HD
BRANCH  11  36
ATOM     36  CC  ROC d   1      12.021  -7.802  -6.483  0.00  0.00     0.249 C 
ATOM     37  O3  ROC d   1      12.578  -8.845  -6.778  0.00  0.00    -0.271 OA
ATOM     38  N3  ROC d   1      11.542  -7.461  -5.121  0.00  0.00    -0.351 N 
ATOM     39  H   ROC d   1      10.769  -6.837  -5.006  0.00  0.00     0.163 HD
BRANCH  38  40
ATOM     40  CD  ROC d   1      12.213  -8.049  -3.919  0.00  0.00     0.022 C 
BRANCH  40  41
ATOM     41  C11 ROC d   1      13.602  -7.414  -3.964  0.00  0.00    -0.054 C 
ATOM     42  H   ROC d   1      14.199  -7.777  -3.114  0.00  0.00     0.030 H 
ATOM     43  H   ROC d   1      13.507  -6.320  -3.905  0.00  0.00     0.030 H 
ATOM     44  H   ROC d   1      14.100  -7.688  -4.905  0.00  0.00     0.030 H 
ENDBRANCH  40  41
BRANCH  40  45
ATOM     45  C22 ROC d   1      12.545  -9.527  -3.870  0.00  0.00    -0.054 C 
ATOM     46  H   ROC d   1      13.031  -9.762  -2.912  0.00  0.00     0.030 H 
ATOM     47  H   ROC d   1      13.225  -9.778  -4.697  0.00  0.00     0.030 H 
ATOM     48  H   ROC d   1      11.620 -10.114  -3.966  0.00  0.00     0.030 H 
ENDBRANCH  40  45
BRANCH  40  49
ATOM     49  C32 ROC d   1      11.580  -7.429  -2.715  0.00  0.00    -0.054 C 
ATOM     50  H   ROC d   1      12.046  -7.835  -1.805  0.00  0.00     0.030 H 
ATOM     51  H   ROC d   1      10.504  -7.656  -2.708  0.00  0.00     0.030 H 
ATOM     52  H   ROC d   1      11.724  -6.339  -2.745  0.00  0.00     0.030 H 
ENDBRANCH  40  49
ENDBRANCH  38  40
ENDBRANCH  11  36
ENDBRANCH   7  10
ENDBRANCH   3   7
ENDBRANCH   1   3
BRANCH   1  53
ATOM     53  N2  ROC d   1      15.361  -6.867 -10.691  0.00  0.00    -0.352 N 
ATOM     54  C1  ROC d   1      14.979  -8.025 -11.550  0.00  0.00     0.241 C 
ATOM     55  O1  ROC d   1      14.534  -9.116 -11.230  0.00  0.00    -0.271 OA
ATOM     56  H   ROC d   1      15.993  -6.146 -10.974  0.00  0.00     0.163 HD
BRANCH  54  57
ATOM     57  CA  ROC d   1      15.574  -8.041 -12.951  0.00  0.00     0.097 C 
ATOM     58  H   ROC d   1      15.566  -7.061 -13.450  0.00  0.00     0.088 H 
BRANCH  57  59
ATOM     59  N   ROC d   1      16.913  -8.515 -12.571  0.00  0.00    -0.342 N 
ATOM     60  C   ROC d   1      18.054  -7.648 -12.868  0.00  0.00     0.268 C 
ATOM     61  O   ROC d   1      18.098  -6.723 -13.686  0.00  0.00    -0.266 OA
ATOM     62  H   ROC d   1      17.040  -9.401 -12.124  0.00  0.00     0.163 HD
BRANCH  60  63
ATOM     63  C2  ROC d   1      19.170  -8.642 -12.445  0.00  0.00     0.097 C 
ATOM     64  N1  ROC d   1      19.682  -9.714 -11.801  0.00  0.00    -0.352 N 
ATOM     65  C8A ROC d   1      20.606 -10.715 -11.731  0.00  0.00     0.039 C 
ATOM     66  H   ROC d   1      19.094  -9.831 -10.963  0.00  0.00     0.166 HD
ATOM     67  C8  ROC d   1      20.505 -11.738 -10.794  0.00  0.00    -0.057 C 
ATOM     68  C4A ROC d   1      21.695  -9.956 -12.170  0.00  0.00    -0.028 C 
ATOM     69  C7  ROC d   1      21.843 -11.736 -10.417  0.00  0.00    -0.081 C 
ATOM     70  H   ROC d   1      19.663 -12.337 -10.467  0.00  0.00     0.086 H 
ATOM     71  C6  ROC d   1      23.149 -11.297 -10.662  0.00  0.00    -0.082 C 
ATOM     72  H   ROC d   1      21.901 -12.357  -9.530  0.00  0.00     0.083 H 
ATOM     73  C5  ROC d   1      22.908 -10.282 -11.554  0.00  0.00    -0.074 C 
ATOM     74  H   ROC d   1      24.089 -11.658 -10.260  0.00  0.00     0.083 H 
ATOM     75  H   ROC d   1      23.758  -9.660 -11.811  0.00  0.00     0.084 H 
ATOM     76  C4  ROC d   1      21.642  -8.663 -12.674  0.00  0.00    -0.021 C 
ATOM     77  C3  ROC d   1      20.388  -8.013 -12.640  0.00  0.00    -0.068 C 
ATOM     78  H   ROC d   1      22.349  -8.051 -12.094  0.00  0.00     0.046 H 
ATOM     79  H   ROC d   1      21.967  -8.703 -13.724  0.00  0.00     0.046 H 
ATOM     80  H   ROC d   1      20.379  -6.933 -12.778  0.00  0.00     0.081 H 
ENDBRANCH  60  63
ENDBRANCH  57  59
BRANCH  57  81
ATOM     81  CB  ROC d   1      14.908  -9.095 -13.793  0.00  0.00     0.036 C 
ATOM     82  H   ROC d   1      13.812  -9.093 -13.703  0.00  0.00     0.051 H 
ATOM     83  H   ROC d   1      15.290 -10.109 -13.601  0.00  0.00     0.051 H 
BRANCH  81  84
ATOM     84  CG  ROC d   1      15.400  -8.509 -15.097  0.00  0.00     0.217 C 
ATOM     85  OD1 ROC d   1      15.666  -7.410 -15.549  0.00  0.00    -0.274 OA
ATOM     86  ND2 ROC d   1      16.132  -9.301 -16.066  0.00  0.00    -0.370 N 
ATOM     87  H   ROC d   1      16.444  -8.884 -16.919  0.00  0.00     0.159 HD
ATOM     88  H   ROC d   1      16.325 -10.265 -15.881  0.00  0.00     0.159 HD
ENDBRANCH  81  84
ENDBRANCH  57  81
ENDBRANCH  54  57
ENDBRANCH   1  53
BRANCH   1  89
ATOM     89  CB1 ROC d   1      15.783  -6.336  -8.485  0.00  0.00    -0.037 C 
ATOM     90  H   ROC d   1      15.467  -6.474  -7.441  0.00  0.00     0.037 H 
ATOM     91  H   ROC d   1      15.859  -5.261  -8.706  0.00  0.00     0.037 H 
BRANCH  89  92
ATOM     92  CG1 ROC d   1      17.155  -6.926  -8.626  0.00  0.00    -0.036 C 
ATOM     93  CD1 ROC d   1      17.100  -8.126  -7.934  0.00  0.00    -0.102 C 
ATOM     94  CE1 ROC d   1      18.040  -9.160  -8.072  0.00  0.00    -0.106 C 
ATOM     95  H   ROC d   1      16.275  -8.276  -7.239  0.00  0.00     0.076 H 
ATOM     96  CZ  ROC d   1      19.296  -8.849  -8.545  0.00  0.00    -0.050 C 
ATOM     97  H   ROC d   1      17.782 -10.185  -7.811  0.00  0.00     0.076 H 
ATOM     98  CE2 ROC d   1      19.236  -7.648  -9.232  0.00  0.00    -0.061 C 
ATOM     99  H   ROC d   1      19.642  -9.644  -9.222  0.00  0.00     0.038 H 
ATOM    100  H   ROC d   1      19.995  -8.756  -7.701  0.00  0.00     0.038 H 
ATOM    101  CD2 ROC d   1      18.456  -6.533  -8.920  0.00  0.00    -0.058 C 
ATOM    102  H   ROC d   1      20.271  -7.275  -9.239  0.00  0.00     0.033 H 
ATOM    103  H   ROC d   1      18.939  -7.923 -10.255  0.00  0.00     0.033 H 
ATOM    104  H   ROC d   1      18.887  -6.020  -8.047  0.00  0.00     0.034 H 
ATOM    105  H   ROC d   1      18.443  -5.846  -9.779  0.00  0.00     0.034 H 
ATOM    106  H   ROC d   1      16.979  -7.293  -9.648  0.00  0.00     0.046 H 
ENDBRANCH  89  92
ENDBRANCH   1  89
TORSDOF 17
