REMARK  27 active torsions:
REMARK  status: ('A' for Active; 'I' for Inactive)
REMARK    1  A    between atoms: OAJ_1  and  CBT_2 
REMARK    2  A    between atoms: CBU_11  and  CBR_12 
REMARK    3  A    between atoms: CBR_12  and  SBO_14 
REMARK    4  A    between atoms: SBO_14  and  CBA_15 
REMARK    5  A    between atoms: CBA_15  and  CAY_16 
REMARK    6  A    between atoms: CAY_16  and  NBH_17 
REMARK       I    between atoms: NBH_17  and  CBP_18 
REMARK    7  A    between atoms: CBP_18  and  CBB_20 
REMARK    8  A    between atoms: CBB_20  and  CAZ_21 
REMARK    9  A    between atoms: CAZ_21  and  NBI_22 
REMARK       I    between atoms: NBI_22  and  CBQ_23 
REMARK   10  A    between atoms: CBQ_23  and  CBZ_25 
REMARK   11  A    between atoms: CBZ_25  and  OAK_26 
REMARK   12  A    between atoms: CBZ_25  and  CCF_27 
REMARK   13  A    between atoms: CCF_27  and  CAA_28 
REMARK   14  A    between atoms: CCF_27  and  CAB_29 
REMARK   15  A    between atoms: CCF_27  and  CBD_30 
REMARK   16  A    between atoms: CBD_30  and  OBK_31 
REMARK   17  A    between atoms: OBK_31  and  PCI_32 
REMARK   18  A    between atoms: PCI_32  and  OBN_35 
REMARK   19  A    between atoms: OBN_35  and  PCH_36 
REMARK   20  A    between atoms: PCH_36  and  O5'_39 
REMARK   21  A    between atoms: O5'_39  and  C5'_40 
REMARK   22  A    between atoms: C5'_40  and  C4'_41 
REMARK   23  A    between atoms: C3'_43  and  O3'_44 
REMARK   24  A    between atoms: O3'_44  and  PCG_45 
REMARK   25  A    between atoms: C2'_49  and  O2'_50 
REMARK   26  A    between atoms: C1'_51  and  N9_52 
REMARK   27  A    between atoms: C6_60  and  N6_61 
ROOT
ATOM      1  CCF 1HA d   1      35.342 -14.971 197.979  0.00  0.00     0.009 C 
ENDROOT
BRANCH   1   2
ATOM      2  CBZ 1HA d   1      34.431 -16.190 197.720  0.00  0.00     0.120 C 
ATOM      3  H   1HA d   1      34.828 -17.044 198.288  0.00  0.00     0.099 H 
BRANCH   2   4
ATOM      4  CBQ 1HA d   1      34.385 -16.560 196.234  0.00  0.00     0.247 C 
ATOM      5  NBI 1HA d   1      33.253 -16.037 195.395  0.00  0.00    -0.358 N 
ATOM      6  H   1HA d   1      32.551 -15.443 195.788  0.00  0.00     0.162 HD
ATOM      7  OAE 1HA d   1      35.200 -17.265 195.743  0.00  0.00    -0.271 OA
BRANCH   5   8
ATOM      8  CAZ 1HA d   1      33.211 -16.421 194.000  0.00  0.00     0.003 C 
ATOM      9  H   1HA d   1      33.452 -17.491 193.916  0.00  0.00     0.064 H 
ATOM     10  H   1HA d   1      32.198 -16.242 193.610  0.00  0.00     0.064 H 
BRANCH   8  11
ATOM     11  CBB 1HA d   1      34.195 -15.633 193.183  0.00  0.00     0.024 C 
ATOM     12  H   1HA d   1      34.037 -14.551 193.299  0.00  0.00     0.049 H 
ATOM     13  H   1HA d   1      35.232 -15.883 193.452  0.00  0.00     0.049 H 
BRANCH  11  14
ATOM     14  CBP 1HA d   1      33.851 -16.108 191.731  0.00  0.00     0.219 C 
ATOM     15  NBH 1HA d   1      32.990 -15.298 190.938  0.00  0.00    -0.360 N 
ATOM     16  H   1HA d   1      32.646 -14.437 191.312  0.00  0.00     0.162 HD
ATOM     17  OAD 1HA d   1      34.308 -17.202 191.311  0.00  0.00    -0.274 OA
BRANCH  15  18
ATOM     18  CAY 1HA d   1      32.607 -15.689 189.620  0.00  0.00     0.003 C 
ATOM     19  H   1HA d   1      32.007 -16.608 189.692  0.00  0.00     0.065 H 
ATOM     20  H   1HA d   1      31.996 -14.885 189.184  0.00  0.00     0.065 H 
BRANCH  18  21
ATOM     21  CBA 1HA d   1      33.848 -15.971 188.636  0.00  0.00    -0.001 C 
ATOM     22  H   1HA d   1      34.709 -15.346 188.916  0.00  0.00     0.052 H 
ATOM     23  H   1HA d   1      34.136 -17.032 188.676  0.00  0.00     0.052 H 
BRANCH  21  24
ATOM     24  SBO 1HA d   1      33.279 -15.548 187.020  0.00  0.00    -0.086 SA
BRANCH  24  25
ATOM     25  CBR 1HA d   1      33.204 -13.739 186.902  0.00  0.00     0.222 C 
ATOM     26  OAF 1HA d   1      33.053 -13.094 187.915  0.00  0.00    -0.280 OA
BRANCH  25  27
ATOM     27  CBU 1HA d   1      32.628 -13.149 185.641  0.00  0.00     0.055 A 
ATOM     28  CBT 1HA d   1      33.409 -13.425 184.496  0.00  0.00     0.091 A 
ATOM     29  CBW 1HA d   1      32.996 -12.956 183.243  0.00  0.00     0.008 A 
ATOM     30  CAV 1HA d   1      33.793 -13.235 182.093  0.00  0.00    -0.070 A 
ATOM     31  CBV 1HA d   1      31.832 -12.238 183.144  0.00  0.00    -0.023 A 
ATOM     32  CAR 1HA d   1      33.393 -12.781 180.870  0.00  0.00    -0.082 A 
ATOM     33  H   1HA d   1      34.711 -13.804 182.190  0.00  0.00     0.085 H 
ATOM     34  CAQ 1HA d   1      32.210 -12.051 180.764  0.00  0.00    -0.082 A 
ATOM     35  H   1HA d   1      33.990 -12.986 179.989  0.00  0.00     0.083 H 
ATOM     36  CAU 1HA d   1      31.425 -11.777 181.893  0.00  0.00    -0.072 A 
ATOM     37  H   1HA d   1      31.892 -11.689 179.793  0.00  0.00     0.083 H 
ATOM     38  H   1HA d   1      30.507 -11.210 181.794  0.00  0.00     0.084 H 
ATOM     39  CAW 1HA d   1      31.047 -11.966 184.294  0.00  0.00    -0.071 A 
ATOM     40  CAT 1HA d   1      31.464 -12.432 185.544  0.00  0.00    -0.065 A 
ATOM     41  H   1HA d   1      30.128 -11.399 184.204  0.00  0.00     0.084 H 
ATOM     42  H   1HA d   1      30.872 -12.228 186.429  0.00  0.00     0.085 H 
BRANCH  28  43
ATOM     43  OAJ 1HA d   1      34.613 -14.148 184.472  0.00  0.00    -0.359 OA
ATOM     44  H   1HA d   1      34.828 -14.432 185.353  0.00  0.00     0.217 HD
ENDBRANCH  28  43
ENDBRANCH  25  27
ENDBRANCH  24  25
ENDBRANCH  21  24
ENDBRANCH  18  21
ENDBRANCH  15  18
ENDBRANCH  11  14
ENDBRANCH   8  11
ENDBRANCH   5   8
ENDBRANCH   2   4
BRANCH   2  45
ATOM     45  OAK 1HA d   1      33.148 -15.940 198.126  0.00  0.00    -0.385 OA
ATOM     46  H   1HA d   1      33.148 -15.707 199.047  0.00  0.00     0.210 HD
ENDBRANCH   2  45
ENDBRANCH   1   2
BRANCH   1  47
ATOM     47  CAA 1HA d   1      36.809 -15.351 197.644  0.00  0.00    -0.065 C 
ATOM     48  H   1HA d   1      37.463 -14.486 197.827  0.00  0.00     0.028 H 
ATOM     49  H   1HA d   1      36.879 -15.646 196.587  0.00  0.00     0.028 H 
ATOM     50  H   1HA d   1      37.125 -16.190 198.281  0.00  0.00     0.028 H 
ENDBRANCH   1  47
BRANCH   1  51
ATOM     51  CAB 1HA d   1      34.924 -13.768 197.154  0.00  0.00    -0.065 C 
ATOM     52  H   1HA d   1      33.884 -13.502 197.394  0.00  0.00     0.028 H 
ATOM     53  H   1HA d   1      35.002 -14.012 196.084  0.00  0.00     0.028 H 
ATOM     54  H   1HA d   1      35.583 -12.918 197.385  0.00  0.00     0.028 H 
ENDBRANCH   1  51
BRANCH   1  55
ATOM     55  CBD 1HA d   1      35.242 -14.601 199.443  0.00  0.00     0.041 C 
ATOM     56  H   1HA d   1      34.392 -13.921 199.601  0.00  0.00     0.076 H 
ATOM     57  H   1HA d   1      36.170 -14.110 199.770  0.00  0.00     0.076 H 
BRANCH  55  58
ATOM     58  OBK 1HA d   1      35.038 -15.844 200.201  0.00  0.00    -0.289 OA
BRANCH  58  59
ATOM     59  PCI 1HA d   1      34.777 -15.765 201.828  0.00  0.00     0.417 P 
ATOM     60  OAP 1HA d   1      35.239 -14.482 202.386  0.00  0.00    -0.624 OA
ATOM     61  OAI 1HA d   1      35.499 -16.927 202.452  0.00  0.00    -0.624 OA
BRANCH  59  62
ATOM     62  OBN 1HA d   1      33.239 -15.803 202.180  0.00  0.00    -0.180 OA
BRANCH  62  63
ATOM     63  PCH 1HA d   1      32.045 -16.642 201.444  0.00  0.00     0.417 P 
ATOM     64  OAO 1HA d   1      32.531 -17.527 200.296  0.00  0.00    -0.624 OA
ATOM     65  OAH 1HA d   1      31.349 -17.529 202.500  0.00  0.00    -0.624 OA
BRANCH  63  66
ATOM     66  O5' 1HA d   1      31.019 -15.552 200.878  0.00  0.00    -0.287 OA
BRANCH  66  67
ATOM     67  C5' 1HA d   1      30.050 -14.905 201.777  0.00  0.00     0.058 C 
ATOM     68  H   1HA d   1      30.366 -13.874 201.992  0.00  0.00     0.079 H 
ATOM     69  H   1HA d   1      29.975 -15.469 202.718  0.00  0.00     0.079 H 
BRANCH  67  70
ATOM     70  C4' 1HA d   1      28.686 -14.899 201.055  0.00  0.00     0.090 C 
ATOM     71  O4' 1HA d   1      28.787 -14.281 199.910  0.00  0.00    -0.353 OA
ATOM     72  C1' 1HA d   1      28.367 -15.297 198.765  0.00  0.00     0.140 C 
ATOM     73  C2' 1HA d   1      28.722 -16.486 199.267  0.00  0.00     0.106 C 
ATOM     74  H   1HA d   1      27.286 -15.257 198.564  0.00  0.00     0.122 H 
ATOM     75  C3' 1HA d   1      28.287 -16.380 200.718  0.00  0.00     0.107 C 
ATOM     76  H   1HA d   1      29.814 -16.604 199.205  0.00  0.00     0.093 H 
ATOM     77  H   1HA d   1      28.796 -17.107 201.368  0.00  0.00     0.092 H 
ATOM     78  H   1HA d   1      27.924 -14.421 201.688  0.00  0.00     0.090 H 
BRANCH  72  79
ATOM     79  N9  1HA d   1      29.103 -14.992 197.562  0.00  0.00    -0.294 N 
ATOM     80  C8  1HA d   1      30.409 -14.600 197.503  0.00  0.00     0.071 A 
ATOM     81  N7  1HA d   1      30.737 -14.416 196.186  0.00  0.00    -0.236 NA
ATOM     82  H   1HA d   1      31.074 -14.458 198.354  0.00  0.00     0.144 H 
ATOM     83  C5  1HA d   1      29.623 -14.702 195.430  0.00  0.00     0.149 A 
ATOM     84  C4  1HA d   1      28.620 -15.056 196.266  0.00  0.00     0.167 A 
ATOM     85  C6  1HA d   1      29.409 -14.681 194.048  0.00  0.00     0.155 A 
ATOM     86  N3  1HA d   1      27.391 -15.391 195.751  0.00  0.00    -0.222 NA
ATOM     87  C2  1HA d   1      27.180 -15.361 194.400  0.00  0.00     0.091 A 
ATOM     88  N1  1HA d   1      28.199 -15.002 193.546  0.00  0.00    -0.222 NA
ATOM     89  H   1HA d   1      26.207 -15.621 194.000  0.00  0.00     0.146 H 
BRANCH  85  90
ATOM     90  N6  1HA d   1      30.338 -14.332 193.048  0.00  0.00    -0.382 N 
ATOM     91  H   1HA d   1      30.060 -14.355 192.056  0.00  0.00     0.157 HD
ATOM     92  H   1HA d   1      31.295 -14.054 193.309  0.00  0.00     0.157 HD
ENDBRANCH  85  90
ENDBRANCH  72  79
BRANCH  73  93
ATOM     93  O2' 1HA d   1      28.082 -17.677 198.569  0.00  0.00    -0.388 OA
ATOM     94  H   1HA d   1      27.137 -17.585 198.591  0.00  0.00     0.210 HD
ENDBRANCH  73  93
BRANCH  75  95
ATOM     95  O3' 1HA d   1      26.937 -16.536 200.781  0.00  0.00    -0.272 OA
BRANCH  95  96
ATOM     96  PCG 1HA d   1      26.141 -17.183 202.068  0.00  0.00     0.422 P 
ATOM     97  OAM 1HA d   1      26.279 -16.257 203.238  0.00  0.00    -0.617 OA
ATOM     98  OAN 1HA d   1      24.621 -17.327 201.696  0.00  0.00    -0.617 OA
ATOM     99  OAG 1HA d   1      26.720 -18.600 202.372  0.00  0.00    -0.617 OA
ENDBRANCH  95  96
ENDBRANCH  75  95
ENDBRANCH  67  70
ENDBRANCH  66  67
ENDBRANCH  63  66
ENDBRANCH  62  63
ENDBRANCH  59  62
ENDBRANCH  58  59
ENDBRANCH  55  58
ENDBRANCH   1  55
TORSDOF 27
