REMARK  12 active torsions:
REMARK  status: ('A' for Active; 'I' for Inactive)
REMARK    1  A    between atoms: C17_6  and  S14_2 
REMARK    2  A    between atoms: S14_2  and  C8_7 
REMARK    3  A    between atoms: C18_4  and  O20_5 
REMARK    4  A    between atoms: C18_4  and  C17_6 
REMARK    5  A    between atoms: C9_12  and  N19_20 
REMARK    6  A    between atoms: C5_15  and  S1_16 
REMARK    7  A    between atoms: S1_16  and  N4_18 
REMARK    8  A    between atoms: N19_20  and  C21_21 
REMARK    9  A    between atoms: C21_21  and  C30_22 
REMARK   10  A    between atoms: C21_21  and  C22_28 
REMARK   11  A    between atoms: C22_28  and  O29_29 
REMARK   12  A    between atoms: C22_28  and  C23_30 
ROOT
ATOM      1  N19 WWX d   1      26.366   6.325  12.859  0.00  0.00    -0.375 N 
ATOM      2  H8  WWX d   1      27.128   6.171  13.535  0.00  0.00     0.160 HD
ENDROOT
BRANCH   1   3
ATOM      3  C9  WWX d   1      26.255   5.548  11.685  0.00  0.00     0.094 A 
ATOM      4  C8  WWX d   1      27.250   5.652  10.685  0.00  0.00     0.130 A 
ATOM      5  C7  WWX d   1      27.156   4.930   9.502  0.00  0.00     0.180 A 
ATOM      6  F12 WWX d   1      28.085   5.078   8.500  0.00  0.00    -0.201 F 
ATOM      7  C6  WWX d   1      26.088   4.033   9.336  0.00  0.00     0.182 A 
ATOM      8  F11 WWX d   1      26.004   3.346   8.179  0.00  0.00    -0.201 F 
ATOM      9  C5  WWX d   1      25.121   3.926  10.295  0.00  0.00     0.161 A 
ATOM     10  C10 WWX d   1      25.182   4.671  11.467  0.00  0.00     0.170 A 
ATOM     11  F13 WWX d   1      24.197   4.443  12.300  0.00  0.00    -0.202 F 
BRANCH   4  12
ATOM     12  S14 WWX d   1      28.721   6.699  10.770  0.00  0.00     0.182 S 
ATOM     13  O16 WWX d   1      29.072   7.181  12.203  0.00  0.00    -0.222 OA
ATOM     14  O15 WWX d   1      29.992   5.878  10.377  0.00  0.00    -0.222 OA
BRANCH  12  15
ATOM     15  C17 WWX d   1      28.735   8.041   9.556  0.00  0.00     0.053 C 
ATOM     16  H4  WWX d   1      27.966   8.781   9.821  0.00  0.00     0.059 H 
ATOM     17  H5  WWX d   1      28.521   7.632   8.557  0.00  0.00     0.059 H 
BRANCH  15  18
ATOM     18  C18 WWX d   1      30.110   8.719   9.544  0.00  0.00     0.029 C 
ATOM     19  H1  WWX d   1      30.892   8.018   9.872  0.00  0.00     0.075 H 
ATOM     20  H2  WWX d   1      30.351   9.092   8.537  0.00  0.00     0.075 H 
BRANCH  18  21
ATOM     21  O20 WWX d   1      29.985   9.790  10.456  0.00  0.00    -0.400 OA
ATOM     22  H3  WWX d   1      29.765   9.449  11.315  0.00  0.00     0.209 HD
ENDBRANCH  18  21
ENDBRANCH  15  18
ENDBRANCH  12  15
ENDBRANCH   4  12
BRANCH   9  23
ATOM     23  S1  WWX d   1      23.851   2.696  10.109  0.00  0.00     0.263 S 
ATOM     24  O3  WWX d   1      23.121   2.931   8.789  0.00  0.00    -0.201 OA
ATOM     25  O2  WWX d   1      24.706   1.438   9.924  0.00  0.00    -0.201 OA
BRANCH  23  26
ATOM     26  N4  WWX d   1      22.713   2.378  11.217  0.00  0.00    -0.324 N 
ATOM     27  H6  WWX d   1      22.029   1.670  11.042  0.00  0.00     0.169 HD
ATOM     28  H7  WWX d   1      22.694   2.890  12.076  0.00  0.00     0.169 HD
ENDBRANCH  23  26
ENDBRANCH   9  23
ENDBRANCH   1   3
BRANCH   1  29
ATOM     29  C21 WWX d   1      25.333   7.377  13.078  0.00  0.00     0.064 C 
ATOM     30  H9  WWX d   1      24.371   7.004  12.697  0.00  0.00     0.084 H 
BRANCH  29  31
ATOM     31  C30 WWX d   1      25.745   8.582  12.256  0.00  0.00    -0.033 A 
ATOM     32  C35 WWX d   1      25.274   8.672  10.935  0.00  0.00    -0.075 A 
ATOM     33  C34 WWX d   1      25.700   9.775  10.113  0.00  0.00    -0.082 A 
ATOM     34  H10 WWX d   1      24.599   7.921  10.540  0.00  0.00     0.084 H 
ATOM     35  C33 WWX d   1      26.555  10.777  10.615  0.00  0.00    -0.083 A 
ATOM     36  H11 WWX d   1      25.356   9.836   9.087  0.00  0.00     0.083 H 
ATOM     37  C32 WWX d   1      26.973  10.674  11.954  0.00  0.00    -0.082 A 
ATOM     38  H12 WWX d   1      26.880  11.600   9.989  0.00  0.00     0.083 H 
ATOM     39  C31 WWX d   1      26.582   9.586  12.763  0.00  0.00    -0.075 A 
ATOM     40  H13 WWX d   1      27.608  11.446  12.373  0.00  0.00     0.083 H 
ATOM     41  H14 WWX d   1      26.932   9.526  13.787  0.00  0.00     0.084 H 
ENDBRANCH  29  31
BRANCH  29  42
ATOM     42  C22 WWX d   1      25.134   7.731  14.577  0.00  0.00     0.084 C 
ATOM     43  H15 WWX d   1      26.054   8.122  15.036  0.00  0.00     0.094 H 
BRANCH  42  44
ATOM     44  O29 WWX d   1      24.130   8.664  14.652  0.00  0.00    -0.388 OA
ATOM     45  H16 WWX d   1      24.380   9.437  14.159  0.00  0.00     0.210 HD
ENDBRANCH  42  44
BRANCH  42  46
ATOM     46  C23 WWX d   1      24.741   6.434  15.185  0.00  0.00    -0.027 A 
ATOM     47  C28 WWX d   1      23.385   6.019  15.103  0.00  0.00    -0.074 A 
ATOM     48  C27 WWX d   1      22.996   4.744  15.541  0.00  0.00    -0.082 A 
ATOM     49  H17 WWX d   1      22.642   6.696  14.697  0.00  0.00     0.084 H 
ATOM     50  C26 WWX d   1      23.998   3.948  16.064  0.00  0.00    -0.083 A 
ATOM     51  H18 WWX d   1      21.969   4.403  15.473  0.00  0.00     0.083 H 
ATOM     52  C25 WWX d   1      25.354   4.431  16.188  0.00  0.00    -0.082 A 
ATOM     53  H19 WWX d   1      23.762   2.941  16.388  0.00  0.00     0.083 H 
ATOM     54  C24 WWX d   1      25.784   5.674  15.695  0.00  0.00    -0.074 A 
ATOM     55  H20 WWX d   1      26.079   3.800  16.689  0.00  0.00     0.083 H 
ATOM     56  H21 WWX d   1      26.817   6.003  15.711  0.00  0.00     0.084 H 
ENDBRANCH  42  46
ENDBRANCH  29  42
ENDBRANCH   1  29
TORSDOF 12
