REMARK  9 active torsions:
REMARK  status: ('A' for Active; 'I' for Inactive)
REMARK    1  A    between atoms: C4_3  and  S7_4 
REMARK    2  A    between atoms: S7_4  and  N10_6 
REMARK    3  A    between atoms: C6_12  and  N26_20 
REMARK    4  A    between atoms: C1_13  and  S11_14 
REMARK    5  A    between atoms: S11_14  and  C21_17 
REMARK    6  A    between atoms: C21_17  and  C24_18 
REMARK    7  A    between atoms: C24_18  and  O25_19 
REMARK    8  A    between atoms: N26_20  and  C14_21 
REMARK    9  A    between atoms: C14_21  and  C15_22 
ROOT
ATOM      1  F27 WWO d   1      21.321  -3.380   1.582  0.00  0.00    -0.202 F 
ATOM      2  C5  WWO d   1      21.628  -2.781   2.731  0.00  0.00     0.170 A 
ATOM      3  C4  WWO d   1      21.436  -3.530   3.928  0.00  0.00     0.161 A 
ATOM      4  C3  WWO d   1      21.766  -2.879   5.140  0.00  0.00     0.182 A 
ATOM      5  F12 WWO d   1      21.663  -3.412   6.370  0.00  0.00    -0.201 F 
ATOM      6  C2  WWO d   1      22.267  -1.572   5.141  0.00  0.00     0.180 A 
ATOM      7  F13 WWO d   1      22.558  -1.031   6.349  0.00  0.00    -0.201 F 
ATOM      8  C6  WWO d   1      22.123  -1.454   2.706  0.00  0.00     0.094 A 
ATOM      9  C1  WWO d   1      22.461  -0.860   3.932  0.00  0.00     0.130 A 
ENDROOT
BRANCH   8  10
ATOM     10  N26 WWO d   1      22.245  -0.737   1.445  0.00  0.00    -0.382 N 
ATOM     11  H8  WWO d   1      23.141  -0.426   1.042  0.00  0.00     0.160 HD
BRANCH  10  12
ATOM     12  C14 WWO d   1      20.955  -0.513   0.824  0.00  0.00     0.017 C 
ATOM     13  H9  WWO d   1      20.549   0.414   1.254  0.00  0.00     0.071 H 
ATOM     14  H10 WWO d   1      20.312  -1.360   1.105  0.00  0.00     0.071 H 
BRANCH  12  15
ATOM     15  C15 WWO d   1      20.872  -0.378  -0.658  0.00  0.00    -0.041 A 
ATOM     16  C20 WWO d   1      21.233  -1.430  -1.514  0.00  0.00    -0.075 A 
ATOM     17  C19 WWO d   1      21.107  -1.287  -2.916  0.00  0.00    -0.082 A 
ATOM     18  H11 WWO d   1      21.610  -2.357  -1.099  0.00  0.00     0.084 H 
ATOM     19  C18 WWO d   1      20.617  -0.078  -3.431  0.00  0.00    -0.083 A 
ATOM     20  H12 WWO d   1      21.384  -2.098  -3.580  0.00  0.00     0.083 H 
ATOM     21  C17 WWO d   1      20.261   0.983  -2.578  0.00  0.00    -0.082 A 
ATOM     22  H13 WWO d   1      20.511   0.041  -4.503  0.00  0.00     0.083 H 
ATOM     23  C16 WWO d   1      20.395   0.836  -1.195  0.00  0.00    -0.075 A 
ATOM     24  H14 WWO d   1      19.884   1.911  -2.992  0.00  0.00     0.083 H 
ATOM     25  H15 WWO d   1      20.132   1.655  -0.535  0.00  0.00     0.084 H 
ENDBRANCH  12  15
ENDBRANCH  10  12
ENDBRANCH   8  10
BRANCH   9  26
ATOM     26  S11 WWO d   1      23.016   0.865   3.994  0.00  0.00     0.182 S 
ATOM     27  O22 WWO d   1      22.191   1.491   5.141  0.00  0.00    -0.222 OA
ATOM     28  O23 WWO d   1      22.220   1.533   2.822  0.00  0.00    -0.222 OA
BRANCH  26  29
ATOM     29  C21 WWO d   1      24.728   1.415   3.901  0.00  0.00     0.053 C 
ATOM     30  H3  WWO d   1      25.343   0.642   3.418  0.00  0.00     0.059 H 
ATOM     31  H4  WWO d   1      25.113   1.611   4.912  0.00  0.00     0.059 H 
BRANCH  29  32
ATOM     32  C24 WWO d   1      24.764   2.707   3.068  0.00  0.00     0.029 C 
ATOM     33  H5  WWO d   1      24.522   3.564   3.714  0.00  0.00     0.075 H 
ATOM     34  H6  WWO d   1      24.024   2.639   2.257  0.00  0.00     0.075 H 
BRANCH  32  35
ATOM     35  O25 WWO d   1      26.038   2.884   2.520  0.00  0.00    -0.400 OA
ATOM     36  H7  WWO d   1      26.677   2.944   3.220  0.00  0.00     0.209 HD
ENDBRANCH  32  35
ENDBRANCH  29  32
ENDBRANCH  26  29
ENDBRANCH   9  26
BRANCH   3  37
ATOM     37  S7  WWO d   1      20.767  -5.244   3.885  0.00  0.00     0.263 S 
ATOM     38  O9  WWO d   1      21.644  -6.322   3.268  0.00  0.00    -0.201 OA
ATOM     39  O8  WWO d   1      19.433  -5.405   3.194  0.00  0.00    -0.201 OA
BRANCH  37  40
ATOM     40  N10 WWO d   1      20.524  -5.702   5.596  0.00  0.00    -0.324 N 
ATOM     41  H1  WWO d   1      20.162  -6.606   5.825  0.00  0.00     0.169 HD
ATOM     42  H2  WWO d   1      20.750  -5.055   6.324  0.00  0.00     0.169 HD
ENDBRANCH  37  40
ENDBRANCH   3  37
TORSDOF 9
