REMARK  9 active torsions:
REMARK  status: ('A' for Active; 'I' for Inactive)
REMARK    1  A    between atoms: CBN_2  and  CBI_5 
REMARK    2  A    between atoms: CBG_11  and  CBB_12 
REMARK       I    between atoms: CBB_12  and  NAY_14 
REMARK    3  A    between atoms: NAY_14  and  CBF_15 
REMARK    4  A    between atoms: CBH_17  and  NBM_18 
REMARK    5  A    between atoms: NBK_21  and  CAA_22 
REMARK    6  A    between atoms: CBE_27  and  CBD_28 
REMARK    7  A    between atoms: CBC_33  and  CAX_34 
REMARK    8  A    between atoms: CAX_34  and  NBL_35 
REMARK    9  A    between atoms: NBL_35  and  CAT_36 
ROOT
ATOM      1  CBF 35Q d   1     -12.079 -26.435   1.706  0.00  0.00     0.062 A 
ATOM      2  CAN 35Q d   1     -12.429 -26.672   0.374  0.00  0.00    -0.044 A 
ATOM      3  CBH 35Q d   1     -12.915 -25.638   2.519  0.00  0.00     0.057 A 
ATOM      4  CAK 35Q d   1     -14.083 -25.079   1.935  0.00  0.00    -0.054 A 
ATOM      5  CAJ 35Q d   1     -14.382 -25.308   0.593  0.00  0.00    -0.070 A 
ATOM      6  CBE 35Q d   1     -13.569 -26.100  -0.212  0.00  0.00    -0.024 A 
ATOM      7  H5  35Q d   1     -11.800 -27.319  -0.226  0.00  0.00     0.088 H 
ATOM      8  H18 35Q d   1     -14.747 -24.470   2.538  0.00  0.00     0.087 H 
ATOM      9  H19 35Q d   1     -15.271 -24.858   0.166  0.00  0.00     0.084 H 
ENDROOT
BRANCH   6  10
ATOM     10  CBD 35Q d   1     -13.843 -26.310  -1.589  0.00  0.00    -0.025 A 
ATOM     11  CAM 35Q d   1     -12.750 -26.469  -2.474  0.00  0.00    -0.065 A 
ATOM     12  CBC 35Q d   1     -12.949 -26.676  -3.844  0.00  0.00    -0.032 A 
ATOM     13  H20 35Q d   1     -11.740 -26.430  -2.083  0.00  0.00     0.085 H 
ATOM     14  CAH 35Q d   1     -14.241 -26.673  -4.336  0.00  0.00    -0.075 A 
ATOM     15  CAG 35Q d   1     -15.315 -26.495  -3.485  0.00  0.00    -0.082 A 
ATOM     16  H23 35Q d   1     -14.413 -26.811  -5.397  0.00  0.00     0.084 H 
ATOM     17  CAI 35Q d   1     -15.129 -26.299  -2.114  0.00  0.00    -0.072 A 
ATOM     18  H22 35Q d   1     -16.321 -26.508  -3.889  0.00  0.00     0.083 H 
ATOM     19  H21 35Q d   1     -15.982 -26.140  -1.465  0.00  0.00     0.084 H 
BRANCH  12  20
ATOM     20  CAX 35Q d   1     -11.892 -26.824  -4.730  0.00  0.00     0.105 C 
ATOM     21  H24 35Q d   1     -11.122 -26.071  -4.506  0.00  0.00     0.083 H 
ATOM     22  H25 35Q d   1     -12.257 -26.681  -5.758  0.00  0.00     0.083 H 
BRANCH  20  23
ATOM     23  NBL 35Q d   1     -11.309 -28.163  -4.605  0.00  0.00    -0.075 N 
ATOM     24  H26 35Q d   1     -12.020 -28.851  -4.799  0.00  0.00     0.277 HD
ATOM     25  H27 35Q d   1     -10.969 -28.287  -3.664  0.00  0.00     0.277 HD
BRANCH  23  26
ATOM     26  CAT 35Q d   1     -10.190 -28.348  -5.550  0.00  0.00     0.065 C 
ATOM     27  H28 35Q d   1      -9.774 -29.360  -5.433  0.00  0.00     0.067 H 
ATOM     28  H29 35Q d   1      -9.407 -27.604  -5.342  0.00  0.00     0.067 H 
ATOM     29  H30 35Q d   1     -10.555 -28.219  -6.580  0.00  0.00     0.067 H 
ENDBRANCH  23  26
ENDBRANCH  20  23
ENDBRANCH  12  20
ENDBRANCH   6  10
BRANCH   1  30
ATOM     30  NAY 35Q d   1     -11.000 -27.100   2.229  0.00  0.00    -0.324 N 
ATOM     31  CBB 35Q d   1      -9.752 -26.936   1.770  0.00  0.00     0.235 C 
ATOM     32  OAB 35Q d   1      -9.458 -26.045   0.964  0.00  0.00    -0.272 OA
ATOM     33  H4  35Q d   1     -11.151 -27.735   2.986  0.00  0.00     0.169 HD
BRANCH  31  34
ATOM     34  CBG 35Q d   1      -8.782 -27.876   2.224  0.00  0.00     0.086 A 
ATOM     35  CBI 35Q d   1      -7.485 -27.569   2.720  0.00  0.00     0.049 A 
ATOM     36  CAO 35Q d   1      -6.649 -28.626   3.097  0.00  0.00    -0.004 A 
ATOM     37  CBJ 35Q d   1      -7.029 -29.956   2.949  0.00  0.00     0.266 A 
ATOM     38  H1  35Q d   1      -5.671 -28.401   3.519  0.00  0.00     0.092 H 
ATOM     39  OAC 35Q d   1      -6.285 -30.892   3.266  0.00  0.00    -0.266 OA
ATOM     40  NAZ 35Q d   1      -8.297 -30.227   2.424  0.00  0.00    -0.226 NA
ATOM     41  CAL 35Q d   1      -9.113 -29.228   2.095  0.00  0.00     0.003 A 
ATOM     42  H2  35Q d   1     -10.097 -29.479   1.702  0.00  0.00     0.109 H 
ATOM     43  H3  35Q d   1      -9.193 -27.825   3.243  0.00  0.00     0.070 H 
BRANCH  35  44
ATOM     44  CBN 35Q d   1      -7.035 -26.252   2.904  0.00  0.00     0.415 C 
ATOM     45  FAD 35Q d   1      -5.838 -26.189   3.551  0.00  0.00    -0.166 F 
ATOM     46  FAE 35Q d   1      -6.822 -25.652   1.653  0.00  0.00    -0.166 F 
ATOM     47  FAF 35Q d   1      -7.861 -25.612   3.582  0.00  0.00    -0.166 F 
ENDBRANCH  35  44
ENDBRANCH  31  34
ENDBRANCH   1  30
BRANCH   3  48
ATOM     48  NBM 35Q d   1     -12.632 -25.330   3.808  0.00  0.00    -0.376 N 
ATOM     49  CAV 35Q d   1     -13.685 -24.996   4.767  0.00  0.00     0.018 C 
ATOM     50  CAR 35Q d   1     -13.163 -24.901   6.176  0.00  0.00     0.098 C 
ATOM     51  H6  35Q d   1     -14.460 -25.776   4.728  0.00  0.00     0.066 H 
ATOM     52  H7  35Q d   1     -14.125 -24.028   4.487  0.00  0.00     0.066 H 
ATOM     53  NBK 35Q d   1     -11.984 -24.062   6.358  0.00  0.00    -0.072 N 
ATOM     54  H8  35Q d   1     -12.910 -25.917   6.512  0.00  0.00     0.078 H 
ATOM     55  H9  35Q d   1     -13.967 -24.496   6.808  0.00  0.00     0.078 H 
ATOM     56  CAS 35Q d   1     -10.892 -24.571   5.547  0.00  0.00     0.098 C 
ATOM     57  H10 35Q d   1     -12.204 -23.119   6.077  0.00  0.00     0.279 HD
ATOM     58  CAW 35Q d   1     -11.341 -24.670   4.086  0.00  0.00     0.018 C 
ATOM     59  H14 35Q d   1     -10.601 -25.568   5.909  0.00  0.00     0.078 H 
ATOM     60  H15 35Q d   1     -10.032 -23.889   5.620  0.00  0.00     0.078 H 
ATOM     61  H16 35Q d   1     -11.404 -23.645   3.692  0.00  0.00     0.066 H 
ATOM     62  H17 35Q d   1     -10.564 -25.225   3.541  0.00  0.00     0.066 H 
BRANCH  53  63
ATOM     63  CAA 35Q d   1     -11.547 -24.063   7.773  0.00  0.00     0.066 C 
ATOM     64  H11 35Q d   1     -10.658 -23.424   7.883  0.00  0.00     0.068 H 
ATOM     65  H12 35Q d   1     -11.300 -25.090   8.080  0.00  0.00     0.068 H 
ATOM     66  H13 35Q d   1     -12.358 -23.675   8.407  0.00  0.00     0.068 H 
ENDBRANCH  53  63
ENDBRANCH   3  48
TORSDOF 9
