REMARK  24 active torsions:
REMARK  status: ('A' for Active; 'I' for Inactive)
REMARK    1  A    between atoms: O1B_1  and  C1B_2 
REMARK    2  A    between atoms: C2B_3  and  O2B_4 
REMARK    3  A    between atoms: C3B_5  and  O3B_6 
REMARK    4  A    between atoms: C5B_8  and  C6B_9 
REMARK    5  A    between atoms: C6B_9  and  O6B_10 
REMARK    6  A    between atoms: C4B_11  and  O4B_12 
REMARK    7  A    between atoms: O4B_12  and  C1C_13 
REMARK    8  A    between atoms: C2C_14  and  O2C_15 
REMARK    9  A    between atoms: C3C_16  and  O3C_17 
REMARK   10  A    between atoms: C5C_19  and  C6C_20 
REMARK   11  A    between atoms: C6C_20  and  O6C_21 
REMARK   12  A    between atoms: C4C_22  and  O4C_23 
REMARK   13  A    between atoms: O4C_23  and  C1D_24 
REMARK   14  A    between atoms: C2D_25  and  O2D_26 
REMARK   15  A    between atoms: C3D_27  and  O3D_28 
REMARK   16  A    between atoms: C5D_30  and  C6D_31 
REMARK   17  A    between atoms: C6D_31  and  O6D_32 
REMARK   18  A    between atoms: C4D_33  and  O4D_34 
REMARK   19  A    between atoms: O4D_34  and  C1E_35 
REMARK   20  A    between atoms: C2E_36  and  O2E_37 
REMARK   21  A    between atoms: C3E_38  and  O3E_39 
REMARK   22  A    between atoms: C4E_40  and  O4E_41 
REMARK   23  A    between atoms: C5E_43  and  C6E_44 
REMARK   24  A    between atoms: C6E_44  and  O6E_45 
ROOT
ATOM      1  O4C CTT d   1      -5.532  -1.531  49.914  0.00  0.00    -0.348 OA
ENDROOT
BRANCH   1   2
ATOM      2  C4C CTT d   1      -6.438  -2.118  50.865  0.00  0.00     0.096 C 
ATOM      3  C3C CTT d   1      -5.722  -2.384  52.182  0.00  0.00     0.092 C 
ATOM      4  C2C CTT d   1      -6.681  -2.953  53.228  0.00  0.00     0.110 C 
ATOM      5  H15 CTT d   1      -5.305  -1.438  52.558  0.00  0.00     0.091 H 
ATOM      6  C1C CTT d   1      -7.972  -2.150  53.399  0.00  0.00     0.159 C 
ATOM      7  H13 CTT d   1      -6.962  -3.964  52.897  0.00  0.00     0.094 H 
ATOM      8  O5C CTT d   1      -8.522  -1.794  52.117  0.00  0.00    -0.348 OA
ATOM      9  H12 CTT d   1      -7.787  -1.235  53.981  0.00  0.00     0.133 H 
ATOM     10  C5C CTT d   1      -7.612  -1.195  51.176  0.00  0.00     0.089 C 
ATOM     11  H17 CTT d   1      -7.211  -0.270  51.616  0.00  0.00     0.090 H 
ATOM     12  H21 CTT d   1      -6.818  -3.064  50.452  0.00  0.00     0.091 H 
BRANCH   3  13
ATOM     13  O3C CTT d   1      -4.662  -3.313  51.965  0.00  0.00    -0.390 OA
ATOM     14  H16 CTT d   1      -4.064  -2.963  51.315  0.00  0.00     0.210 HD
ENDBRANCH   3  13
BRANCH   4  15
ATOM     15  O2C CTT d   1      -6.024  -3.062  54.496  0.00  0.00    -0.388 OA
ATOM     16  H14 CTT d   1      -6.597  -3.505  55.111  0.00  0.00     0.210 HD
ENDBRANCH   4  15
BRANCH   6  17
ATOM     17  O4B CTT d   1      -8.847  -3.037  54.118  0.00  0.00    -0.348 OA
BRANCH  17  18
ATOM     18  C4B CTT d   1      -9.956  -2.469  54.824  0.00  0.00     0.096 C 
ATOM     19  C3B CTT d   1     -11.239  -3.225  54.478  0.00  0.00     0.092 C 
ATOM     20  C2B CTT d   1     -12.396  -2.525  55.201  0.00  0.00     0.110 C 
ATOM     21  H5  CTT d   1     -11.156  -4.252  54.862  0.00  0.00     0.091 H 
ATOM     22  C1B CTT d   1     -12.150  -2.627  56.705  0.00  0.00     0.156 C 
ATOM     23  H3  CTT d   1     -12.404  -1.465  54.906  0.00  0.00     0.094 H 
ATOM     24  O5B CTT d   1     -10.918  -1.956  56.996  0.00  0.00    -0.349 OA
ATOM     25  H2  CTT d   1     -12.061  -3.686  56.990  0.00  0.00     0.133 H 
ATOM     26  C5B CTT d   1      -9.774  -2.534  56.347  0.00  0.00     0.089 C 
ATOM     27  H7  CTT d   1      -9.695  -3.593  56.633  0.00  0.00     0.090 H 
ATOM     28  H11 CTT d   1     -10.059  -1.416  54.522  0.00  0.00     0.091 H 
BRANCH  19  29
ATOM     29  O3B CTT d   1     -11.453  -3.305  53.055  0.00  0.00    -0.390 OA
ATOM     30  H6  CTT d   1     -11.536  -2.428  52.699  0.00  0.00     0.210 HD
ENDBRANCH  19  29
BRANCH  20  31
ATOM     31  O2B CTT d   1     -13.672  -3.090  54.882  0.00  0.00    -0.388 OA
ATOM     32  H4  CTT d   1     -14.352  -2.616  55.346  0.00  0.00     0.210 HD
ENDBRANCH  20  31
BRANCH  22  33
ATOM     33  O1B CTT d   1     -13.243  -2.046  57.429  0.00  0.00    -0.369 OA
ATOM     34  H1  CTT d   1     -13.332  -1.132  57.187  0.00  0.00     0.212 HD
ENDBRANCH  22  33
BRANCH  26  35
ATOM     35  C6B CTT d   1      -8.525  -1.804  56.857  0.00  0.00     0.043 C 
ATOM     36  H8  CTT d   1      -7.640  -2.166  56.314  0.00  0.00     0.078 H 
ATOM     37  H9  CTT d   1      -8.399  -1.997  57.933  0.00  0.00     0.078 H 
BRANCH  35  38
ATOM     38  O6B CTT d   1      -8.681  -0.396  56.637  0.00  0.00    -0.398 OA
ATOM     39  H10 CTT d   1      -9.447  -0.086  57.106  0.00  0.00     0.209 HD
ENDBRANCH  35  38
ENDBRANCH  26  35
ENDBRANCH  17  18
ENDBRANCH   6  17
BRANCH  10  40
ATOM     40  C6C CTT d   1      -8.386  -0.837  49.914  0.00  0.00     0.043 C 
ATOM     41  H18 CTT d   1      -8.831  -1.744  49.480  0.00  0.00     0.078 H 
ATOM     42  H19 CTT d   1      -7.709  -0.373  49.181  0.00  0.00     0.078 H 
BRANCH  40  43
ATOM     43  O6C CTT d   1      -9.417   0.084  50.270  0.00  0.00    -0.398 OA
ATOM     44  H20 CTT d   1      -9.996  -0.321  50.905  0.00  0.00     0.209 HD
ENDBRANCH  40  43
ENDBRANCH  10  40
ENDBRANCH   1   2
BRANCH   1  45
ATOM     45  C1D CTT d   1      -5.029  -2.384  48.868  0.00  0.00     0.159 C 
ATOM     46  C2D CTT d   1      -4.316  -1.556  47.802  0.00  0.00     0.110 C 
ATOM     47  C3D CTT d   1      -3.747  -2.425  46.684  0.00  0.00     0.092 C 
ATOM     48  H23 CTT d   1      -3.483  -1.013  48.273  0.00  0.00     0.094 H 
ATOM     49  C4D CTT d   1      -2.943  -3.639  47.163  0.00  0.00     0.096 C 
ATOM     50  H25 CTT d   1      -4.601  -2.803  46.103  0.00  0.00     0.091 H 
ATOM     51  C5D CTT d   1      -3.734  -4.293  48.304  0.00  0.00     0.089 C 
ATOM     52  H31 CTT d   1      -1.955  -3.331  47.536  0.00  0.00     0.091 H 
ATOM     53  O5D CTT d   1      -4.056  -3.323  49.317  0.00  0.00    -0.348 OA
ATOM     54  H27 CTT d   1      -4.670  -4.677  47.873  0.00  0.00     0.090 H 
ATOM     55  H22 CTT d   1      -5.878  -2.923  48.422  0.00  0.00     0.133 H 
BRANCH  46  56
ATOM     56  O2D CTT d   1      -5.255  -0.614  47.286  0.00  0.00    -0.388 OA
ATOM     57  H24 CTT d   1      -5.560  -0.055  47.990  0.00  0.00     0.210 HD
ENDBRANCH  46  56
BRANCH  47  58
ATOM     58  O3D CTT d   1      -2.914  -1.648  45.808  0.00  0.00    -0.390 OA
ATOM     59  H26 CTT d   1      -2.194  -1.276  46.304  0.00  0.00     0.210 HD
ENDBRANCH  47  58
BRANCH  49  60
ATOM     60  O4D CTT d   1      -2.780  -4.493  46.008  0.00  0.00    -0.348 OA
BRANCH  60  61
ATOM     61  C1E CTT d   1      -1.553  -5.241  45.710  0.00  0.00     0.159 C 
ATOM     62  C2E CTT d   1      -1.448  -5.545  44.173  0.00  0.00     0.110 C 
ATOM     63  C3E CTT d   1      -0.206  -5.014  43.470  0.00  0.00     0.092 C 
ATOM     64  H33 CTT d   1      -2.333  -5.088  43.706  0.00  0.00     0.094 H 
ATOM     65  C4E CTT d   1       0.097  -3.658  44.077  0.00  0.00     0.090 C 
ATOM     66  H35 CTT d   1       0.641  -5.687  43.670  0.00  0.00     0.091 H 
ATOM     67  C5E CTT d   1       0.579  -3.926  45.498  0.00  0.00     0.089 C 
ATOM     68  H37 CTT d   1      -0.817  -3.047  44.104  0.00  0.00     0.091 H 
ATOM     69  O5E CTT d   1      -0.405  -4.592  46.302  0.00  0.00    -0.348 OA
ATOM     70  H39 CTT d   1       1.469  -4.569  45.429  0.00  0.00     0.090 H 
ATOM     71  H32 CTT d   1      -1.641  -6.218  46.208  0.00  0.00     0.133 H 
BRANCH  62  72
ATOM     72  O2E CTT d   1      -1.429  -6.952  43.857  0.00  0.00    -0.388 OA
ATOM     73  H34 CTT d   1      -0.681  -7.360  44.277  0.00  0.00     0.210 HD
ENDBRANCH  62  72
BRANCH  63  74
ATOM     74  O3E CTT d   1      -0.416  -4.973  42.036  0.00  0.00    -0.390 OA
ATOM     75  H36 CTT d   1       0.366  -4.640  41.612  0.00  0.00     0.210 HD
ENDBRANCH  63  74
BRANCH  65  76
ATOM     76  O4E CTT d   1       1.089  -2.973  43.308  0.00  0.00    -0.390 OA
ATOM     77  H38 CTT d   1       1.266  -2.127  43.703  0.00  0.00     0.210 HD
ENDBRANCH  65  76
BRANCH  67  78
ATOM     78  C6E CTT d   1       0.959  -2.645  46.239  0.00  0.00     0.043 C 
ATOM     79  H40 CTT d   1       1.768  -2.137  45.694  0.00  0.00     0.078 H 
ATOM     80  H41 CTT d   1       1.304  -2.901  47.252  0.00  0.00     0.078 H 
BRANCH  78  81
ATOM     81  O6E CTT d   1      -0.177  -1.765  46.332  0.00  0.00    -0.398 OA
ATOM     82  H42 CTT d   1      -0.475  -1.541  45.458  0.00  0.00     0.209 HD
ENDBRANCH  78  81
ENDBRANCH  67  78
ENDBRANCH  60  61
ENDBRANCH  49  60
BRANCH  51  83
ATOM     83  C6D CTT d   1      -3.028  -5.453  48.990  0.00  0.00     0.043 C 
ATOM     84  H28 CTT d   1      -2.020  -5.145  49.304  0.00  0.00     0.078 H 
ATOM     85  H29 CTT d   1      -2.952  -6.306  48.300  0.00  0.00     0.078 H 
BRANCH  83  86
ATOM     86  O6D CTT d   1      -3.812  -5.822  50.145  0.00  0.00    -0.398 OA
ATOM     87  H30 CTT d   1      -3.392  -6.547  50.593  0.00  0.00     0.209 HD
ENDBRANCH  83  86
ENDBRANCH  51  83
ENDBRANCH   1  45
TORSDOF 24
