REMARK  24 active torsions:
REMARK  status: ('A' for Active; 'I' for Inactive)
REMARK    1  A    between atoms: O1B_1  and  C1B_2 
REMARK    2  A    between atoms: C2B_3  and  O2B_4 
REMARK    3  A    between atoms: C3B_5  and  O3B_6 
REMARK    4  A    between atoms: C5B_8  and  C6B_9 
REMARK    5  A    between atoms: C6B_9  and  O6B_10 
REMARK    6  A    between atoms: C4B_11  and  O4B_12 
REMARK    7  A    between atoms: O4B_12  and  C1C_13 
REMARK    8  A    between atoms: C2C_14  and  O2C_15 
REMARK    9  A    between atoms: C3C_16  and  O3C_17 
REMARK   10  A    between atoms: C5C_19  and  C6C_20 
REMARK   11  A    between atoms: C6C_20  and  O6C_21 
REMARK   12  A    between atoms: C4C_22  and  O4C_23 
REMARK   13  A    between atoms: O4C_23  and  C1D_24 
REMARK   14  A    between atoms: C2D_25  and  O2D_26 
REMARK   15  A    between atoms: C3D_27  and  O3D_28 
REMARK   16  A    between atoms: C5D_30  and  C6D_31 
REMARK   17  A    between atoms: C6D_31  and  O6D_32 
REMARK   18  A    between atoms: C4D_33  and  O4D_34 
REMARK   19  A    between atoms: O4D_34  and  C1E_35 
REMARK   20  A    between atoms: C2E_36  and  O2E_37 
REMARK   21  A    between atoms: C3E_38  and  O3E_39 
REMARK   22  A    between atoms: C4E_40  and  O4E_41 
REMARK   23  A    between atoms: C5E_43  and  C6E_44 
REMARK   24  A    between atoms: C6E_44  and  O6E_45 
ROOT
ATOM      1  O4C CTT d   1       1.583   0.633  42.929  0.00  0.00    -0.348 OA
ENDROOT
BRANCH   1   2
ATOM      2  C4C CTT d   1       2.174   0.486  44.238  0.00  0.00     0.096 C 
ATOM      3  C3C CTT d   1       2.465   1.855  44.862  0.00  0.00     0.092 C 
ATOM      4  C2C CTT d   1       3.047   1.707  46.267  0.00  0.00     0.110 C 
ATOM      5  H15 CTT d   1       1.524   2.423  44.914  0.00  0.00     0.091 H 
ATOM      6  C1C CTT d   1       2.259   0.769  47.174  0.00  0.00     0.159 C 
ATOM      7  H13 CTT d   1       4.054   1.280  46.155  0.00  0.00     0.094 H 
ATOM      8  O5C CTT d   1       1.916  -0.438  46.473  0.00  0.00    -0.348 OA
ATOM      9  H12 CTT d   1       1.341   1.257  47.533  0.00  0.00     0.133 H 
ATOM     10  C5C CTT d   1       1.261  -0.270  45.207  0.00  0.00     0.089 C 
ATOM     11  H17 CTT d   1       0.348   0.327  45.350  0.00  0.00     0.090 H 
ATOM     12  H21 CTT d   1       3.117  -0.070  44.129  0.00  0.00     0.091 H 
BRANCH   3  13
ATOM     13  O3C CTT d   1       3.422   2.591  44.085  0.00  0.00    -0.390 OA
ATOM     14  H16 CTT d   1       3.092   2.703  43.201  0.00  0.00     0.210 HD
ENDBRANCH   3  13
BRANCH   4  15
ATOM     15  O2C CTT d   1       3.180   2.992  46.890  0.00  0.00    -0.388 OA
ATOM     16  H14 CTT d   1       3.639   2.896  47.716  0.00  0.00     0.210 HD
ENDBRANCH   4  15
BRANCH   6  17
ATOM     17  O4B CTT d   1       3.144   0.495  48.269  0.00  0.00    -0.348 OA
BRANCH  17  18
ATOM     18  C4B CTT d   1       2.550   0.032  49.484  0.00  0.00     0.096 C 
ATOM     19  C3B CTT d   1       3.312  -1.196  49.984  0.00  0.00     0.092 C 
ATOM     20  C2B CTT d   1       2.614  -1.680  51.256  0.00  0.00     0.110 C 
ATOM     21  H5  CTT d   1       4.335  -0.885  50.243  0.00  0.00     0.091 H 
ATOM     22  C1B CTT d   1       2.708  -0.579  52.310  0.00  0.00     0.156 C 
ATOM     23  H3  CTT d   1       1.555  -1.877  51.034  0.00  0.00     0.094 H 
ATOM     24  O5B CTT d   1       2.041   0.591  51.807  0.00  0.00    -0.349 OA
ATOM     25  H2  CTT d   1       3.767  -0.342  52.491  0.00  0.00     0.133 H 
ATOM     26  C5B CTT d   1       2.596   1.099  50.581  0.00  0.00     0.089 C 
ATOM     27  H7  CTT d   1       3.651   1.361  50.749  0.00  0.00     0.090 H 
ATOM     28  H11 CTT d   1       1.502  -0.238  49.288  0.00  0.00     0.091 H 
BRANCH  19  29
ATOM     29  O3B CTT d   1       3.416  -2.242  48.999  0.00  0.00    -0.390 OA
ATOM     30  H6  CTT d   1       2.546  -2.543  48.766  0.00  0.00     0.210 HD
ENDBRANCH  19  29
BRANCH  20  31
ATOM     31  O2B CTT d   1       3.215  -2.885  51.732  0.00  0.00    -0.388 OA
ATOM     32  H4  CTT d   1       3.147  -3.557  51.064  0.00  0.00     0.210 HD
ENDBRANCH  20  31
BRANCH  22  33
ATOM     33  O1B CTT d   1       2.113  -1.009  53.545  0.00  0.00    -0.369 OA
ATOM     34  H1  CTT d   1       1.197  -1.215  53.399  0.00  0.00     0.212 HD
ENDBRANCH  22  33
BRANCH  26  35
ATOM     35  C6B CTT d   1       1.834   2.376  50.224  0.00  0.00     0.043 C 
ATOM     36  H8  CTT d   1       2.201   2.765  49.263  0.00  0.00     0.078 H 
ATOM     37  H9  CTT d   1       1.994   3.129  51.010  0.00  0.00     0.078 H 
BRANCH  35  38
ATOM     38  O6B CTT d   1       0.433   2.086  50.118  0.00  0.00    -0.398 OA
ATOM     39  H10 CTT d   1       0.117   1.750  50.949  0.00  0.00     0.209 HD
ENDBRANCH  35  38
ENDBRANCH  26  35
ENDBRANCH  17  18
ENDBRANCH   6  17
BRANCH  10  40
ATOM     40  C6C CTT d   1       0.859  -1.653  44.705  0.00  0.00     0.043 C 
ATOM     41  H18 CTT d   1       1.763  -2.238  44.480  0.00  0.00     0.078 H 
ATOM     42  H19 CTT d   1       0.253  -1.549  43.793  0.00  0.00     0.078 H 
BRANCH  40  43
ATOM     43  O6C CTT d   1       0.090  -2.330  45.716  0.00  0.00    -0.398 OA
ATOM     44  H20 CTT d   1       0.614  -2.420  46.504  0.00  0.00     0.209 HD
ENDBRANCH  40  43
ENDBRANCH  10  40
ENDBRANCH   1   2
BRANCH   1  45
ATOM     45  C1D CTT d   1       2.446   0.386  41.798  0.00  0.00     0.159 C 
ATOM     46  C2D CTT d   1       1.614   0.315  40.523  0.00  0.00     0.110 C 
ATOM     47  C3D CTT d   1       2.470   0.104  39.279  0.00  0.00     0.092 C 
ATOM     48  H23 CTT d   1       1.049   1.251  40.404  0.00  0.00     0.094 H 
ATOM     49  C4D CTT d   1       3.698   1.013  39.166  0.00  0.00     0.096 C 
ATOM     50  H25 CTT d   1       2.837  -0.932  39.320  0.00  0.00     0.091 H 
ATOM     51  C5D CTT d   1       4.365   1.058  40.544  0.00  0.00     0.089 C 
ATOM     52  H31 CTT d   1       3.403   2.032  38.876  0.00  0.00     0.091 H 
ATOM     53  O5D CTT d   1       3.415   1.408  41.564  0.00  0.00    -0.348 OA
ATOM     54  H27 CTT d   1       4.767   0.056  40.754  0.00  0.00     0.090 H 
ATOM     55  H22 CTT d   1       2.965  -0.570  41.963  0.00  0.00     0.133 H 
BRANCH  46  56
ATOM     56  O2D CTT d   1       0.711  -0.775  40.697  0.00  0.00    -0.388 OA
ATOM     57  H24 CTT d   1       0.162  -0.612  41.455  0.00  0.00     0.210 HD
ENDBRANCH  46  56
BRANCH  47  58
ATOM     58  O3D CTT d   1       1.677   0.249  38.087  0.00  0.00    -0.390 OA
ATOM     59  H26 CTT d   1       1.304   1.123  38.060  0.00  0.00     0.210 HD
ENDBRANCH  47  58
BRANCH  49  60
ATOM     60  O4D CTT d   1       4.521   0.439  38.126  0.00  0.00    -0.348 OA
BRANCH  60  61
ATOM     61  C1E CTT d   1       5.369   1.176  37.184  0.00  0.00     0.159 C 
ATOM     62  C2E CTT d   1       5.710   0.330  35.898  0.00  0.00     0.110 C 
ATOM     63  C3E CTT d   1       5.160   0.879  34.583  0.00  0.00     0.092 C 
ATOM     64  H33 CTT d   1       5.274  -0.666  36.064  0.00  0.00     0.094 H 
ATOM     65  C4E CTT d   1       3.801   1.478  34.909  0.00  0.00     0.090 C 
ATOM     66  H35 CTT d   1       5.824   1.674  34.212  0.00  0.00     0.091 H 
ATOM     67  C5E CTT d   1       4.087   2.741  35.709  0.00  0.00     0.089 C 
ATOM     68  H37 CTT d   1       3.200   0.775  35.504  0.00  0.00     0.091 H 
ATOM     69  O5E CTT d   1       4.797   2.472  36.928  0.00  0.00    -0.348 OA
ATOM     70  H39 CTT d   1       4.722   3.381  35.079  0.00  0.00     0.090 H 
ATOM     71  H32 CTT d   1       6.329   1.355  37.690  0.00  0.00     0.133 H 
BRANCH  62  72
ATOM     72  O2E CTT d   1       7.118   0.172  35.637  0.00  0.00    -0.388 OA
ATOM     73  H34 CTT d   1       7.515   1.027  35.517  0.00  0.00     0.210 HD
ENDBRANCH  62  72
BRANCH  63  74
ATOM     74  O3E CTT d   1       5.091  -0.162  33.569  0.00  0.00    -0.390 OA
ATOM     75  H36 CTT d   1       4.747   0.205  32.763  0.00  0.00     0.210 HD
ENDBRANCH  63  74
BRANCH  65  76
ATOM     76  O4E CTT d   1       3.113   1.792  33.700  0.00  0.00    -0.390 OA
ATOM     77  H38 CTT d   1       2.265   2.166  33.908  0.00  0.00     0.210 HD
ENDBRANCH  65  76
BRANCH  67  78
ATOM     78  C6E CTT d   1       2.835   3.536  36.069  0.00  0.00     0.043 C 
ATOM     79  H40 CTT d   1       2.347   3.868  35.141  0.00  0.00     0.078 H 
ATOM     80  H41 CTT d   1       3.131   4.414  36.662  0.00  0.00     0.078 H 
BRANCH  78  81
ATOM     81  O6E CTT d   1       1.895   2.751  36.835  0.00  0.00    -0.398 OA
ATOM     82  H42 CTT d   1       1.629   1.993  36.327  0.00  0.00     0.209 HD
ENDBRANCH  78  81
ENDBRANCH  67  78
ENDBRANCH  60  61
ENDBRANCH  49  60
BRANCH  51  83
ATOM     83  C6D CTT d   1       5.494   2.061  40.641  0.00  0.00     0.043 C 
ATOM     84  H28 CTT d   1       5.131   3.067  40.383  0.00  0.00     0.078 H 
ATOM     85  H29 CTT d   1       6.310   1.780  39.959  0.00  0.00     0.078 H 
BRANCH  83  86
ATOM     86  O6D CTT d   1       5.957   2.034  42.011  0.00  0.00    -0.398 OA
ATOM     87  H30 CTT d   1       6.670   2.653  42.115  0.00  0.00     0.209 HD
ENDBRANCH  83  86
ENDBRANCH  51  83
ENDBRANCH   1  45
TORSDOF 24
