REMARK  9 active torsions:
REMARK  status: ('A' for Active; 'I' for Inactive)
REMARK       I    between atoms: C23_2  and  N4_3 
REMARK    1  A    between atoms: C23_2  and  C25_22 
REMARK    2  A    between atoms: N4_3  and  C5_4 
REMARK    3  A    between atoms: C5_4  and  C13_5 
REMARK    4  A    between atoms: C5_4  and  C6_15 
REMARK       I    between atoms: C13_5  and  N15_6 
REMARK    5  A    between atoms: N15_6  and  C17_7 
REMARK    6  A    between atoms: N15_6  and  C16_13 
REMARK    7  A    between atoms: C6_15  and  C7_16 
REMARK    8  A    between atoms: C25_22  and  C1_23 
REMARK    9  A    between atoms: C2_31  and  C32_32 
ROOT
ATOM      1  C5  1B0 d   1      16.121  24.407  -1.852  0.00  0.00     0.093 C 
ATOM      2  H   1B0 d   1      17.089  24.898  -1.675  0.00  0.00     0.088 H 
ENDROOT
BRANCH   1   3
ATOM      3  N4  1B0 d   1      15.225  24.695  -0.783  0.00  0.00    -0.347 N 
ATOM      4  C23 1B0 d   1      15.304  25.902  -0.020  0.00  0.00     0.222 C 
ATOM      5  O24 1B0 d   1      16.149  26.725  -0.227  0.00  0.00    -0.273 OA
ATOM      6  H   1B0 d   1      14.514  24.029  -0.558  0.00  0.00     0.163 HD
BRANCH   4   7
ATOM      7  C25 1B0 d   1      14.247  26.154   1.097  0.00  0.00     0.036 C 
ATOM      8  H   1B0 d   1      13.547  25.306   1.114  0.00  0.00     0.054 H 
ATOM      9  H   1B0 d   1      13.699  27.077   0.858  0.00  0.00     0.054 H 
BRANCH   7  10
ATOM     10  C1  1B0 d   1      14.863  26.302   2.484  0.00  0.00    -0.015 A 
ATOM     11  C26 1B0 d   1      15.178  27.479   3.176  0.00  0.00    -0.001 A 
ATOM     12  C31 1B0 d   1      15.051  28.832   2.830  0.00  0.00    -0.070 A 
ATOM     13  C27 1B0 d   1      15.674  27.132   4.399  0.00  0.00     0.043 A 
ATOM     14  C30 1B0 d   1      15.436  29.809   3.726  0.00  0.00    -0.082 A 
ATOM     15  H   1B0 d   1      14.652  29.110   1.861  0.00  0.00     0.084 H 
ATOM     16  C29 1B0 d   1      15.945  29.455   4.975  0.00  0.00    -0.081 A 
ATOM     17  H   1B0 d   1      15.342  30.855   3.458  0.00  0.00     0.083 H 
ATOM     18  C28 1B0 d   1      16.079  28.125   5.306  0.00  0.00    -0.056 A 
ATOM     19  H   1B0 d   1      16.234  30.224   5.683  0.00  0.00     0.083 H 
ATOM     20  H   1B0 d   1      16.497  27.845   6.266  0.00  0.00     0.086 H 
ATOM     21  N3  1B0 d   1      15.682  25.735   4.474  0.00  0.00    -0.359 N 
ATOM     22  C2  1B0 d   1      15.177  25.236   3.276  0.00  0.00     0.013 A 
ATOM     23  H   1B0 d   1      16.005  25.174   5.275  0.00  0.00     0.166 HD
BRANCH  22  24
ATOM     24  C32 1B0 d   1      15.218  23.723   3.428  0.00  0.00    -0.037 C 
ATOM     25  H   1B0 d   1      14.831  23.252   2.513  0.00  0.00     0.035 H 
ATOM     26  H   1B0 d   1      14.597  23.424   4.285  0.00  0.00     0.035 H 
ATOM     27  H   1B0 d   1      16.256  23.399   3.596  0.00  0.00     0.035 H 
ENDBRANCH  22  24
ENDBRANCH   7  10
ENDBRANCH   4   7
ENDBRANCH   1   3
BRANCH   1  28
ATOM     28  C13 1B0 d   1      15.485  24.900  -3.135  0.00  0.00     0.247 C 
ATOM     29  N15 1B0 d   1      16.277  25.489  -4.212  0.00  0.00    -0.321 N 
ATOM     30  O14 1B0 d   1      14.308  24.778  -3.276  0.00  0.00    -0.271 OA
BRANCH  29  31
ATOM     31  C17 1B0 d   1      17.723  25.617  -4.002  0.00  0.00     0.036 A 
ATOM     32  C22 1B0 d   1      18.578  24.624  -4.466  0.00  0.00    -0.057 A 
ATOM     33  C21 1B0 d   1      19.956  24.733  -4.238  0.00  0.00    -0.081 A 
ATOM     34  H   1B0 d   1      18.180  23.770  -5.002  0.00  0.00     0.086 H 
ATOM     35  C20 1B0 d   1      20.456  25.831  -3.557  0.00  0.00    -0.083 A 
ATOM     36  H   1B0 d   1      20.629  23.961  -4.593  0.00  0.00     0.083 H 
ATOM     37  C19 1B0 d   1      19.598  26.823  -3.086  0.00  0.00    -0.081 A 
ATOM     38  H   1B0 d   1      21.523  25.919  -3.389  0.00  0.00     0.083 H 
ATOM     39  C18 1B0 d   1      18.227  26.721  -3.306  0.00  0.00    -0.057 A 
ATOM     40  H   1B0 d   1      19.998  27.675  -2.548  0.00  0.00     0.083 H 
ATOM     41  H   1B0 d   1      17.556  27.490  -2.941  0.00  0.00     0.086 H 
ENDBRANCH  29  31
BRANCH  29  42
ATOM     42  C16 1B0 d   1      15.615  25.929  -5.460  0.00  0.00    -0.011 C 
ATOM     43  H   1B0 d   1      14.534  25.735  -5.390  0.00  0.00     0.057 H 
ATOM     44  H   1B0 d   1      16.033  25.373  -6.312  0.00  0.00     0.057 H 
ATOM     45  H   1B0 d   1      15.786  27.006  -5.606  0.00  0.00     0.057 H 
ENDBRANCH  29  42
ENDBRANCH   1  28
BRANCH   1  46
ATOM     46  C6  1B0 d   1      16.314  22.898  -2.033  0.00  0.00    -0.014 C 
ATOM     47  H   1B0 d   1      16.763  22.687  -3.015  0.00  0.00     0.043 H 
ATOM     48  H   1B0 d   1      15.348  22.379  -1.952  0.00  0.00     0.043 H 
BRANCH  46  49
ATOM     49  C7  1B0 d   1      17.248  22.447  -0.920  0.00  0.00    -0.056 A 
ATOM     50  C12 1B0 d   1      18.627  22.477  -1.112  0.00  0.00    -0.077 A 
ATOM     51  C11 1B0 d   1      19.468  22.087  -0.071  0.00  0.00    -0.082 A 
ATOM     52  H   1B0 d   1      19.042  22.800  -2.060  0.00  0.00     0.084 H 
ATOM     53  C10 1B0 d   1      18.929  21.696   1.150  0.00  0.00    -0.083 A 
ATOM     54  H   1B0 d   1      20.543  22.088  -0.213  0.00  0.00     0.083 H 
ATOM     55  C9  1B0 d   1      17.547  21.687   1.334  0.00  0.00    -0.082 A 
ATOM     56  H   1B0 d   1      19.585  21.398   1.960  0.00  0.00     0.083 H 
ATOM     57  C8  1B0 d   1      16.716  22.073   0.300  0.00  0.00    -0.077 A 
ATOM     58  H   1B0 d   1      17.126  21.378   2.284  0.00  0.00     0.083 H 
ATOM     59  H   1B0 d   1      15.642  22.083   0.446  0.00  0.00     0.084 H 
ENDBRANCH  46  49
ENDBRANCH   1  46
TORSDOF 9
