REMARK  12 active torsions:
REMARK  status: ('A' for Active; 'I' for Inactive)
REMARK    1  A    between atoms: C1'_14  and  N9_10 
REMARK    2  A    between atoms: O5'_36  and  P_11 
REMARK    3  A    between atoms: O15_34  and  PB_12 
REMARK    4  A    between atoms: O2'_20  and  C10_13 
REMARK    5  A    between atoms: C12_17  and  O12_18 
REMARK    6  A    between atoms: C2'_19  and  O2'_20 
REMARK    7  A    between atoms: C13_23  and  O13_24 
REMARK    8  A    between atoms: C3'_25  and  O3'_26 
REMARK    9  A    between atoms: C14_29  and  C15_33 
REMARK   10  A    between atoms: C5'_35  and  C4'_31 
REMARK   11  A    between atoms: C15_33  and  O15_34 
REMARK   12  A    between atoms: C5'_35  and  O5'_36 
ROOT
ATOM      1  C1' V3L d   1      54.231  11.525  30.930  0.00  0.00     0.140 C 
ATOM      2  C2' V3L d   1      55.747  11.350  31.042  0.00  0.00     0.111 C 
ATOM      3  C3' V3L d   1      56.084  10.543  29.814  0.00  0.00     0.091 C 
ATOM      4  C4' V3L d   1      54.826   9.730  29.566  0.00  0.00     0.089 C 
ATOM      5  O4' V3L d   1      53.744  10.385  30.240  0.00  0.00    -0.353 OA
ATOM      6  H   V3L d   1      53.980  12.433  30.363  0.00  0.00     0.122 H 
ATOM      7  H   V3L d   1      55.996  10.771  31.944  0.00  0.00     0.094 H 
ATOM      8  H   V3L d   1      56.945   9.884  29.997  0.00  0.00     0.091 H 
ATOM      9  H   V3L d   1      54.626   9.700  28.485  0.00  0.00     0.090 H 
ENDROOT
BRANCH   2  10
ATOM     10  O2' V3L d   1      56.424  12.605  31.126  0.00  0.00    -0.346 OA
BRANCH  10  11
ATOM     11  C10 V3L d   1      57.484  12.720  32.067  0.00  0.00     0.159 C 
ATOM     12  C12 V3L d   1      57.984  14.164  32.149  0.00  0.00     0.110 C 
ATOM     13  C13 V3L d   1      58.822  14.289  30.878  0.00  0.00     0.092 C 
ATOM     14  H   V3L d   1      58.639  14.278  33.025  0.00  0.00     0.094 H 
ATOM     15  C14 V3L d   1      59.272  12.850  30.591  0.00  0.00     0.090 C 
ATOM     16  H   V3L d   1      59.685  14.947  31.055  0.00  0.00     0.091 H 
ATOM     17  O14 V3L d   1      58.628  12.023  31.566  0.00  0.00    -0.348 OA
ATOM     18  H   V3L d   1      58.935  12.560  29.585  0.00  0.00     0.090 H 
ATOM     19  H   V3L d   1      57.167  12.342  33.050  0.00  0.00     0.133 H 
BRANCH  12  20
ATOM     20  O12 V3L d   1      56.925  15.125  32.288  0.00  0.00    -0.388 OA
ATOM     21  H   V3L d   1      56.344  15.065  31.539  0.00  0.00     0.210 HD
ENDBRANCH  12  20
BRANCH  13  22
ATOM     22  O13 V3L d   1      58.074  14.778  29.746  0.00  0.00    -0.390 OA
ATOM     23  H   V3L d   1      58.646  14.834  28.990  0.00  0.00     0.210 HD
ENDBRANCH  13  22
BRANCH  15  24
ATOM     24  C15 V3L d   1      60.797  12.692  30.652  0.00  0.00     0.059 C 
ATOM     25  H   V3L d   1      61.255  13.261  29.829  0.00  0.00     0.079 H 
ATOM     26  H   V3L d   1      61.057  11.628  30.551  0.00  0.00     0.079 H 
BRANCH  24  27
ATOM     27  O15 V3L d   1      61.295  13.185  31.903  0.00  0.00    -0.280 OA
BRANCH  27  28
ATOM     28  PB  V3L d   1      62.485  12.439  32.696  0.00  0.00     0.422 P 
ATOM     29  O1B V3L d   1      61.950  11.068  33.057  0.00  0.00    -0.617 OA
ATOM     30  O2B V3L d   1      63.601  12.452  31.696  0.00  0.00    -0.617 OA
ATOM     31  O3B V3L d   1      62.738  13.352  33.868  0.00  0.00    -0.617 OA
ENDBRANCH  27  28
ENDBRANCH  24  27
ENDBRANCH  15  24
ENDBRANCH  10  11
ENDBRANCH   2  10
BRANCH   1  32
ATOM     32  N9  V3L d   1      53.721  11.647  32.307  0.00  0.00    -0.294 N 
ATOM     33  C4  V3L d   1      53.385  12.801  32.871  0.00  0.00     0.167 A 
ATOM     34  N3  V3L d   1      53.317  14.075  32.395  0.00  0.00    -0.222 NA
ATOM     35  C5  V3L d   1      53.031  12.513  34.173  0.00  0.00     0.149 A 
ATOM     36  C2  V3L d   1      52.904  15.080  33.184  0.00  0.00     0.091 A 
ATOM     37  N1  V3L d   1      52.529  14.871  34.463  0.00  0.00    -0.222 NA
ATOM     38  H   V3L d   1      52.871  16.086  32.782  0.00  0.00     0.146 H 
ATOM     39  C6  V3L d   1      52.587  13.629  35.007  0.00  0.00     0.155 A 
ATOM     40  N6  V3L d   1      52.221  13.393  36.272  0.00  0.00    -0.382 N 
ATOM     41  H   V3L d   1      52.277  12.438  36.655  0.00  0.00     0.157 HD
ATOM     42  H   V3L d   1      51.883  14.166  36.863  0.00  0.00     0.157 HD
ATOM     43  N7  V3L d   1      53.175  11.186  34.381  0.00  0.00    -0.236 NA
ATOM     44  C8  V3L d   1      53.624  10.658  33.224  0.00  0.00     0.071 A 
ATOM     45  H   V3L d   1      53.868   9.610  33.056  0.00  0.00     0.144 H 
ENDBRANCH   1  32
BRANCH   3  46
ATOM     46  O3' V3L d   1      56.374  11.414  28.714  0.00  0.00    -0.390 OA
ATOM     47  H   V3L d   1      57.114  11.967  28.936  0.00  0.00     0.210 HD
ENDBRANCH   3  46
BRANCH   4  48
ATOM     48  C5' V3L d   1      54.942   8.298  30.084  0.00  0.00     0.059 C 
ATOM     49  H   V3L d   1      55.706   7.766  29.498  0.00  0.00     0.079 H 
ATOM     50  H   V3L d   1      53.971   7.794  29.965  0.00  0.00     0.079 H 
BRANCH  48  51
ATOM     51  O5' V3L d   1      55.314   8.273  31.466  0.00  0.00    -0.280 OA
BRANCH  51  52
ATOM     52  P   V3L d   1      55.123   6.931  32.335  0.00  0.00     0.422 P 
ATOM     53  OP3 V3L d   1      55.539   7.287  33.728  0.00  0.00    -0.617 OA
ATOM     54  OP1 V3L d   1      53.655   6.642  32.215  0.00  0.00    -0.617 OA
ATOM     55  OP2 V3L d   1      56.024   5.927  31.670  0.00  0.00    -0.617 OA
ENDBRANCH  51  52
ENDBRANCH  48  51
ENDBRANCH   4  48
TORSDOF 12
