REMARK  1 active torsions:
REMARK  status: ('A' for Active; 'I' for Inactive)
REMARK    1  A    between atoms: C5_7  and  CM5_8 
ROOT
ATOM      1  N1  TDR d   1      26.944  45.823 -10.879  0.00  0.00    -0.210 NA
ATOM      2  C2  TDR d   1      27.145  44.874 -11.815  0.00  0.00     0.348 A 
ATOM      3  O2  TDR d   1      28.223  44.754 -12.442  0.00  0.00    -0.245 OA
ATOM      4  N3  TDR d   1      26.214  43.955 -12.100  0.00  0.00    -0.277 N 
ATOM      5  C4  TDR d   1      25.017  43.948 -11.489  0.00  0.00     0.234 A 
ATOM      6  O4  TDR d   1      24.222  43.067 -11.877  0.00  0.00    -0.272 OA
ATOM      7  C5  TDR d   1      24.738  44.988 -10.457  0.00  0.00     0.053 A 
ATOM      8  C6  TDR d   1      25.765  45.918 -10.204  0.00  0.00    -0.000 A 
ATOM      9  H   TDR d   1      26.415  43.255 -12.786  0.00  0.00     0.173 HD
ATOM     10  H   TDR d   1      24.312  45.647 -11.228  0.00  0.00     0.062 H 
ATOM     11  H   TDR d   1      25.617  46.710  -9.471  0.00  0.00     0.109 H 
ENDROOT
BRANCH   7  12
ATOM     12  CM5 TDR d   1      23.432  45.058  -9.695  0.00  0.00    -0.060 C 
ATOM     13  H   TDR d   1      23.462  45.904  -8.993  0.00  0.00     0.029 H 
ATOM     14  H   TDR d   1      23.284  44.123  -9.135  0.00  0.00     0.029 H 
ATOM     15  H   TDR d   1      22.602  45.198 -10.403  0.00  0.00     0.029 H 
ENDBRANCH   7  12
TORSDOF 1
