REMARK  4 active torsions:
REMARK  status: ('A' for Active; 'I' for Inactive)
REMARK    1  A    between atoms: CAN_6  and  CAA_7 
REMARK    2  A    between atoms: CAO_8  and  CAB_9 
REMARK    3  A    between atoms: CAP_17  and  CAK_18 
REMARK    4  A    between atoms: CAK_18  and  CAM_19 
ROOT
ATOM      1  OAD 1YE d   1     -16.913  52.085  -3.644  0.00  0.00    -0.286 OA
ATOM      2  CAQ 1YE d   1     -18.087  52.173  -3.207  0.00  0.00     0.198 A 
ATOM      3  CAS 1YE d   1     -19.156  52.069  -4.081  0.00  0.00     0.049 A 
ATOM      4  CAJ 1YE d   1     -18.968  51.880  -5.449  0.00  0.00    -0.066 A 
ATOM      5  CAH 1YE d   1     -20.089  51.757  -6.304  0.00  0.00    -0.076 A 
ATOM      6  CAN 1YE d   1     -21.395  51.829  -5.799  0.00  0.00    -0.053 A 
ATOM      7  CAO 1YE d   1     -21.592  52.036  -4.427  0.00  0.00    -0.021 A 
ATOM      8  CAT 1YE d   1     -20.465  52.177  -3.620  0.00  0.00     0.096 A 
ATOM      9  OAL 1YE d   1     -20.706  52.339  -2.325  0.00  0.00    -0.308 OA
ATOM     10  CAU 1YE d   1     -19.692  52.388  -1.437  0.00  0.00     0.097 A 
ATOM     11  CAR 1YE d   1     -18.353  52.319  -1.857  0.00  0.00     0.049 A 
ATOM     12  CAI 1YE d   1     -17.334  52.372  -0.879  0.00  0.00    -0.066 A 
ATOM     13  CAF 1YE d   1     -17.712  52.519   0.460  0.00  0.00    -0.081 A 
ATOM     14  CAG 1YE d   1     -19.054  52.618   0.841  0.00  0.00    -0.074 A 
ATOM     15  CAP 1YE d   1     -20.066  52.548  -0.115  0.00  0.00    -0.013 A 
ATOM     16  H   1YE d   1     -17.965  51.827  -5.857  0.00  0.00     0.085 H 
ATOM     17  H   1YE d   1     -19.936  51.605  -7.366  0.00  0.00     0.084 H 
ATOM     18  H   1YE d   1     -16.289  52.301  -1.159  0.00  0.00     0.085 H 
ATOM     19  H   1YE d   1     -16.943  52.557   1.223  0.00  0.00     0.083 H 
ATOM     20  H   1YE d   1     -19.309  52.750   1.886  0.00  0.00     0.084 H 
ENDROOT
BRANCH  15  21
ATOM     21  CAK 1YE d   1     -21.433  52.639   0.231  0.00  0.00     0.042 C 
ATOM     22  H   1YE d   1     -21.846  53.508  -0.302  0.00  0.00     0.056 H 
ATOM     23  H   1YE d   1     -21.483  52.816   1.315  0.00  0.00     0.056 H 
BRANCH  21  24
ATOM     24  CAM 1YE d   1     -22.368  51.413  -0.084  0.00  0.00     0.177 C 
ATOM     25  OAE 1YE d   1     -23.600  51.605   0.140  0.00  0.00    -0.648 OA
ATOM     26  OAC 1YE d   1     -21.857  50.326  -0.472  0.00  0.00    -0.648 OA
ENDBRANCH  21  24
ENDBRANCH  15  21
BRANCH   7  27
ATOM     27  CAB 1YE d   1     -22.866  52.116  -3.794  0.00  0.00    -0.048 C 
ATOM     28  H   1YE d   1     -23.658  51.988  -4.547  0.00  0.00     0.033 H 
ATOM     29  H   1YE d   1     -22.974  53.098  -3.311  0.00  0.00     0.033 H 
ATOM     30  H   1YE d   1     -22.949  51.323  -3.036  0.00  0.00     0.033 H 
ENDBRANCH   7  27
BRANCH   6  31
ATOM     31  CAA 1YE d   1     -22.520  51.711  -6.653  0.00  0.00    -0.051 C 
ATOM     32  H   1YE d   1     -22.180  51.553  -7.687  0.00  0.00     0.033 H 
ATOM     33  H   1YE d   1     -23.119  52.632  -6.600  0.00  0.00     0.033 H 
ATOM     34  H   1YE d   1     -23.134  50.856  -6.334  0.00  0.00     0.033 H 
ENDBRANCH   6  31
TORSDOF 4
