REMARK  5 active torsions:
REMARK  status: ('A' for Active; 'I' for Inactive)
REMARK    1  A    between atoms: S1_16  and  C1_1 
REMARK    2  A    between atoms: C2_2  and  C7_13 
REMARK    3  A    between atoms: C8_6  and  S1_16 
REMARK    4  A    between atoms: C9_18  and  C8_6 
REMARK    5  A    between atoms: S1_16  and  O1_17 
ROOT
ATOM      1  S1  3G1 d   1       7.373  -7.355   5.212  0.00  0.00    -0.052 S 
ENDROOT
BRANCH   1   2
ATOM      2  C1  3G1 d   1       6.469  -8.596   6.171  0.00  0.00     0.033 A 
ATOM      3  C2  3G1 d   1       5.416  -8.295   7.043  0.00  0.00     0.058 A 
ATOM      4  C3  3G1 d   1       4.778  -9.349   7.709  0.00  0.00    -0.065 A 
ATOM      5  C4  3G1 d   1       5.172 -10.656   7.502  0.00  0.00    -0.082 A 
ATOM      6  H   3G1 d   1       3.966  -9.136   8.395  0.00  0.00     0.085 H 
ATOM      7  C5  3G1 d   1       6.201 -10.938   6.643  0.00  0.00    -0.082 A 
ATOM      8  H   3G1 d   1       4.665 -11.462   8.021  0.00  0.00     0.083 H 
ATOM      9  C6  3G1 d   1       6.857  -9.915   5.968  0.00  0.00    -0.064 A 
ATOM     10  H   3G1 d   1       6.506 -11.967   6.488  0.00  0.00     0.083 H 
ATOM     11  H   3G1 d   1       7.668 -10.145   5.286  0.00  0.00     0.085 H 
BRANCH   3  12
ATOM     12  C7  3G1 d   1       5.034  -6.876   7.283  0.00  0.00     0.210 C 
ATOM     13  O2  3G1 d   1       5.705  -6.010   6.682  0.00  0.00    -0.644 OA
ATOM     14  O3  3G1 d   1       4.083  -6.673   8.068  0.00  0.00    -0.644 OA
ENDBRANCH   3  12
ENDBRANCH   1   2
BRANCH   1  15
ATOM     15  C8  3G1 d   1       6.225  -7.239   3.766  0.00  0.00     0.019 C 
ATOM     16  H   3G1 d   1       5.198  -7.371   4.136  0.00  0.00     0.058 H 
ATOM     17  H   3G1 d   1       6.472  -8.054   3.070  0.00  0.00     0.058 H 
BRANCH  15  18
ATOM     18  C9  3G1 d   1       6.280  -5.956   3.010  0.00  0.00    -0.047 A 
ATOM     19  C10 3G1 d   1       5.711  -4.796   3.523  0.00  0.00    -0.076 A 
ATOM     20  C11 3G1 d   1       5.702  -3.631   2.783  0.00  0.00    -0.082 A 
ATOM     21  H   3G1 d   1       5.270  -4.807   4.513  0.00  0.00     0.084 H 
ATOM     22  C12 3G1 d   1       6.262  -3.601   1.521  0.00  0.00    -0.083 A 
ATOM     23  H   3G1 d   1       5.253  -2.735   3.195  0.00  0.00     0.083 H 
ATOM     24  C13 3G1 d   1       6.836  -4.747   1.008  0.00  0.00    -0.082 A 
ATOM     25  H   3G1 d   1       6.251  -2.687   0.939  0.00  0.00     0.083 H 
ATOM     26  C14 3G1 d   1       6.849  -5.917   1.742  0.00  0.00    -0.076 A 
ATOM     27  H   3G1 d   1       7.281  -4.728   0.020  0.00  0.00     0.083 H 
ATOM     28  H   3G1 d   1       7.305  -6.809   1.328  0.00  0.00     0.084 H 
ENDBRANCH  15  18
ENDBRANCH   1  15
BRANCH   1  29
ATOM     29  O1  3G1 d   1       8.628  -8.039   4.786  0.00  0.00    -0.336 OA
ATOM     30  H   3G1 d   1       9.221  -8.101   5.526  0.00  0.00     0.227 HD
ENDBRANCH   1  29
TORSDOF 5
