REMARK  8 active torsions:
REMARK  status: ('A' for Active; 'I' for Inactive)
REMARK       I    between atoms: N1_1  and  C12_25 
REMARK    1  A    between atoms: C2_2  and  C1_32 
REMARK       I    between atoms: C18_11  and  N3_3 
REMARK    2  A    between atoms: N3_3  and  C19_19 
REMARK    3  A    between atoms: N_30  and  C5_5 
REMARK    4  A    between atoms: C16_9  and  C18_11 
REMARK    5  A    between atoms: C22_16  and  O3_17 
REMARK    6  A    between atoms: C13_24  and  N2_23 
REMARK    7  A    between atoms: C12_25  and  C13_24 
REMARK    8  A    between atoms: C1_32  and  C_34 
ROOT
ATOM      1  C13 3G7 d   1      49.130  19.566   9.715  0.00  0.00     0.156 C 
ATOM      2  H   3G7 d   1      50.106  19.616  10.220  0.00  0.00     0.090 H 
ATOM      3  H   3G7 d   1      48.347  19.939  10.392  0.00  0.00     0.090 H 
ENDROOT
BRANCH   1   4
ATOM      4  N2  3G7 d   1      48.834  18.148   9.343  0.00  0.00    -0.062 N 
ATOM      5  C17 3G7 d   1      49.155  17.266  10.524  0.00  0.00     0.095 C 
ATOM      6  C16 3G7 d   1      48.563  15.886  10.189  0.00  0.00     0.049 C 
ATOM      7  H   3G7 d   1      50.244  17.192  10.662  0.00  0.00     0.077 H 
ATOM      8  H   3G7 d   1      48.695  17.668  11.439  0.00  0.00     0.077 H 
ATOM      9  C15 3G7 d   1      47.423  16.277   9.210  0.00  0.00    -0.029 C 
ATOM     10  H   3G7 d   1      48.178  15.392  11.093  0.00  0.00     0.057 H 
ATOM     11  C14 3G7 d   1      47.421  17.786   9.061  0.00  0.00     0.085 C 
ATOM     12  H   3G7 d   1      46.456  15.942   9.612  0.00  0.00     0.036 H 
ATOM     13  H   3G7 d   1      47.596  15.807   8.231  0.00  0.00     0.036 H 
ATOM     14  H   3G7 d   1      46.740  18.255   9.787  0.00  0.00     0.076 H 
ATOM     15  H   3G7 d   1      47.132  18.083   8.042  0.00  0.00     0.076 H 
ATOM     16  H   3G7 d   1      49.403  17.910   8.546  0.00  0.00     0.280 HD
BRANCH   6  17
ATOM     17  C18 3G7 d   1      49.530  14.968   9.488  0.00  0.00     0.228 C 
ATOM     18  N3  3G7 d   1      49.029  13.750   9.204  0.00  0.00    -0.327 N 
ATOM     19  H   3G7 d   1      48.064  13.618   9.432  0.00  0.00     0.169 HD
ATOM     20  O2  3G7 d   1      50.676  15.322   9.212  0.00  0.00    -0.273 OA
BRANCH  18  21
ATOM     21  C19 3G7 d   1      49.677  12.629   8.627  0.00  0.00     0.036 A 
ATOM     22  C20 3G7 d   1      50.924  12.676   8.016  0.00  0.00    -0.054 A 
ATOM     23  C21 3G7 d   1      51.495  11.521   7.502  0.00  0.00    -0.047 A 
ATOM     24  H   3G7 d   1      51.453  13.619   7.941  0.00  0.00     0.087 H 
ATOM     25  C22 3G7 d   1      50.834  10.299   7.606  0.00  0.00     0.087 A 
ATOM     26  H   3G7 d   1      52.463  11.570   7.016  0.00  0.00     0.087 H 
ATOM     27  C23 3G7 d   1      49.585  10.268   8.214  0.00  0.00     0.069 A 
ATOM     28 CL   3G7 d   1      48.719   8.767   8.298  0.00  0.00    -0.081 Cl
ATOM     29  C24 3G7 d   1      49.000  11.413   8.718  0.00  0.00    -0.033 A 
ATOM     30  H   3G7 d   1      48.021  11.367   9.181  0.00  0.00     0.089 H 
BRANCH  25  31
ATOM     31  O3  3G7 d   1      51.366   9.136   7.156  0.00  0.00    -0.359 OA
ATOM     32  H   3G7 d   1      52.216   9.307   6.767  0.00  0.00     0.217 HD
ENDBRANCH  25  31
ENDBRANCH  18  21
ENDBRANCH   6  17
ENDBRANCH   1   4
BRANCH   1  33
ATOM     33  C12 3G7 d   1      49.165  20.425   8.457  0.00  0.00     0.245 C 
ATOM     34  N1  3G7 d   1      49.216  21.758   8.640  0.00  0.00    -0.348 N 
ATOM     35  C10 3G7 d   1      49.098  22.711   7.545  0.00  0.00     0.013 C 
ATOM     36  C9  3G7 d   1      49.034  22.506   9.880  0.00  0.00     0.013 C 
ATOM     37  C11 3G7 d   1      47.683  23.208   7.487  0.00  0.00     0.010 C 
ATOM     38  H   3G7 d   1      49.356  22.218   6.596  0.00  0.00     0.066 H 
ATOM     39  H   3G7 d   1      49.780  23.557   7.716  0.00  0.00     0.066 H 
ATOM     40  N   3G7 d   1      47.233  23.775   8.772  0.00  0.00    -0.378 N 
ATOM     41  H   3G7 d   1      47.024  22.368   7.221  0.00  0.00     0.066 H 
ATOM     42  H   3G7 d   1      47.614  23.987   6.714  0.00  0.00     0.066 H 
ATOM     43  C8  3G7 d   1      47.599  22.977   9.955  0.00  0.00     0.010 C 
ATOM     44  H   3G7 d   1      47.471  23.594  10.857  0.00  0.00     0.066 H 
ATOM     45  H   3G7 d   1      46.937  22.100  10.014  0.00  0.00     0.066 H 
ATOM     46  H   3G7 d   1      49.710  23.374   9.892  0.00  0.00     0.066 H 
ATOM     47  H   3G7 d   1      49.256  21.857  10.740  0.00  0.00     0.066 H 
ATOM     48  O1  3G7 d   1      49.096  19.921   7.339  0.00  0.00    -0.272 OA
BRANCH  40  49
ATOM     49  C5  3G7 d   1      45.908  24.338   8.708  0.00  0.00     0.030 A 
ATOM     50  C4  3G7 d   1      45.068  24.365   9.829  0.00  0.00    -0.057 A 
ATOM     51  C3  3G7 d   1      43.755  24.792   9.719  0.00  0.00    -0.067 A 
ATOM     52  H   3G7 d   1      45.450  24.048  10.793  0.00  0.00     0.086 H 
ATOM     53  C2  3G7 d   1      43.227  25.188   8.488  0.00  0.00     0.009 A 
ATOM     54  H   3G7 d   1      43.127  24.819  10.602  0.00  0.00     0.085 H 
ATOM     55  C7  3G7 d   1      44.069  25.210   7.384  0.00  0.00    -0.067 A 
ATOM     56  C6  3G7 d   1      45.391  24.817   7.493  0.00  0.00    -0.057 A 
ATOM     57  H   3G7 d   1      43.686  25.539   6.425  0.00  0.00     0.085 H 
ATOM     58  H   3G7 d   1      46.039  24.880   6.626  0.00  0.00     0.086 H 
BRANCH  53  59
ATOM     59  C1  3G7 d   1      41.785  25.549   8.346  0.00  0.00     0.155 C 
ATOM     60  O   3G7 d   1      41.316  25.818   7.238  0.00  0.00    -0.293 OA
BRANCH  59  61
ATOM     61  C   3G7 d   1      40.906  25.547   9.551  0.00  0.00    -0.017 C 
ATOM     62  H   3G7 d   1      39.885  25.835   9.261  0.00  0.00     0.038 H 
ATOM     63  H   3G7 d   1      41.294  26.265  10.289  0.00  0.00     0.038 H 
ATOM     64  H   3G7 d   1      40.891  24.540   9.992  0.00  0.00     0.038 H 
ENDBRANCH  59  61
ENDBRANCH  53  59
ENDBRANCH  40  49
ENDBRANCH   1  33
TORSDOF 8
