REMARK  7 active torsions:
REMARK  status: ('A' for Active; 'I' for Inactive)
REMARK    1  A    between atoms: C05_5  and  C07_7 
REMARK    2  A    between atoms: C07_7  and  C08_8 
REMARK    3  A    between atoms: C07_7  and  N10_10 
REMARK    4  A    between atoms: C08_8  and  C09_9 
REMARK       I    between atoms: N10_10  and  C11_11 
REMARK    5  A    between atoms: C11_11  and  C12_12 
REMARK    6  A    between atoms: N19_19  and  S22_22 
REMARK    7  A    between atoms: S22_22  and  C25_25 
ROOT
ATOM      1  C12 3E7 d   1      18.727  28.161  15.509  0.00  0.00     0.033 A 
ATOM      2  C14 3E7 d   1      19.556  28.172  14.376  0.00  0.00    -0.066 A 
ATOM      3  C15 3E7 d   1      18.959  28.157  13.049  0.00  0.00    -0.054 A 
ATOM      4  C16 3E7 d   1      17.579  28.145  12.899  0.00  0.00     0.060 A 
ATOM      5  C17 3E7 d   1      16.754  28.144  14.047  0.00  0.00    -0.006 A 
ATOM      6  C18 3E7 d   1      17.335  28.164  15.339  0.00  0.00    -0.056 A 
ATOM      7  N19 3E7 d   1      16.758  28.108  11.775  0.00  0.00    -0.246 N 
ATOM      8  C20 3E7 d   1      15.461  28.107  12.158  0.00  0.00    -0.002 A 
ATOM      9  C21 3E7 d   1      15.400  28.122  13.583  0.00  0.00    -0.055 A 
ATOM     10  H13 3E7 d   1      20.634  28.192  14.489  0.00  0.00     0.085 H 
ATOM     11  H14 3E7 d   1      19.596  28.155  12.172  0.00  0.00     0.087 H 
ATOM     12  H15 3E7 d   1      16.692  28.182  16.212  0.00  0.00     0.086 H 
ATOM     13  H16 3E7 d   1      14.603  28.096  11.488  0.00  0.00     0.113 H 
ATOM     14  H17 3E7 d   1      14.501  28.118  14.197  0.00  0.00     0.087 H 
ENDROOT
BRANCH   1  15
ATOM     15  C11 3E7 d   1      19.221  28.240  16.949  0.00  0.00     0.252 C 
ATOM     16  N10 3E7 d   1      18.437  29.239  17.691  0.00  0.00    -0.348 N 
ATOM     17  H12 3E7 d   1      17.722  29.696  17.162  0.00  0.00     0.163 HD
ATOM     18  O13 3E7 d   1      20.170  27.608  17.437  0.00  0.00    -0.268 OA
BRANCH  16  19
ATOM     19  C07 3E7 d   1      18.549  29.675  19.120  0.00  0.00     0.037 C 
ATOM     20  H6  3E7 d   1      17.604  30.199  19.327  0.00  0.00     0.080 H 
BRANCH  19  21
ATOM     21  C05 3E7 d   1      19.592  30.770  19.217  0.00  0.00    -0.035 A 
ATOM     22  C04 3E7 d   1      19.869  31.512  18.085  0.00  0.00    -0.075 A 
ATOM     23  C03 3E7 d   1      20.787  32.537  18.128  0.00  0.00    -0.082 A 
ATOM     24  H4  3E7 d   1      19.359  31.285  17.155  0.00  0.00     0.084 H 
ATOM     25  C02 3E7 d   1      21.423  32.819  19.325  0.00  0.00    -0.083 A 
ATOM     26  H3  3E7 d   1      21.009  33.115  17.238  0.00  0.00     0.083 H 
ATOM     27  C01 3E7 d   1      21.141  32.080  20.470  0.00  0.00    -0.082 A 
ATOM     28  H2  3E7 d   1      22.148  33.624  19.371  0.00  0.00     0.083 H 
ATOM     29  C06 3E7 d   1      20.223  31.063  20.424  0.00  0.00    -0.075 A 
ATOM     30  H1  3E7 d   1      21.648  32.309  21.400  0.00  0.00     0.083 H 
ATOM     31  H5  3E7 d   1      19.991  30.493  21.317  0.00  0.00     0.084 H 
ENDBRANCH  19  21
BRANCH  19  32
ATOM     32  C08 3E7 d   1      18.527  28.573  20.109  0.00  0.00    -0.045 C 
ATOM     33  H7  3E7 d   1      19.161  28.856  20.962  0.00  0.00     0.035 H 
ATOM     34  H8  3E7 d   1      18.934  27.668  19.634  0.00  0.00     0.035 H 
BRANCH  32  35
ATOM     35  C09 3E7 d   1      17.193  28.275  20.603  0.00  0.00    -0.074 C 
ATOM     36  H9  3E7 d   1      17.247  27.451  21.330  0.00  0.00     0.027 H 
ATOM     37  H10 3E7 d   1      16.548  27.980  19.762  0.00  0.00     0.027 H 
ATOM     38  H11 3E7 d   1      16.775  29.168  21.091  0.00  0.00     0.027 H 
ENDBRANCH  32  35
ENDBRANCH  19  32
ENDBRANCH  16  19
ENDBRANCH   1  15
BRANCH   7  39
ATOM     39  S22 3E7 d   1      17.238  28.130  10.195  0.00  0.00     0.270 S 
ATOM     40  O23 3E7 d   1      16.041  27.922   9.413  0.00  0.00    -0.200 OA
ATOM     41  O24 3E7 d   1      18.276  27.118   9.881  0.00  0.00    -0.200 OA
BRANCH  39  42
ATOM     42  C25 3E7 d   1      17.947  29.806   9.991  0.00  0.00     0.091 A 
ATOM     43  C26 3E7 d   1      19.377  29.866   9.942  0.00  0.00    -0.059 A 
ATOM     44  C27 3E7 d   1      20.039  31.128   9.777  0.00  0.00    -0.081 A 
ATOM     45  H18 3E7 d   1      19.960  28.956  10.030  0.00  0.00     0.085 H 
ATOM     46  C28 3E7 d   1      19.280  32.297   9.683  0.00  0.00    -0.072 A 
ATOM     47  H19 3E7 d   1      21.121  31.174   9.726  0.00  0.00     0.083 H 
ATOM     48  C29 3E7 d   1      17.807  32.251   9.742  0.00  0.00    -0.024 A 
ATOM     49  H20 3E7 d   1      19.781  33.251   9.565  0.00  0.00     0.084 H 
ATOM     50  C30 3E7 d   1      17.151  31.023   9.895  0.00  0.00    -0.003 A 
ATOM     51  C31 3E7 d   1      17.084  33.463   9.638  0.00  0.00    -0.072 A 
ATOM     52  C34 3E7 d   1      15.715  31.033   9.951  0.00  0.00    -0.071 A 
ATOM     53  C33 3E7 d   1      15.026  32.199   9.852  0.00  0.00    -0.082 A 
ATOM     54  H24 3E7 d   1      15.176  30.100  10.073  0.00  0.00     0.084 H 
ATOM     55  C32 3E7 d   1      15.722  33.456   9.690  0.00  0.00    -0.082 A 
ATOM     56  H23 3E7 d   1      13.943  32.187   9.895  0.00  0.00     0.083 H 
ATOM     57  H22 3E7 d   1      15.166  34.383   9.611  0.00  0.00     0.083 H 
ATOM     58  H21 3E7 d   1      17.615  34.400   9.517  0.00  0.00     0.084 H 
ENDBRANCH  39  42
ENDBRANCH   7  39
TORSDOF 7
