REMARK  5 active torsions:
REMARK  status: ('A' for Active; 'I' for Inactive)
REMARK    1  A    between atoms: N1_1  and  C1'_9 
REMARK    2  A    between atoms: C2'_10  and  O2'_13 
REMARK    3  A    between atoms: C3'_11  and  O3'_14 
REMARK    4  A    between atoms: C4'_12  and  C5'_16 
REMARK    5  A    between atoms: C5'_16  and  O5'_17 
ROOT
ATOM      1  C1' URI d   1     -19.312  58.673 -34.499  0.00  0.00     0.141 C 
ATOM      2  C2' URI d   1     -19.816  58.051 -35.800  0.00  0.00     0.105 C 
ATOM      3  C3' URI d   1     -21.011  57.227 -35.329  0.00  0.00     0.091 C 
ATOM      4  C4' URI d   1     -20.700  56.912 -33.866  0.00  0.00     0.088 C 
ATOM      5  O4' URI d   1     -19.589  57.740 -33.470  0.00  0.00    -0.353 OA
ATOM      6  H4  URI d   1     -19.861  59.608 -34.316  0.00  0.00     0.123 H 
ATOM      7  H5  URI d   1     -19.052  57.414 -36.269  0.00  0.00     0.093 H 
ATOM      8  H6  URI d   1     -21.092  56.297 -35.911  0.00  0.00     0.091 H 
ATOM      9  H7  URI d   1     -21.581  57.204 -33.276  0.00  0.00     0.090 H 
ENDROOT
BRANCH   1  10
ATOM     10  N1  URI d   1     -17.870  58.970 -34.489  0.00  0.00    -0.280 N 
ATOM     11  C2  URI d   1     -16.967  57.953 -34.759  0.00  0.00     0.331 A 
ATOM     12  N3  URI d   1     -15.651  58.329 -34.701  0.00  0.00    -0.275 N 
ATOM     13  O2  URI d   1     -17.303  56.825 -35.090  0.00  0.00    -0.246 OA
ATOM     14  C4  URI d   1     -15.147  59.552 -34.316  0.00  0.00     0.250 A 
ATOM     15  H1  URI d   1     -14.980  57.637 -34.968  0.00  0.00     0.173 HD
ATOM     16  C5  URI d   1     -16.137  60.515 -33.952  0.00  0.00    -0.002 A 
ATOM     17  O4  URI d   1     -13.926  59.718 -34.278  0.00  0.00    -0.268 OA
ATOM     18  C6  URI d   1     -17.435  60.201 -34.060  0.00  0.00    -0.008 A 
ATOM     19  H2  URI d   1     -15.839  61.498 -33.589  0.00  0.00     0.094 H 
ATOM     20  H3  URI d   1     -18.177  60.953 -33.797  0.00  0.00     0.112 H 
ENDBRANCH   1  10
BRANCH   2  21
ATOM     21  O2' URI d   1     -20.204  59.068 -36.694  0.00  0.00    -0.388 OA
ATOM     22  H8  URI d   1     -20.818  59.650 -36.262  0.00  0.00     0.210 HD
ENDBRANCH   2  21
BRANCH   3  23
ATOM     23  O3' URI d   1     -22.231  57.972 -35.464  0.00  0.00    -0.390 OA
ATOM     24  H9  URI d   1     -22.154  58.792 -34.991  0.00  0.00     0.210 HD
ENDBRANCH   3  23
BRANCH   4  25
ATOM     25  C5' URI d   1     -20.412  55.464 -33.533  0.00  0.00     0.043 C 
ATOM     26  H10 URI d   1     -21.305  54.859 -33.750  0.00  0.00     0.078 H 
ATOM     27  H11 URI d   1     -20.164  55.382 -32.465  0.00  0.00     0.078 H 
BRANCH  25  28
ATOM     28  O5' URI d   1     -19.325  54.980 -34.301  0.00  0.00    -0.398 OA
ATOM     29  H12 URI d   1     -18.551  55.498 -34.114  0.00  0.00     0.209 HD
ENDBRANCH  25  28
ENDBRANCH   4  25
TORSDOF 5
