REMARK  7 active torsions:
REMARK  status: ('A' for Active; 'I' for Inactive)
REMARK    1  A    between atoms: O2'_16  and  P1_1 
REMARK    2  A    between atoms: O5'_9  and  P2_5 
REMARK    3  A    between atoms: C5'_10  and  O5'_9 
REMARK    4  A    between atoms: C4'_11  and  C5'_10 
REMARK    5  A    between atoms: C3'_13  and  O3'_14 
REMARK    6  A    between atoms: C2'_15  and  O2'_16 
REMARK    7  A    between atoms: C1'_17  and  N9_18 
ROOT
ATOM      1  C4' A2P d   1     -11.584  -3.523   5.892  0.00  0.00     0.089 C 
ATOM      2  O4' A2P d   1     -12.223  -2.256   5.901  0.00  0.00    -0.353 OA
ATOM      3  C3' A2P d   1     -12.682  -4.540   6.140  0.00  0.00     0.092 C 
ATOM      4  C2' A2P d   1     -13.922  -3.814   5.695  0.00  0.00     0.121 C 
ATOM      5  C1' A2P d   1     -13.593  -2.424   6.200  0.00  0.00     0.140 C 
ATOM      6  H   A2P d   1     -10.826  -3.581   6.687  0.00  0.00     0.090 H 
ATOM      7  H   A2P d   1     -12.519  -5.458   5.556  0.00  0.00     0.091 H 
ATOM      8  H   A2P d   1     -14.008  -3.821   4.598  0.00  0.00     0.095 H 
ATOM      9  H   A2P d   1     -13.740  -2.377   7.289  0.00  0.00     0.123 H 
ENDROOT
BRANCH   5  10
ATOM     10  N9  A2P d   1     -14.456  -1.399   5.574  0.00  0.00    -0.294 N 
ATOM     11  C8  A2P d   1     -14.590  -1.120   4.266  0.00  0.00     0.071 A 
ATOM     12  N7  A2P d   1     -15.480  -0.120   4.087  0.00  0.00    -0.236 NA
ATOM     13  H   A2P d   1     -14.056  -1.628   3.464  0.00  0.00     0.144 H 
ATOM     14  C5  A2P d   1     -15.940   0.241   5.297  0.00  0.00     0.149 A 
ATOM     15  C6  A2P d   1     -16.907   1.221   5.814  0.00  0.00     0.155 A 
ATOM     16  C4  A2P d   1     -15.253  -0.600   6.274  0.00  0.00     0.167 A 
ATOM     17  N6  A2P d   1     -17.584   2.047   4.974  0.00  0.00    -0.382 N 
ATOM     18  N1  A2P d   1     -17.071   1.276   7.137  0.00  0.00    -0.222 NA
ATOM     19  H   A2P d   1     -18.258   2.728   5.353  0.00  0.00     0.157 HD
ATOM     20  H   A2P d   1     -17.424   1.993   3.958  0.00  0.00     0.157 HD
ATOM     21  C2  A2P d   1     -16.398   0.475   7.982  0.00  0.00     0.091 A 
ATOM     22  N3  A2P d   1     -15.520  -0.451   7.584  0.00  0.00    -0.222 NA
ATOM     23  H   A2P d   1     -16.578   0.587   9.045  0.00  0.00     0.146 H 
ENDBRANCH   5  10
BRANCH   4  24
ATOM     24  O2' A2P d   1     -15.127  -4.358   6.237  0.00  0.00    -0.270 OA
BRANCH  24  25
ATOM     25  P1  A2P d   1     -16.080  -5.352   5.407  0.00  0.00     0.422 P 
ATOM     26  O1P A2P d   1     -17.336  -5.318   6.217  0.00  0.00    -0.617 OA
ATOM     27  O2P A2P d   1     -16.130  -4.781   4.031  0.00  0.00    -0.617 OA
ATOM     28  O3P A2P d   1     -15.394  -6.673   5.460  0.00  0.00    -0.617 OA
ENDBRANCH  24  25
ENDBRANCH   4  24
BRANCH   1  29
ATOM     29  C5' A2P d   1     -10.919  -3.742   4.539  0.00  0.00     0.059 C 
ATOM     30  H   A2P d   1     -11.680  -4.001   3.788  0.00  0.00     0.079 H 
ATOM     31  H   A2P d   1     -10.395  -2.826   4.230  0.00  0.00     0.079 H 
BRANCH  29  32
ATOM     32  O5' A2P d   1      -9.987  -4.809   4.666  0.00  0.00    -0.280 OA
BRANCH  32  33
ATOM     33  P2  A2P d   1      -9.275  -5.438   3.388  0.00  0.00     0.422 P 
ATOM     34  O4P A2P d   1      -8.192  -6.322   3.939  0.00  0.00    -0.617 OA
ATOM     35  O5P A2P d   1     -10.407  -6.168   2.721  0.00  0.00    -0.617 OA
ATOM     36  O6P A2P d   1      -8.836  -4.277   2.557  0.00  0.00    -0.617 OA
ENDBRANCH  32  33
ENDBRANCH  29  32
ENDBRANCH   1  29
BRANCH   3  37
ATOM     37  O3' A2P d   1     -12.772  -4.853   7.528  0.00  0.00    -0.390 OA
ATOM     38  H   A2P d   1     -13.463  -5.490   7.664  0.00  0.00     0.210 HD
ENDBRANCH   3  37
TORSDOF 7
