REMARK  8 active torsions:
REMARK  status: ('A' for Active; 'I' for Inactive)
REMARK    1  A    between atoms: C15_3  and  C14_21 
REMARK    2  A    between atoms: C21_5  and  C22_6 
REMARK       I    between atoms: N20_25  and  C21_5 
REMARK    3  A    between atoms: C25_27  and  C26_8 
REMARK    4  A    between atoms: C03_12  and  C02_11 
REMARK    5  A    between atoms: N05_14  and  C06_15 
REMARK    6  A    between atoms: C19_24  and  C18_23 
REMARK    7  A    between atoms: C19_24  and  N20_25 
REMARK    8  A    between atoms: C29_29  and  C30_30 
ROOT
ATOM      1  C15 3HS d   1       7.091  13.349  24.990  0.00  0.00    -0.007 A 
ATOM      2  C17 3HS d   1       9.465  13.573  25.301  0.00  0.00    -0.074 A 
ATOM      3  C16 3HS d   1       8.245  14.115  24.916  0.00  0.00    -0.070 A 
ATOM      4  C18 3HS d   1       9.529  12.265  25.767  0.00  0.00    -0.040 A 
ATOM      5  C38 3HS d   1       8.377  11.497  25.846  0.00  0.00    -0.074 A 
ATOM      6  C39 3HS d   1       7.155  12.042  25.465  0.00  0.00    -0.070 A 
ATOM      7  H   3HS d   1      10.367  14.170  25.238  0.00  0.00     0.084 H 
ATOM      8  H   3HS d   1       8.195  15.137  24.558  0.00  0.00     0.084 H 
ATOM      9  H   3HS d   1       8.428  10.475  26.204  0.00  0.00     0.084 H 
ATOM     10  H   3HS d   1       6.251  11.448  25.538  0.00  0.00     0.084 H 
ENDROOT
BRANCH   4  11
ATOM     11  C19 3HS d   1      10.861  11.696  26.185  0.00  0.00     0.019 C 
ATOM     12  H   3HS d   1      10.745  10.607  26.293  0.00  0.00     0.071 H 
ATOM     13  H   3HS d   1      11.127  12.135  27.158  0.00  0.00     0.071 H 
BRANCH  11  14
ATOM     14  N20 3HS d   1      11.957  11.939  25.273  0.00  0.00    -0.353 N 
ATOM     15  C21 3HS d   1      12.303  10.967  24.268  0.00  0.00     0.253 C 
ATOM     16  O37 3HS d   1      11.670   9.924  24.182  0.00  0.00    -0.268 OA
ATOM     17  H   3HS d   1      12.479  12.789  25.341  0.00  0.00     0.163 HD
BRANCH  15  18
ATOM     18  C22 3HS d   1      13.431  11.263  23.320  0.00  0.00     0.053 A 
ATOM     19  C23 3HS d   1      14.538  10.428  23.285  0.00  0.00    -0.065 A 
ATOM     20  C24 3HS d   1      15.584  10.689  22.410  0.00  0.00    -0.069 A 
ATOM     21  H   3HS d   1      14.587   9.568  23.943  0.00  0.00     0.085 H 
ATOM     22  C25 3HS d   1      15.508  11.792  21.573  0.00  0.00    -0.001 A 
ATOM     23  H   3HS d   1      16.450  10.038  22.381  0.00  0.00     0.085 H 
ATOM     24  C34 3HS d   1      14.405  12.626  21.602  0.00  0.00    -0.048 A 
ATOM     25  C35 3HS d   1      13.360  12.370  22.472  0.00  0.00     0.050 A 
ATOM     26  H   3HS d   1      14.359  13.484  20.941  0.00  0.00     0.087 H 
ATOM     27 CL3  3HS d   1      12.003  13.451  22.466  0.00  0.00    -0.083 Cl
BRANCH  22  28
ATOM     28  C26 3HS d   1      16.591  12.128  20.611  0.00  0.00     0.086 A 
ATOM     29  C27 3HS d   1      17.783  11.439  20.359  0.00  0.00    -0.046 A 
ATOM     30  C28 3HS d   1      18.445  12.206  19.339  0.00  0.00    -0.041 A 
ATOM     31  H   3HS d   1      18.133  10.523  20.832  0.00  0.00     0.087 H 
ATOM     32  C29 3HS d   1      17.584  13.279  19.078  0.00  0.00     0.152 A 
ATOM     33  H   3HS d   1      19.406  11.998  18.871  0.00  0.00     0.088 H 
ATOM     34  O33 3HS d   1      16.533  13.180  19.839  0.00  0.00    -0.303 OA
BRANCH  32  35
ATOM     35  C30 3HS d   1      17.762  14.391  18.107  0.00  0.00     0.234 C 
ATOM     36  O31 3HS d   1      18.756  14.420  17.331  0.00  0.00    -0.642 OA
ATOM     37  O32 3HS d   1      16.886  15.292  18.084  0.00  0.00    -0.642 OA
ENDBRANCH  32  35
ENDBRANCH  22  28
ENDBRANCH  15  18
ENDBRANCH  11  14
ENDBRANCH   4  11
BRANCH   1  38
ATOM     38  C14 3HS d   1       5.775  13.962  24.582  0.00  0.00     0.071 A 
ATOM     39  N05 3HS d   1       4.742  13.379  23.973  0.00  0.00    -0.233 N 
ATOM     40  N04 3HS d   1       3.763  14.238  23.787  0.00  0.00    -0.160 NA
ATOM     41  C03 3HS d   1       4.096  15.426  24.268  0.00  0.00     0.156 A 
ATOM     42  C40 3HS d   1       5.406  15.317  24.810  0.00  0.00    -0.018 A 
ATOM     43  H   3HS d   1       5.995  16.096  25.292  0.00  0.00     0.091 H 
BRANCH  39  44
ATOM     44  C06 3HS d   1       4.657  12.020  23.546  0.00  0.00     0.060 A 
ATOM     45  C13 3HS d   1       3.900  11.119  24.278  0.00  0.00    -0.053 A 
ATOM     46  C12 3HS d   1       3.808   9.803  23.861  0.00  0.00    -0.058 A 
ATOM     47  H   3HS d   1       3.382  11.444  25.173  0.00  0.00     0.087 H 
ATOM     48  C10 3HS d   1       4.469   9.395  22.712  0.00  0.00     0.055 A 
ATOM     49  H   3HS d   1       3.221   9.092  24.431  0.00  0.00     0.086 H 
ATOM     50  C08 3HS d   1       5.225  10.299  21.977  0.00  0.00     0.058 A 
ATOM     51 CL2  3HS d   1       4.338   7.747  22.209  0.00  0.00    -0.083 Cl
ATOM     52  C07 3HS d   1       5.316  11.614  22.394  0.00  0.00    -0.033 A 
ATOM     53 CL1  3HS d   1       6.051   9.805  20.537  0.00  0.00    -0.082 Cl
ATOM     54  H   3HS d   1       5.901  12.326  21.823  0.00  0.00     0.089 H 
ENDBRANCH  39  44
BRANCH  41  55
ATOM     55  C02 3HS d   1       3.242  16.641  24.239  0.00  0.00     0.230 C 
ATOM     56  O01 3HS d   1       3.668  17.718  24.728  0.00  0.00    -0.643 OA
ATOM     57  O41 3HS d   1       2.101  16.580  23.715  0.00  0.00    -0.643 OA
ENDBRANCH  41  55
ENDBRANCH   1  38
TORSDOF 8
