REMARK  7 active torsions:
REMARK  status: ('A' for Active; 'I' for Inactive)
REMARK    1  A    between atoms: C10_1  and  C11_19 
REMARK    2  A    between atoms: C20_4  and  C21_5 
REMARK    3  A    between atoms: N19_25  and  C20_4 
REMARK    4  A    between atoms: C26_8  and  C27_28 
REMARK    5  A    between atoms: C07_16  and  C06_15 
REMARK    6  A    between atoms: C29_29  and  C30_30 
REMARK    7  A    between atoms: N34_34  and  C35_35 
ROOT
ATOM      1  C21 3HV d   1       8.953  12.562  25.900  0.00  0.00    -0.040 A 
ATOM      2  C22 3HV d   1       8.271  11.871  24.927  0.00  0.00    -0.074 A 
ATOM      3  C24 3HV d   1       8.416  13.731  26.439  0.00  0.00    -0.074 A 
ATOM      4  C26 3HV d   1       6.483  13.525  25.013  0.00  0.00    -0.007 A 
ATOM      5  C23 3HV d   1       7.055  12.357  24.490  0.00  0.00    -0.070 A 
ATOM      6  C25 3HV d   1       7.184  14.217  25.996  0.00  0.00    -0.070 A 
ATOM      7  H   3HV d   1       8.681  10.959  24.509  0.00  0.00     0.084 H 
ATOM      8  H   3HV d   1       8.960  14.267  27.209  0.00  0.00     0.084 H 
ATOM      9  H   3HV d   1       6.524  11.816  23.715  0.00  0.00     0.084 H 
ATOM     10  H   3HV d   1       6.776  15.129  26.416  0.00  0.00     0.084 H 
ENDROOT
BRANCH   1  11
ATOM     11  C20 3HV d   1      10.280  12.023  26.374  0.00  0.00     0.024 C 
ATOM     12  H   3HV d   1      10.172  10.954  26.607  0.00  0.00     0.072 H 
ATOM     13  H   3HV d   1      10.587  12.567  27.280  0.00  0.00     0.072 H 
BRANCH  11  14
ATOM     14  N19 3HV d   1      11.311  12.188  25.342  0.00  0.00    -0.343 N 
ATOM     15  C02 3HV d   1      12.126  11.186  24.912  0.00  0.00     0.114 A 
ATOM     16  S01 3HV d   1      12.028   9.631  25.499  0.00  0.00    -0.059 SA
ATOM     17  C03 3HV d   1      13.114  11.433  23.925  0.00  0.00     0.012 A 
ATOM     18  C04 3HV d   1      13.252  12.704  23.392  0.00  0.00    -0.021 A 
ATOM     19  C16 3HV d   1      13.965  10.388  23.474  0.00  0.00    -0.068 A 
ATOM     20  C17 3HV d   1      12.399  13.741  23.851  0.00  0.00    -0.057 A 
ATOM     21  C05 3HV d   1      14.232  12.953  22.410  0.00  0.00    -0.059 A 
ATOM     22  C18 3HV d   1      11.452  13.425  24.827  0.00  0.00    -0.018 A 
ATOM     23  H   3HV d   1      12.480  14.752  23.454  0.00  0.00     0.086 H 
ATOM     24  H   3HV d   1      10.796  14.216  25.189  0.00  0.00     0.111 H 
ATOM     25  C06 3HV d   1      15.060  11.918  21.981  0.00  0.00    -0.001 A 
ATOM     26  H   3HV d   1      14.341  13.946  21.990  0.00  0.00     0.086 H 
ATOM     27  C15 3HV d   1      14.935  10.642  22.510  0.00  0.00    -0.069 A 
ATOM     28  H   3HV d   1      15.590   9.847  22.174  0.00  0.00     0.085 H 
ATOM     29  H   3HV d   1      13.858   9.390  23.883  0.00  0.00     0.085 H 
BRANCH  25  30
ATOM     30  C07 3HV d   1      16.105  12.199  20.928  0.00  0.00     0.086 A 
ATOM     31  C08 3HV d   1      17.184  11.390  20.529  0.00  0.00    -0.046 A 
ATOM     32  C09 3HV d   1      17.867  12.137  19.501  0.00  0.00    -0.041 A 
ATOM     33  H   3HV d   1      17.448  10.407  20.915  0.00  0.00     0.087 H 
ATOM     34  C10 3HV d   1      17.121  13.321  19.417  0.00  0.00     0.152 A 
ATOM     35  H   3HV d   1      18.748  11.851  18.929  0.00  0.00     0.088 H 
ATOM     36  O14 3HV d   1      16.111  13.304  20.242  0.00  0.00    -0.303 OA
BRANCH  34  37
ATOM     37  C11 3HV d   1      17.331  14.485  18.527  0.00  0.00     0.234 C 
ATOM     38  O12 3HV d   1      18.352  14.581  17.801  0.00  0.00    -0.642 OA
ATOM     39  O13 3HV d   1      16.427  15.352  18.558  0.00  0.00    -0.642 OA
ENDBRANCH  34  37
ENDBRANCH  25  30
ENDBRANCH  11  14
ENDBRANCH   1  11
BRANCH   4  40
ATOM     40  C27 3HV d   1       5.146  14.061  24.527  0.00  0.00     0.071 A 
ATOM     41  C28 3HV d   1       4.669  15.403  24.663  0.00  0.00    -0.018 A 
ATOM     42  C29 3HV d   1       3.378  15.417  24.051  0.00  0.00     0.156 A 
ATOM     43  H   3HV d   1       5.183  16.239  25.135  0.00  0.00     0.091 H 
ATOM     44  N33 3HV d   1       3.145  14.193  23.598  0.00  0.00    -0.160 NA
ATOM     45  N34 3HV d   1       4.171  13.407  23.886  0.00  0.00    -0.233 N 
BRANCH  42  46
ATOM     46  C30 3HV d   1       2.438  16.580  23.917  0.00  0.00     0.230 C 
ATOM     47  O31 3HV d   1       1.318  16.395  23.379  0.00  0.00    -0.643 OA
ATOM     48  O32 3HV d   1       2.754  17.730  24.332  0.00  0.00    -0.643 OA
ENDBRANCH  42  46
BRANCH  45  49
ATOM     49  C35 3HV d   1       4.230  12.008  23.534  0.00  0.00     0.060 A 
ATOM     50  C36 3HV d   1       3.699  11.046  24.373  0.00  0.00    -0.053 A 
ATOM     51  C37 3HV d   1       3.785   9.708  24.021  0.00  0.00    -0.058 A 
ATOM     52  H   3HV d   1       3.218  11.336  25.300  0.00  0.00     0.087 H 
ATOM     53  C38 3HV d   1       4.407   9.340  22.838  0.00  0.00     0.055 A 
ATOM     54  H   3HV d   1       3.366   8.949  24.671  0.00  0.00     0.086 H 
ATOM     55 CL3  3HV d   1       4.465   7.656  22.473  0.00  0.00    -0.083 Cl
ATOM     56  C40 3HV d   1       4.959  10.314  22.005  0.00  0.00     0.058 A 
ATOM     57 CL4  3HV d   1       5.763   9.980  20.510  0.00  0.00    -0.082 Cl
ATOM     58  C42 3HV d   1       4.853  11.642  22.357  0.00  0.00    -0.033 A 
ATOM     59  H   3HV d   1       5.262  12.405  21.705  0.00  0.00     0.089 H 
ENDBRANCH  45  49
ENDBRANCH   4  40
TORSDOF 7
