REMARK  9 active torsions:
REMARK  status: ('A' for Active; 'I' for Inactive)
REMARK    1  A    between atoms: C15_3  and  C14_21 
REMARK    2  A    between atoms: C21_5  and  C22_6 
REMARK    3  A    between atoms: N20_25  and  C21_5 
REMARK    4  A    between atoms: C25_27  and  C26_8 
REMARK    5  A    between atoms: C03_12  and  C02_11 
REMARK    6  A    between atoms: N05_14  and  C06_15 
REMARK    7  A    between atoms: C19_24  and  C18_23 
REMARK    8  A    between atoms: C19_24  and  N20_25 
REMARK    9  A    between atoms: C29_29  and  C30_30 
ROOT
ATOM      1  C15 3HW d   1      -1.899  11.293  -0.026  0.00  0.00    -0.007 A 
ATOM      2  C17 3HW d   1       0.489  11.060  -0.106  0.00  0.00    -0.069 A 
ATOM      3  C16 3HW d   1      -0.744  11.007  -0.738  0.00  0.00    -0.070 A 
ATOM      4  C18 3HW d   1       0.558  11.396   1.238  0.00  0.00     0.002 A 
ATOM      5  C37 3HW d   1      -0.593  11.674   1.950  0.00  0.00    -0.069 A 
ATOM      6  C38 3HW d   1      -1.820  11.632   1.317  0.00  0.00    -0.070 A 
ATOM      7  H   3HW d   1       1.395  10.840  -0.660  0.00  0.00     0.085 H 
ATOM      8  H   3HW d   1      -0.805  10.742  -1.787  0.00  0.00     0.084 H 
ATOM      9  H   3HW d   1      -0.533  11.925   3.003  0.00  0.00     0.085 H 
ATOM     10  H   3HW d   1      -2.723  11.864   1.871  0.00  0.00     0.084 H 
ENDROOT
BRANCH   4  11
ATOM     11  C19 3HW d   1       1.866  11.450   1.939  0.00  0.00     0.107 C 
ATOM     12  S36 3HW d   1       1.945  10.789   3.465  0.00  0.00    -0.060 SA
BRANCH  11  13
ATOM     13  N20 3HW d   1       2.859  12.365   1.466  0.00  0.00    -0.376 N 
ATOM     14  H   3HW d   1       2.664  13.086   0.801  0.00  0.00     0.160 HD
BRANCH  13  15
ATOM     15  C21 3HW d   1       4.160  12.153   2.034  0.00  0.00     0.017 C 
ATOM     16  H   3HW d   1       4.791  12.979   1.674  0.00  0.00     0.071 H 
ATOM     17  H   3HW d   1       4.036  12.234   3.124  0.00  0.00     0.071 H 
BRANCH  15  18
ATOM     18  C22 3HW d   1       4.936  10.901   1.794  0.00  0.00    -0.041 A 
ATOM     19  C23 3HW d   1       6.037  10.666   2.600  0.00  0.00    -0.074 A 
ATOM     20  C24 3HW d   1       6.806   9.532   2.416  0.00  0.00    -0.070 A 
ATOM     21  H   3HW d   1       6.297  11.374   3.378  0.00  0.00     0.084 H 
ATOM     22  C25 3HW d   1       6.469   8.624   1.427  0.00  0.00    -0.002 A 
ATOM     23  H   3HW d   1       7.671   9.354   3.045  0.00  0.00     0.084 H 
ATOM     24  C34 3HW d   1       5.380   8.861   0.600  0.00  0.00    -0.070 A 
ATOM     25  C35 3HW d   1       4.607  10.001   0.784  0.00  0.00    -0.074 A 
ATOM     26  H   3HW d   1       5.133   8.158  -0.188  0.00  0.00     0.084 H 
ATOM     27  H   3HW d   1       3.752  10.189   0.144  0.00  0.00     0.084 H 
BRANCH  22  28
ATOM     28  C26 3HW d   1       7.314   7.424   1.219  0.00  0.00     0.086 A 
ATOM     29  C27 3HW d   1       8.290   6.906   2.078  0.00  0.00    -0.046 A 
ATOM     30  C28 3HW d   1       8.836   5.774   1.389  0.00  0.00    -0.041 A 
ATOM     31  H   3HW d   1       8.574   7.282   3.060  0.00  0.00     0.087 H 
ATOM     32  C29 3HW d   1       8.132   5.713   0.182  0.00  0.00     0.152 A 
ATOM     33  H   3HW d   1       9.626   5.107   1.731  0.00  0.00     0.088 H 
ATOM     34  O33 3HW d   1       7.282   6.697   0.139  0.00  0.00    -0.303 OA
BRANCH  32  35
ATOM     35  C30 3HW d   1       8.279   4.749  -0.933  0.00  0.00     0.234 C 
ATOM     36  O31 3HW d   1       9.239   3.934  -0.971  0.00  0.00    -0.642 OA
ATOM     37  O32 3HW d   1       7.415   4.782  -1.848  0.00  0.00    -0.642 OA
ENDBRANCH  32  35
ENDBRANCH  22  28
ENDBRANCH  15  18
ENDBRANCH  13  15
ENDBRANCH  11  13
ENDBRANCH   4  11
BRANCH   1  38
ATOM     38  C14 3HW d   1      -3.215  11.230  -0.713  0.00  0.00     0.071 A 
ATOM     39  N05 3HW d   1      -4.351  10.752  -0.212  0.00  0.00    -0.233 N 
ATOM     40  N04 3HW d   1      -5.325  10.836  -1.095  0.00  0.00    -0.160 NA
ATOM     41  C03 3HW d   1      -4.871  11.355  -2.223  0.00  0.00     0.156 A 
ATOM     42  C39 3HW d   1      -3.488  11.636  -2.049  0.00  0.00    -0.018 A 
ATOM     43  H   3HW d   1      -2.796  12.064  -2.773  0.00  0.00     0.091 H 
BRANCH  39  44
ATOM     44  C06 3HW d   1      -4.522  10.250   1.112  0.00  0.00     0.060 A 
ATOM     45  C13 3HW d   1      -5.276  10.982   2.014  0.00  0.00    -0.053 A 
ATOM     46  C12 3HW d   1      -5.451  10.526   3.308  0.00  0.00    -0.058 A 
ATOM     47  H   3HW d   1      -5.731  11.916   1.705  0.00  0.00     0.087 H 
ATOM     48  C10 3HW d   1      -4.866   9.338   3.698  0.00  0.00     0.055 A 
ATOM     49  H   3HW d   1      -6.044  11.098   4.012  0.00  0.00     0.086 H 
ATOM     50  C08 3HW d   1      -4.105   8.612   2.798  0.00  0.00     0.058 A 
ATOM     51 CL1  3HW d   1      -5.103   8.786   5.314  0.00  0.00    -0.083 Cl
ATOM     52  C07 3HW d   1      -3.928   9.062   1.502  0.00  0.00    -0.033 A 
ATOM     53 CL0  3HW d   1      -3.375   7.124   3.274  0.00  0.00    -0.082 Cl
ATOM     54  H   3HW d   1      -3.331   8.491   0.800  0.00  0.00     0.089 H 
ENDBRANCH  39  44
BRANCH  41  55
ATOM     55  C02 3HW d   1      -5.693  11.589  -3.439  0.00  0.00     0.230 C 
ATOM     56  O01 3HW d   1      -6.916  11.289  -3.415  0.00  0.00    -0.643 OA
ATOM     57  O40 3HW d   1      -5.162  12.066  -4.474  0.00  0.00    -0.643 OA
ENDBRANCH  41  55
ENDBRANCH   1  38
TORSDOF 9
