REMARK  9 active torsions:
REMARK  status: ('A' for Active; 'I' for Inactive)
REMARK    1  A    between atoms: C15_3  and  C12_19 
REMARK    2  A    between atoms: N16_21  and  C15_3 
REMARK    3  A    between atoms: C22_6  and  C25_26 
REMARK    4  A    between atoms: C03_11  and  C02_10 
REMARK    5  A    between atoms: C09_17  and  C07_15 
REMARK    6  A    between atoms: C18_23  and  N16_21 
REMARK    7  A    between atoms: C18_23  and  C19_24 
REMARK    8  A    between atoms: C27_27  and  C38_38 
REMARK    9  A    between atoms: N29_29  and  C30_30 
ROOT
ATOM      1  C20 3J0 d   1      -1.132  12.284   1.814  0.00  0.00    -0.074 A 
ATOM      2  C21 3J0 d   1      -2.360  11.878   1.280  0.00  0.00    -0.070 A 
ATOM      3  C22 3J0 d   1      -2.411  11.400  -0.037  0.00  0.00    -0.007 A 
ATOM      4  C24 3J0 d   1      -0.025  11.764  -0.304  0.00  0.00    -0.074 A 
ATOM      5  C19 3J0 d   1       0.021  12.238   1.032  0.00  0.00    -0.041 A 
ATOM      6  C23 3J0 d   1      -1.253  11.355  -0.839  0.00  0.00    -0.070 A 
ATOM      7  H   3J0 d   1      -1.077  12.635   2.838  0.00  0.00     0.084 H 
ATOM      8  H   3J0 d   1      -3.262  11.932   1.878  0.00  0.00     0.084 H 
ATOM      9  H   3J0 d   1       0.878  11.719  -0.903  0.00  0.00     0.084 H 
ATOM     10  H   3J0 d   1      -1.312  11.006  -1.864  0.00  0.00     0.084 H 
ENDROOT
BRANCH   5  11
ATOM     11  C18 3J0 d   1       1.283  12.686   1.637  0.00  0.00     0.017 C 
ATOM     12  H   3J0 d   1       1.491  13.703   1.274  0.00  0.00     0.071 H 
ATOM     13  H   3J0 d   1       1.147  12.707   2.728  0.00  0.00     0.071 H 
BRANCH  11  14
ATOM     14  N16 3J0 d   1       2.470  11.842   1.339  0.00  0.00    -0.376 N 
ATOM     15  H   3J0 d   1       2.984  11.893   0.482  0.00  0.00     0.160 HD
BRANCH  14  16
ATOM     16  C15 3J0 d   1       2.799  10.951   2.406  0.00  0.00     0.107 C 
ATOM     17  S17 3J0 d   1       1.889  10.752   3.785  0.00  0.00    -0.060 SA
BRANCH  16  18
ATOM     18  C12 3J0 d   1       3.913   9.954   2.098  0.00  0.00     0.002 A 
ATOM     19  C13 3J0 d   1       4.903   9.734   3.051  0.00  0.00    -0.069 A 
ATOM     20  C14 3J0 d   1       5.901   8.828   2.785  0.00  0.00    -0.069 A 
ATOM     21  H   3J0 d   1       4.887  10.271   3.992  0.00  0.00     0.085 H 
ATOM     22  C09 3J0 d   1       5.904   8.164   1.560  0.00  0.00    -0.002 A 
ATOM     23  H   3J0 d   1       6.675   8.632   3.518  0.00  0.00     0.085 H 
ATOM     24  C10 3J0 d   1       4.920   8.367   0.620  0.00  0.00    -0.069 A 
ATOM     25  C11 3J0 d   1       3.900   9.288   0.894  0.00  0.00    -0.069 A 
ATOM     26  H   3J0 d   1       4.934   7.823  -0.318  0.00  0.00     0.085 H 
ATOM     27  H   3J0 d   1       3.115   9.473   0.170  0.00  0.00     0.085 H 
BRANCH  22  28
ATOM     28  C07 3J0 d   1       6.964   7.183   1.267  0.00  0.00     0.086 A 
ATOM     29  C06 3J0 d   1       8.118   6.870   2.030  0.00  0.00    -0.046 A 
ATOM     30  C05 3J0 d   1       8.779   5.827   1.266  0.00  0.00    -0.041 A 
ATOM     31  H   3J0 d   1       8.436   7.311   2.974  0.00  0.00     0.087 H 
ATOM     32  C03 3J0 d   1       7.952   5.631   0.146  0.00  0.00     0.152 A 
ATOM     33  H   3J0 d   1       9.708   5.312   1.507  0.00  0.00     0.088 H 
ATOM     34  O08 3J0 d   1       6.901   6.429   0.201  0.00  0.00    -0.303 OA
BRANCH  32  35
ATOM     35  C02 3J0 d   1       8.147   4.665  -0.989  0.00  0.00     0.234 C 
ATOM     36  O01 3J0 d   1       9.149   3.927  -1.027  0.00  0.00    -0.642 OA
ATOM     37  O04 3J0 d   1       7.247   4.648  -1.873  0.00  0.00    -0.642 OA
ENDBRANCH  32  35
ENDBRANCH  22  28
ENDBRANCH  16  18
ENDBRANCH  14  16
ENDBRANCH  11  14
ENDBRANCH   5  11
BRANCH   3  38
ATOM     38  C25 3J0 d   1      -3.740  10.978  -0.633  0.00  0.00     0.071 A 
ATOM     39  C26 3J0 d   1      -4.094  11.182  -1.970  0.00  0.00    -0.018 A 
ATOM     40  C27 3J0 d   1      -5.406  10.660  -2.062  0.00  0.00     0.156 A 
ATOM     41  H   3J0 d   1      -3.497  11.638  -2.759  0.00  0.00     0.091 H 
ATOM     42  N28 3J0 d   1      -5.752  10.230  -0.886  0.00  0.00    -0.160 NA
ATOM     43  N29 3J0 d   1      -4.779  10.428  -0.032  0.00  0.00    -0.233 N 
BRANCH  40  44
ATOM     44  C38 3J0 d   1      -6.295  10.589  -3.306  0.00  0.00     0.230 C 
ATOM     45  O39 3J0 d   1      -5.866  11.028  -4.434  0.00  0.00    -0.643 OA
ATOM     46  O40 3J0 d   1      -7.446  10.065  -3.168  0.00  0.00    -0.643 OA
ENDBRANCH  40  44
BRANCH  43  47
ATOM     47  C30 3J0 d   1      -4.868  10.052   1.318  0.00  0.00     0.060 A 
ATOM     48  C31 3J0 d   1      -4.196   8.912   1.733  0.00  0.00    -0.033 A 
ATOM     49  C32 3J0 d   1      -4.281   8.520   3.055  0.00  0.00     0.058 A 
ATOM     50  H   3J0 d   1      -3.610   8.334   1.027  0.00  0.00     0.089 H 
ATOM     51  C33 3J0 d   1      -5.038   9.256   3.965  0.00  0.00     0.055 A 
ATOM     52 CL7  3J0 d   1      -3.445   7.084   3.563  0.00  0.00    -0.082 Cl
ATOM     53  C34 3J0 d   1      -5.714  10.405   3.538  0.00  0.00    -0.058 A 
ATOM     54 CL6  3J0 d   1      -5.135   8.759   5.608  0.00  0.00    -0.083 Cl
ATOM     55  C35 3J0 d   1      -5.633  10.803   2.215  0.00  0.00    -0.053 A 
ATOM     56  H   3J0 d   1      -6.301  10.983   4.243  0.00  0.00     0.086 H 
ATOM     57  H   3J0 d   1      -6.158  11.689   1.877  0.00  0.00     0.087 H 
ENDBRANCH  43  47
ENDBRANCH   3  38
TORSDOF 9
