REMARK  10 active torsions:
REMARK  status: ('A' for Active; 'I' for Inactive)
REMARK    1  A    between atoms: C4_1  and  O4_13 
REMARK    2  A    between atoms: C5_2  and  C6_3 
REMARK    3  A    between atoms: C6_3  and  O6_14 
REMARK    4  A    between atoms: OAO_4  and  SAW_5 
REMARK    5  A    between atoms: CAP_24  and  OAO_4 
REMARK    6  A    between atoms: SAW_5  and  NAA_8 
REMARK    7  A    between atoms: C2_10  and  O2_9 
REMARK    8  A    between atoms: C3_11  and  O3_12 
REMARK    9  A    between atoms: SAX_17  and  C1_16 
REMARK   10  A    between atoms: NAV_20  and  SAX_17 
ROOT
ATOM      1  C4  3J4 d   1       3.692   3.783  80.331  0.00  0.00     0.089 C 
ATOM      2  C5  3J4 d   1       2.871   4.329  81.488  0.00  0.00     0.087 C 
ATOM      3  C2  3J4 d   1       2.293   1.710  80.466  0.00  0.00     0.102 C 
ATOM      4  C3  3J4 d   1       3.490   2.422  79.952  0.00  0.00     0.091 C 
ATOM      5  O5  3J4 d   1       1.713   3.632  81.943  0.00  0.00    -0.356 OA
ATOM      6  C1  3J4 d   1       1.473   2.304  81.615  0.00  0.00     0.180 C 
ATOM      7  H   3J4 d   1       3.370   4.378  79.463  0.00  0.00     0.091 H 
ATOM      8  H   3J4 d   1       2.363   5.146  80.955  0.00  0.00     0.090 H 
ATOM      9  H   3J4 d   1       2.831   0.955  81.058  0.00  0.00     0.092 H 
ATOM     10  H   3J4 d   1       4.298   1.907  80.492  0.00  0.00     0.091 H 
ATOM     11  H   3J4 d   1       1.815   1.716  82.479  0.00  0.00     0.115 H 
ENDROOT
BRANCH   6  12
ATOM     12  SAX 3J4 d   1      -0.337   2.170  81.646  0.00  0.00     0.258 S 
ATOM     13  OAD 3J4 d   1      -0.565   0.861  81.361  0.00  0.00    -0.203 OA
ATOM     14  OAE 3J4 d   1      -0.926   3.167  80.846  0.00  0.00    -0.203 OA
BRANCH  12  15
ATOM     15  NAV 3J4 d   1      -0.632   2.482  82.976  0.00  0.00    -0.306 N 
ATOM     16  CAM 3J4 d   1      -0.227   1.814  83.912  0.00  0.00     0.030 C 
ATOM     17  CAP 3J4 d   1      -0.368   2.661  85.282  0.00  0.00     0.076 C 
ATOM     18  H   3J4 d   1       0.830   1.556  83.748  0.00  0.00     0.069 H 
ATOM     19  H   3J4 d   1      -0.822   0.892  83.989  0.00  0.00     0.069 H 
ATOM     20  CAK 3J4 d   1      -0.245   3.841  84.891  0.00  0.00    -0.022 C 
ATOM     21  H   3J4 d   1       0.458   2.397  85.959  0.00  0.00     0.088 H 
ATOM     22  CAL 3J4 d   1      -0.756   3.842  83.467  0.00  0.00     0.007 C 
ATOM     23  H   3J4 d   1      -0.844   4.519  85.516  0.00  0.00     0.039 H 
ATOM     24  H   3J4 d   1       0.810   4.150  84.922  0.00  0.00     0.039 H 
ATOM     25  H   3J4 d   1      -1.809   4.159  83.443  0.00  0.00     0.065 H 
ATOM     26  H   3J4 d   1      -0.154   4.524  82.849  0.00  0.00     0.065 H 
BRANCH  17  27
ATOM     27  OAO 3J4 d   1      -1.629   2.476  86.020  0.00  0.00    -0.253 OA
BRANCH  27  28
ATOM     28  SAW 3J4 d   1      -1.889   1.410  87.114  0.00  0.00     0.356 S 
ATOM     29  OAB 3J4 d   1      -3.294   1.380  87.256  0.00  0.00    -0.176 OA
ATOM     30  OAC 3J4 d   1      -1.151   1.692  88.238  0.00  0.00    -0.176 OA
BRANCH  28  31
ATOM     31  NAA 3J4 d   1      -1.233   0.089  86.683  0.00  0.00    -0.306 N 
ATOM     32  H   3J4 d   1      -1.299  -0.717  87.271  0.00  0.00     0.171 HD
ATOM     33  H   3J4 d   1      -0.740   0.035  85.814  0.00  0.00     0.171 HD
ENDBRANCH  28  31
ENDBRANCH  27  28
ENDBRANCH  17  27
ENDBRANCH  12  15
ENDBRANCH   6  12
BRANCH   3  34
ATOM     34  O2  3J4 d   1       1.634   0.835  79.606  0.00  0.00    -0.389 OA
ATOM     35  H   3J4 d   1       0.892   0.449  80.056  0.00  0.00     0.210 HD
ENDBRANCH   3  34
BRANCH   4  36
ATOM     36  O3  3J4 d   1       3.833   2.190  78.577  0.00  0.00    -0.390 OA
ATOM     37  H   3J4 d   1       4.609   2.692  78.356  0.00  0.00     0.210 HD
ENDBRANCH   4  36
BRANCH   2  38
ATOM     38  C6  3J4 d   1       3.623   5.135  82.492  0.00  0.00     0.043 C 
ATOM     39  H   3J4 d   1       3.783   6.128  82.047  0.00  0.00     0.078 H 
ATOM     40  H   3J4 d   1       4.593   4.637  82.637  0.00  0.00     0.078 H 
BRANCH  38  41
ATOM     41  O6  3J4 d   1       3.079   5.346  83.772  0.00  0.00    -0.398 OA
ATOM     42  H   3J4 d   1       3.678   5.875  84.286  0.00  0.00     0.209 HD
ENDBRANCH  38  41
ENDBRANCH   2  38
BRANCH   1  43
ATOM     43  O4  3J4 d   1       5.108   4.012  80.474  0.00  0.00    -0.390 OA
ATOM     44  H   3J4 d   1       5.541   3.837  79.647  0.00  0.00     0.210 HD
ENDBRANCH   1  43
TORSDOF 10
