REMARK  10 active torsions:
REMARK  status: ('A' for Active; 'I' for Inactive)
REMARK    1  A    between atoms: C4_1  and  O4_13 
REMARK    2  A    between atoms: C5_2  and  C6_3 
REMARK    3  A    between atoms: C6_3  and  O6_14 
REMARK    4  A    between atoms: OAO_4  and  SAW_5 
REMARK    5  A    between atoms: CAP_24  and  OAO_4 
REMARK    6  A    between atoms: SAW_5  and  NAA_8 
REMARK    7  A    between atoms: C2_10  and  O2_9 
REMARK    8  A    between atoms: C3_11  and  O3_12 
REMARK    9  A    between atoms: SAX_17  and  C1_16 
REMARK   10  A    between atoms: NAV_20  and  SAX_17 
ROOT
ATOM      1  C4  3J4 d   1       0.597   4.931  79.460  0.00  0.00     0.089 C 
ATOM      2  C5  3J4 d   1       1.191   4.156  80.638  0.00  0.00     0.087 C 
ATOM      3  C2  3J4 d   1      -1.626   5.368  80.641  0.00  0.00     0.102 C 
ATOM      4  C3  3J4 d   1      -0.764   5.440  79.436  0.00  0.00     0.091 C 
ATOM      5  O5  3J4 d   1       0.446   4.265  81.881  0.00  0.00    -0.356 OA
ATOM      6  C1  3J4 d   1      -0.932   4.735  81.906  0.00  0.00     0.180 C 
ATOM      7  H   3J4 d   1       1.232   5.825  79.376  0.00  0.00     0.091 H 
ATOM      8  H   3J4 d   1       2.091   4.748  80.858  0.00  0.00     0.090 H 
ATOM      9  H   3J4 d   1      -2.231   4.488  80.375  0.00  0.00     0.092 H 
ATOM     10  H   3J4 d   1      -1.268   4.786  78.710  0.00  0.00     0.091 H 
ATOM     11  H   3J4 d   1      -1.514   3.804  81.969  0.00  0.00     0.115 H 
ENDROOT
BRANCH   6  12
ATOM     12  SAX 3J4 d   1      -1.053   5.393  83.587  0.00  0.00     0.258 S 
ATOM     13  OAD 3J4 d   1      -2.290   6.082  83.621  0.00  0.00    -0.203 OA
ATOM     14  OAE 3J4 d   1       0.111   6.065  84.001  0.00  0.00    -0.203 OA
BRANCH  12  15
ATOM     15  NAV 3J4 d   1      -1.146   4.300  84.444  0.00  0.00    -0.306 N 
ATOM     16  CAM 3J4 d   1      -2.137   3.542  84.439  0.00  0.00     0.030 C 
ATOM     17  CAP 3J4 d   1      -1.666   2.036  84.749  0.00  0.00     0.076 C 
ATOM     18  H   3J4 d   1      -2.621   3.578  83.452  0.00  0.00     0.069 H 
ATOM     19  H   3J4 d   1      -2.851   3.868  85.210  0.00  0.00     0.069 H 
ATOM     20  CAK 3J4 d   1      -0.512   2.008  84.352  0.00  0.00    -0.022 C 
ATOM     21  H   3J4 d   1      -2.281   1.288  84.227  0.00  0.00     0.088 H 
ATOM     22  CAL 3J4 d   1       0.018   3.422  84.546  0.00  0.00     0.007 C 
ATOM     23  H   3J4 d   1       0.080   1.291  84.940  0.00  0.00     0.039 H 
ATOM     24  H   3J4 d   1      -0.478   1.727  83.289  0.00  0.00     0.039 H 
ATOM     25  H   3J4 d   1       0.488   3.522  85.535  0.00  0.00     0.065 H 
ATOM     26  H   3J4 d   1       0.752   3.667  83.764  0.00  0.00     0.065 H 
BRANCH  17  27
ATOM     27  OAO 3J4 d   1      -1.775   1.866  86.214  0.00  0.00    -0.253 OA
BRANCH  27  28
ATOM     28  SAW 3J4 d   1      -2.631   0.854  86.923  0.00  0.00     0.356 S 
ATOM     29  OAB 3J4 d   1      -4.036   1.035  86.780  0.00  0.00    -0.176 OA
ATOM     30  OAC 3J4 d   1      -2.272   0.964  88.253  0.00  0.00    -0.176 OA
BRANCH  28  31
ATOM     31  NAA 3J4 d   1      -2.097  -0.531  86.383  0.00  0.00    -0.306 N 
ATOM     32  H   3J4 d   1      -2.507  -1.385  86.705  0.00  0.00     0.171 HD
ATOM     33  H   3J4 d   1      -1.349  -0.554  85.720  0.00  0.00     0.171 HD
ENDBRANCH  28  31
ENDBRANCH  27  28
ENDBRANCH  17  27
ENDBRANCH  12  15
ENDBRANCH   6  12
BRANCH   3  34
ATOM     34  O2  3J4 d   1      -2.741   6.360  80.630  0.00  0.00    -0.389 OA
ATOM     35  H   3J4 d   1      -2.381   7.238  80.587  0.00  0.00     0.210 HD
ENDBRANCH   3  34
BRANCH   4  36
ATOM     36  O3  3J4 d   1      -0.838   6.768  78.882  0.00  0.00    -0.390 OA
ATOM     37  H   3J4 d   1      -1.737   6.961  78.644  0.00  0.00     0.210 HD
ENDBRANCH   4  36
BRANCH   2  38
ATOM     38  C6  3J4 d   1       1.775   2.824  80.369  0.00  0.00     0.043 C 
ATOM     39  H   3J4 d   1       2.797   2.979  79.992  0.00  0.00     0.078 H 
ATOM     40  H   3J4 d   1       1.165   2.345  79.589  0.00  0.00     0.078 H 
BRANCH  38  41
ATOM     41  O6  3J4 d   1       1.853   1.930  81.458  0.00  0.00    -0.398 OA
ATOM     42  H   3J4 d   1       0.980   1.765  81.794  0.00  0.00     0.209 HD
ENDBRANCH  38  41
ENDBRANCH   2  38
BRANCH   1  43
ATOM     43  O4  3J4 d   1       0.768   4.152  78.246  0.00  0.00    -0.390 OA
ATOM     44  H   3J4 d   1       0.627   4.710  77.490  0.00  0.00     0.210 HD
ENDBRANCH   1  43
TORSDOF 10
