REMARK  10 active torsions:
REMARK  status: ('A' for Active; 'I' for Inactive)
REMARK    1  A    between atoms: CAA_1  and  CAX_2 
REMARK    2  A    between atoms: CAX_2  and  CAB_3 
REMARK    3  A    between atoms: CAX_2  and  CAC_4 
REMARK    4  A    between atoms: CAX_2  and  OAQ_5 
REMARK    5  A    between atoms: OAQ_5  and  CAR_6 
REMARK       I    between atoms: CAR_6  and  N_8 
REMARK    6  A    between atoms: N_8  and  CA_9 
REMARK    7  A    between atoms: CA_9  and  C_10 
REMARK    8  A    between atoms: CA_9  and  CAT_14 
REMARK       I    between atoms: C_10  and  NAO_12 
REMARK    9  A    between atoms: NAO_12  and  OAF_13 
REMARK   10  A    between atoms: CAU_19  and  NAW_20 
ROOT
ATOM      1  CA  R5T d   1      13.722  10.413  12.290  0.00  0.00     0.119 C 
ATOM      2  H   R5T d   1      13.683   9.354  11.996  0.00  0.00     0.095 H 
ENDROOT
BRANCH   1   3
ATOM      3  N   R5T d   1      15.127  10.851  12.219  0.00  0.00    -0.319 N 
ATOM      4  CAR R5T d   1      15.985  10.292  11.353  0.00  0.00     0.362 C 
ATOM      5  OAD R5T d   1      17.149  10.688  11.334  0.00  0.00    -0.238 OA
ATOM      6  H   R5T d   1      15.446  11.578  12.827  0.00  0.00     0.166 HD
BRANCH   4   7
ATOM      7  OAQ R5T d   1      15.539   9.298  10.507  0.00  0.00    -0.294 OA
BRANCH   7   8
ATOM      8  CAX R5T d   1      16.397   8.910   9.396  0.00  0.00     0.061 C 
BRANCH   8   9
ATOM      9  CAA R5T d   1      15.666   7.845   8.561  0.00  0.00    -0.048 C 
ATOM     10  H   R5T d   1      16.302   7.541   7.717  0.00  0.00     0.031 H 
ATOM     11  H   R5T d   1      14.723   8.263   8.178  0.00  0.00     0.031 H 
ATOM     12  H   R5T d   1      15.450   6.970   9.191  0.00  0.00     0.031 H 
ENDBRANCH   8   9
BRANCH   8  13
ATOM     13  CAB R5T d   1      16.682  10.123   8.502  0.00  0.00    -0.048 C 
ATOM     14  H   R5T d   1      17.205  10.894   9.086  0.00  0.00     0.031 H 
ATOM     15  H   R5T d   1      15.733  10.531   8.124  0.00  0.00     0.031 H 
ATOM     16  H   R5T d   1      17.312   9.814   7.655  0.00  0.00     0.031 H 
ENDBRANCH   8  13
BRANCH   8  17
ATOM     17  CAC R5T d   1      17.716   8.302   9.909  0.00  0.00    -0.048 C 
ATOM     18  H   R5T d   1      17.496   7.434  10.548  0.00  0.00     0.031 H 
ATOM     19  H   R5T d   1      18.265   9.056  10.492  0.00  0.00     0.031 H 
ATOM     20  H   R5T d   1      18.329   7.981   9.054  0.00  0.00     0.031 H 
ENDBRANCH   8  17
ENDBRANCH   7   8
ENDBRANCH   4   7
ENDBRANCH   1   3
BRANCH   1  21
ATOM     21  C   R5T d   1      12.841  11.205  11.301  0.00  0.00     0.268 C 
ATOM     22  O   R5T d   1      11.821  10.708  10.838  0.00  0.00    -0.269 OA
ATOM     23  NAO R5T d   1      13.279  12.412  10.942  0.00  0.00    -0.235 N 
ATOM     24  H   R5T d   1      14.136  12.793  11.289  0.00  0.00     0.197 HD
BRANCH  23  25
ATOM     25  OAF R5T d   1      12.352  13.202   9.930  0.00  0.00    -0.287 OA
ATOM     26  H   R5T d   1      12.744  14.045   9.735  0.00  0.00     0.244 HD
ENDBRANCH  23  25
ENDBRANCH   1  21
BRANCH   1  27
ATOM     27  CAT R5T d   1      13.246  10.509  13.598  0.00  0.00    -0.026 A 
ATOM     28  CAJ R5T d   1      13.489   9.453  14.471  0.00  0.00    -0.072 A 
ATOM     29  CAL R5T d   1      13.033   9.513  15.784  0.00  0.00    -0.055 A 
ATOM     30  H   R5T d   1      14.035   8.582  14.127  0.00  0.00     0.084 H 
ATOM     31  CAU R5T d   1      12.331  10.633  16.226  0.00  0.00     0.058 A 
ATOM     32  H   R5T d   1      13.223   8.690  16.463  0.00  0.00     0.087 H 
ATOM     33  CAK R5T d   1      12.078  11.692  15.355  0.00  0.00    -0.055 A 
ATOM     34  CAI R5T d   1      12.540  11.628  14.038  0.00  0.00    -0.072 A 
ATOM     35  H   R5T d   1      11.526  12.560  15.698  0.00  0.00     0.087 H 
ATOM     36  H   R5T d   1      12.349  12.450  13.357  0.00  0.00     0.084 H 
BRANCH  31  37
ATOM     37  NAW R5T d   1      11.890  10.670  17.478  0.00  0.00    -0.245 N 
ATOM     38  NAN R5T d   1      11.281  11.579  17.991  0.00  0.00    -0.180 NA
ATOM     39  CAH R5T d   1      10.989  11.273  19.257  0.00  0.00     0.023 A 
ATOM     40  CAG R5T d   1      11.471  10.059  19.493  0.00  0.00    -0.048 A 
ATOM     41  H   R5T d   1      10.454  11.903  19.966  0.00  0.00     0.117 H 
ATOM     42  CAM R5T d   1      12.043   9.677  18.359  0.00  0.00     0.006 A 
ATOM     43  H   R5T d   1      11.410   9.495  20.423  0.00  0.00     0.087 H 
ATOM     44  H   R5T d   1      12.545   8.728  18.179  0.00  0.00     0.114 H 
ENDBRANCH  31  37
ENDBRANCH   1  27
TORSDOF 10
