REMARK  7 active torsions:
REMARK  status: ('A' for Active; 'I' for Inactive)
REMARK    1  A    between atoms: C1_1  and  O1_7 
REMARK    2  A    between atoms: C2_2  and  O2_8 
REMARK    3  A    between atoms: C3_3  and  O3_9 
REMARK    4  A    between atoms: C4_4  and  O4_10 
REMARK    5  A    between atoms: C5_5  and  C6_6 
REMARK    6  A    between atoms: C6_6  and  O6_12 
REMARK    7  A    between atoms: O6_12  and  P_13 
ROOT
ATOM      1  C1  G6P d   1      10.964  25.047  49.150  0.00  0.00     0.156 C 
ATOM      2  C2  G6P d   1      10.679  23.972  48.250  0.00  0.00     0.110 C 
ATOM      3  C3  G6P d   1      11.744  22.905  48.360  0.00  0.00     0.092 C 
ATOM      4  C4  G6P d   1      13.131  23.478  48.218  0.00  0.00     0.090 C 
ATOM      5  C5  G6P d   1      13.268  24.567  49.256  0.00  0.00     0.090 C 
ATOM      6  O5  G6P d   1      12.236  25.464  49.082  0.00  0.00    -0.349 OA
ATOM      7  H1  G6P d   1      10.902  24.572  50.140  0.00  0.00     0.133 H 
ATOM      8  H2  G6P d   1      10.698  24.373  47.226  0.00  0.00     0.094 H 
ATOM      9  H3  G6P d   1      11.671  22.399  49.334  0.00  0.00     0.091 H 
ATOM     10  H4  G6P d   1      13.264  23.912  47.216  0.00  0.00     0.091 H 
ATOM     11  H5  G6P d   1      13.220  24.117  50.259  0.00  0.00     0.090 H 
ENDROOT
BRANCH   5  12
ATOM     12  C6  G6P d   1      14.540  25.350  49.119  0.00  0.00     0.059 C 
ATOM     13  H6  G6P d   1      14.597  25.788  48.112  0.00  0.00     0.079 H 
ATOM     14  H7  G6P d   1      15.402  24.685  49.279  0.00  0.00     0.079 H 
BRANCH  12  15
ATOM     15  O6  G6P d   1      14.550  26.362  50.068  0.00  0.00    -0.280 OA
BRANCH  15  16
ATOM     16  P   G6P d   1      15.636  27.591  50.082  0.00  0.00     0.422 P 
ATOM     17  O1P G6P d   1      15.108  28.528  51.115  0.00  0.00    -0.617 OA
ATOM     18  O2P G6P d   1      16.943  27.027  50.377  0.00  0.00    -0.617 OA
ATOM     19  O3P G6P d   1      15.648  28.165  48.768  0.00  0.00    -0.617 OA
ENDBRANCH  15  16
ENDBRANCH  12  15
ENDBRANCH   5  12
BRANCH   4  20
ATOM     20  O4  G6P d   1      14.044  22.448  48.391  0.00  0.00    -0.390 OA
ATOM     21  H11 G6P d   1      13.914  21.794  47.715  0.00  0.00     0.210 HD
ENDBRANCH   4  20
BRANCH   3  22
ATOM     22  O3  G6P d   1      11.447  22.010  47.331  0.00  0.00    -0.390 OA
ATOM     23  H10 G6P d   1      11.501  22.460  46.496  0.00  0.00     0.210 HD
ENDBRANCH   3  22
BRANCH   1  24
ATOM     24  O1  G6P d   1      10.034  26.028  49.227  0.00  0.00    -0.369 OA
ATOM     25  H8  G6P d   1      10.095  26.582  48.457  0.00  0.00     0.212 HD
ENDBRANCH   1  24
BRANCH   2  26
ATOM     26  O2  G6P d   1       9.363  23.402  48.480  0.00  0.00    -0.388 OA
ATOM     27  H9  G6P d   1       8.706  24.085  48.407  0.00  0.00     0.210 HD
ENDBRANCH   2  26
TORSDOF 7
