REMARK  8 active torsions:
REMARK  status: ('A' for Active; 'I' for Inactive)
REMARK    1  A    between atoms: O1_1  and  C1_2 
REMARK    2  A    between atoms: C1_2  and  C2_3 
REMARK    3  A    between atoms: C2_3  and  O2_4 
REMARK    4  A    between atoms: C3_5  and  O3_6 
REMARK    5  A    between atoms: C4_7  and  O4_8 
REMARK    6  A    between atoms: C5_9  and  C6_11 
REMARK    7  A    between atoms: C6_11  and  O6_12 
REMARK    8  A    between atoms: O6_12  and  P_13 
ROOT
ATOM      1  C2  F6P d   1      -9.639  23.186  -8.506  0.00  0.00     0.213 C 
ATOM      2  C3  F6P d   1      -9.048  24.515  -8.475  0.00  0.00     0.118 C 
ATOM      3  C4  F6P d   1      -7.601  24.235  -8.438  0.00  0.00     0.092 C 
ATOM      4  C5  F6P d   1      -7.519  23.071  -9.364  0.00  0.00     0.090 C 
ATOM      5  O5  F6P d   1      -8.598  22.272  -9.020  0.00  0.00    -0.341 OA
ATOM      6  H5  F6P d   1      -9.320  25.091  -9.372  0.00  0.00     0.095 H 
ATOM      7  H7  F6P d   1      -7.243  23.988  -7.428  0.00  0.00     0.091 H 
ATOM      8  H9  F6P d   1      -7.638  23.436 -10.395  0.00  0.00     0.090 H 
ENDROOT
BRANCH   4   9
ATOM      9  C6  F6P d   1      -6.261  22.266  -9.314  0.00  0.00     0.059 C 
ATOM     10  H10 F6P d   1      -6.100  21.928  -8.280  0.00  0.00     0.079 H 
ATOM     11  H11 F6P d   1      -5.422  22.905  -9.625  0.00  0.00     0.079 H 
BRANCH   9  12
ATOM     12  O6  F6P d   1      -6.303  21.159 -10.139  0.00  0.00    -0.280 OA
BRANCH  12  13
ATOM     13  P   F6P d   1      -5.263  20.003 -10.057  0.00  0.00     0.422 P 
ATOM     14  O1P F6P d   1      -3.900  20.523 -10.444  0.00  0.00    -0.617 OA
ATOM     15  O2P F6P d   1      -5.218  19.441  -8.658  0.00  0.00    -0.617 OA
ATOM     16  O3P F6P d   1      -5.680  18.917 -11.022  0.00  0.00    -0.617 OA
ENDBRANCH  12  13
ENDBRANCH   9  12
ENDBRANCH   4   9
BRANCH   3  17
ATOM     17  O4  F6P d   1      -6.922  25.319  -8.939  0.00  0.00    -0.390 OA
ATOM     18  H8  F6P d   1      -7.114  26.084  -8.409  0.00  0.00     0.210 HD
ENDBRANCH   3  17
BRANCH   2  19
ATOM     19  O3  F6P d   1      -9.435  25.205  -7.346  0.00  0.00    -0.387 OA
ATOM     20  H6  F6P d   1      -9.154  24.729  -6.573  0.00  0.00     0.210 HD
ENDBRANCH   2  19
BRANCH   1  21
ATOM     21  C1  F6P d   1     -10.840  23.121  -9.403  0.00  0.00     0.071 C 
ATOM     22  H2  F6P d   1     -11.671  23.633  -8.895  0.00  0.00     0.082 H 
ATOM     23  H3  F6P d   1     -10.597  23.652 -10.335  0.00  0.00     0.082 H 
BRANCH  21  24
ATOM     24  O1  F6P d   1     -11.263  21.849  -9.736  0.00  0.00    -0.395 OA
ATOM     25  H1  F6P d   1     -11.492  21.375  -8.945  0.00  0.00     0.209 HD
ENDBRANCH  21  24
ENDBRANCH   1  21
BRANCH   1  26
ATOM     26  O2  F6P d   1     -10.016  22.839  -7.215  0.00  0.00    -0.362 OA
ATOM     27  H4  F6P d   1     -10.361  21.954  -7.214  0.00  0.00     0.213 HD
ENDBRANCH   1  26
TORSDOF 8
