REMARK  12 active torsions:
REMARK  status: ('A' for Active; 'I' for Inactive)
REMARK    1  A    between atoms: C25_1  and  S1_2 
REMARK    2  A    between atoms: S1_2  and  C24_5 
REMARK    3  A    between atoms: C20_10  and  C19_11 
REMARK    4  A    between atoms: C16_16  and  N2_17 
REMARK    5  A    between atoms: C11_19  and  C12_20 
REMARK    6  A    between atoms: C12_20  and  C13_21 
REMARK    7  A    between atoms: C12_20  and  C14_22 
REMARK    8  A    between atoms: C12_20  and  O1_23 
REMARK    9  A    between atoms: C10_25  and  C7_26 
REMARK   10  A    between atoms: C7_26  and  C8_27 
REMARK   11  A    between atoms: C7_26  and  C9_28 
REMARK   12  A    between atoms: C7_26  and  C6_29 
ROOT
ATOM      1  N2  652 d   1     -22.664  10.354 -43.726  0.00  0.00    -0.307 N 
ATOM      2  C15 652 d   1     -22.381   9.930 -44.944  0.00  0.00     0.014 A 
ATOM      3  C11 652 d   1     -22.739   8.592 -45.021  0.00  0.00     0.086 A 
ATOM      4  N1  652 d   1     -23.197   8.262 -43.822  0.00  0.00    -0.234 NA
ATOM      5  C10 652 d   1     -23.168   9.319 -43.034  0.00  0.00     0.123 A 
ATOM      6  H   652 d   1     -21.945  10.525 -45.745  0.00  0.00     0.115 H 
ENDROOT
BRANCH   1   7
ATOM      7  C16 652 d   1     -22.416  11.706 -43.236  0.00  0.00     0.040 A 
ATOM      8  C27 652 d   1     -21.137  12.062 -42.785  0.00  0.00    -0.056 A 
ATOM      9  C28 652 d   1     -20.887  13.334 -42.270  0.00  0.00    -0.070 A 
ATOM     10  H   652 d   1     -20.331  11.339 -42.837  0.00  0.00     0.087 H 
ATOM     11  C19 652 d   1     -21.928  14.261 -42.218  0.00  0.00    -0.026 A 
ATOM     12  H   652 d   1     -19.898  13.598 -41.915  0.00  0.00     0.084 H 
ATOM     13  C18 652 d   1     -23.201  13.919 -42.680  0.00  0.00    -0.070 A 
ATOM     14  C17 652 d   1     -23.448  12.639 -43.196  0.00  0.00    -0.056 A 
ATOM     15  H   652 d   1     -24.003  14.648 -42.639  0.00  0.00     0.084 H 
ATOM     16  H   652 d   1     -24.435  12.378 -43.561  0.00  0.00     0.087 H 
BRANCH  11  17
ATOM     17  C20 652 d   1     -21.688  15.661 -41.661  0.00  0.00    -0.025 A 
ATOM     18  C26 652 d   1     -21.999  16.766 -42.435  0.00  0.00    -0.051 A 
ATOM     19  C24 652 d   1     -21.800  18.038 -41.904  0.00  0.00     0.059 A 
ATOM     20  H   652 d   1     -22.391  16.643 -43.438  0.00  0.00     0.087 H 
ATOM     21  C23 652 d   1     -21.298  18.215 -40.607  0.00  0.00    -0.062 A 
ATOM     22  C22 652 d   1     -21.000  17.106 -39.828  0.00  0.00    -0.081 A 
ATOM     23  H   652 d   1     -21.143  19.214 -40.215  0.00  0.00     0.085 H 
ATOM     24  C21 652 d   1     -21.206  15.830 -40.355  0.00  0.00    -0.072 A 
ATOM     25  H   652 d   1     -20.612  17.229 -38.823  0.00  0.00     0.083 H 
ATOM     26  H   652 d   1     -20.991  14.959 -39.747  0.00  0.00     0.084 H 
BRANCH  19  27
ATOM     27  S1  652 d   1     -22.201  19.472 -42.940  0.00  0.00     0.171 S 
ATOM     28  O2  652 d   1     -22.810  20.635 -41.934  0.00  0.00    -0.223 OA
ATOM     29  O3  652 d   1     -23.392  19.017 -43.996  0.00  0.00    -0.223 OA
BRANCH  27  30
ATOM     30  C25 652 d   1     -20.752  20.071 -43.834  0.00  0.00     0.020 C 
ATOM     31  H   652 d   1     -19.974  20.367 -43.115  0.00  0.00     0.049 H 
ATOM     32  H   652 d   1     -21.033  20.939 -44.449  0.00  0.00     0.049 H 
ATOM     33  H   652 d   1     -20.365  19.272 -44.483  0.00  0.00     0.049 H 
ENDBRANCH  27  30
ENDBRANCH  19  27
ENDBRANCH  11  17
ENDBRANCH   1   7
BRANCH   5  34
ATOM     34  C7  652 d   1     -23.677   9.311 -41.578  0.00  0.00     0.042 C 
BRANCH  34  35
ATOM     35  C8  652 d   1     -25.073   9.964 -41.581  0.00  0.00    -0.059 C 
ATOM     36  H   652 d   1     -25.731   9.420 -42.275  0.00  0.00     0.029 H 
ATOM     37  H   652 d   1     -24.987  11.012 -41.903  0.00  0.00     0.029 H 
ATOM     38  H   652 d   1     -25.498   9.926 -40.567  0.00  0.00     0.029 H 
ENDBRANCH  34  35
BRANCH  34  39
ATOM     39  C9  652 d   1     -23.881   7.882 -41.063  0.00  0.00    -0.059 C 
ATOM     40  H   652 d   1     -22.913   7.360 -41.037  0.00  0.00     0.029 H 
ATOM     41  H   652 d   1     -24.569   7.346 -41.733  0.00  0.00     0.029 H 
ATOM     42  H   652 d   1     -24.307   7.915 -40.049  0.00  0.00     0.029 H 
ENDBRANCH  34  39
BRANCH  34  43
ATOM     43  C6  652 d   1     -22.697  10.032 -40.617  0.00  0.00    -0.021 A 
ATOM     44  C4  652 d   1     -23.182  11.035 -39.773  0.00  0.00    -0.074 A 
ATOM     45  C3  652 d   1     -22.351  11.710 -38.895  0.00  0.00    -0.082 A 
ATOM     46  H   652 d   1     -24.235  11.291 -39.807  0.00  0.00     0.084 H 
ATOM     47  C2  652 d   1     -21.000  11.386 -38.853  0.00  0.00    -0.081 A 
ATOM     48  H   652 d   1     -22.750  12.483 -38.248  0.00  0.00     0.083 H 
ATOM     49  C1  652 d   1     -20.489  10.391 -39.682  0.00  0.00    -0.061 A 
ATOM     50  H   652 d   1     -20.341  11.911 -38.171  0.00  0.00     0.083 H 
ATOM     51  C5  652 d   1     -21.333   9.703 -40.561  0.00  0.00     0.041 A 
ATOM     52  H   652 d   1     -19.433  10.148 -39.646  0.00  0.00     0.086 H 
ATOM     53 CL1  652 d   1     -20.579   8.464 -41.618  0.00  0.00    -0.084 Cl
ENDBRANCH  34  43
ENDBRANCH   5  34
BRANCH   3  54
ATOM     54  C12 652 d   1     -22.626   7.680 -46.235  0.00  0.00     0.096 C 
BRANCH  54  55
ATOM     55  C13 652 d   1     -23.871   6.814 -46.338  0.00  0.00    -0.043 C 
ATOM     56  H   652 d   1     -23.788   6.156 -47.215  0.00  0.00     0.032 H 
ATOM     57  H   652 d   1     -24.757   7.457 -46.444  0.00  0.00     0.032 H 
ATOM     58  H   652 d   1     -23.969   6.203 -45.429  0.00  0.00     0.032 H 
ENDBRANCH  54  55
BRANCH  54  59
ATOM     59  C14 652 d   1     -21.397   6.796 -46.106  0.00  0.00    -0.043 C 
ATOM     60  H   652 d   1     -20.498   7.426 -46.032  0.00  0.00     0.032 H 
ATOM     61  H   652 d   1     -21.318   6.147 -46.991  0.00  0.00     0.032 H 
ATOM     62  H   652 d   1     -21.485   6.175 -45.202  0.00  0.00     0.032 H 
ENDBRANCH  54  59
BRANCH  54  63
ATOM     63  O1  652 d   1     -22.511   8.447 -47.401  0.00  0.00    -0.384 OA
ATOM     64  H   652 d   1     -21.735   8.992 -47.345  0.00  0.00     0.211 HD
ENDBRANCH  54  63
ENDBRANCH   3  54
TORSDOF 12
