REMARK  9 active torsions:
REMARK  status: ('A' for Active; 'I' for Inactive)
REMARK    1  A    between atoms: PB_1  and  O3A_5 
REMARK    2  A    between atoms: O3A_5  and  PA_6 
REMARK    3  A    between atoms: PA_6  and  O5'_9 
REMARK    4  A    between atoms: O5'_9  and  C5'_10 
REMARK    5  A    between atoms: C5'_10  and  C4'_11 
REMARK    6  A    between atoms: C3'_13  and  O3'_14 
REMARK    7  A    between atoms: C2'_15  and  O2'_16 
REMARK    8  A    between atoms: C1'_17  and  N9_18 
REMARK    9  A    between atoms: C2_25  and  N2_26 
ROOT
ATOM      1  C4' GDP d   1      -4.358  33.757  -0.785  0.00  0.00     0.089 C 
ATOM      2  O4' GDP d   1      -5.144  34.951  -0.917  0.00  0.00    -0.353 OA
ATOM      3  C3' GDP d   1      -4.542  33.254   0.642  0.00  0.00     0.091 C 
ATOM      4  C2' GDP d   1      -5.800  33.981   1.099  0.00  0.00     0.105 C 
ATOM      5  C1' GDP d   1      -5.707  35.290   0.336  0.00  0.00     0.139 C 
ATOM      6  H3  GDP d   1      -3.297  33.981  -0.968  0.00  0.00     0.090 H 
ATOM      7  H4  GDP d   1      -4.668  32.162   0.680  0.00  0.00     0.091 H 
ATOM      8  H6  GDP d   1      -6.692  33.417   0.788  0.00  0.00     0.093 H 
ATOM      9  H8  GDP d   1      -5.060  36.003   0.868  0.00  0.00     0.122 H 
ENDROOT
BRANCH   5  10
ATOM     10  N9  GDP d   1      -7.049  35.876   0.168  0.00  0.00    -0.295 N 
ATOM     11  C8  GDP d   1      -8.150  35.259  -0.298  0.00  0.00     0.071 A 
ATOM     12  N7  GDP d   1      -9.205  36.103  -0.323  0.00  0.00    -0.234 NA
ATOM     13  H9  GDP d   1      -8.186  34.217  -0.613  0.00  0.00     0.144 H 
ATOM     14  C5  GDP d   1      -8.775  37.293   0.125  0.00  0.00     0.171 A 
ATOM     15  C6  GDP d   1      -9.366  38.621   0.370  0.00  0.00     0.292 A 
ATOM     16  C4  GDP d   1      -7.348  37.131   0.448  0.00  0.00     0.161 A 
ATOM     17  O6  GDP d   1     -10.576  38.842   0.131  0.00  0.00    -0.265 OA
ATOM     18  N1  GDP d   1      -8.556  39.578   0.858  0.00  0.00    -0.154 N 
ATOM     19  C2  GDP d   1      -7.252  39.364   1.121  0.00  0.00     0.680 A 
ATOM     20  H10 GDP d   1      -8.938  40.486   1.033  0.00  0.00     0.187 HD
ATOM     21  N3  GDP d   1      -6.649  38.174   0.924  0.00  0.00    -0.174 N 
ATOM     22  H13 GDP d   1      -5.648  38.065   1.140  0.00  0.00     0.186 HD
BRANCH  19  23
ATOM     23  N2  GDP d   1      -6.502  40.375   1.607  0.00  0.00    -0.234 N 
ATOM     24  H11 GDP d   1      -5.504  40.224   1.812  0.00  0.00     0.174 HD
ATOM     25  H12 GDP d   1      -6.928  41.298   1.773  0.00  0.00     0.174 HD
ENDBRANCH  19  23
ENDBRANCH   5  10
BRANCH   4  26
ATOM     26  O2' GDP d   1      -5.882  34.196   2.512  0.00  0.00    -0.388 OA
ATOM     27  H7  GDP d   1      -5.142  34.720   2.795  0.00  0.00     0.210 HD
ENDBRANCH   4  26
BRANCH   1  28
ATOM     28  C5' GDP d   1      -4.836  32.720  -1.793  0.00  0.00     0.058 C 
ATOM     29  H1  GDP d   1      -4.741  33.128  -2.810  0.00  0.00     0.079 H 
ATOM     30  H2  GDP d   1      -4.221  31.812  -1.703  0.00  0.00     0.079 H 
BRANCH  28  31
ATOM     31  O5' GDP d   1      -6.210  32.393  -1.536  0.00  0.00    -0.287 OA
BRANCH  31  32
ATOM     32  PA  GDP d   1      -6.809  30.990  -2.041  0.00  0.00     0.418 P 
ATOM     33  O1A GDP d   1      -8.251  30.893  -1.587  0.00  0.00    -0.624 OA
ATOM     34  O2A GDP d   1      -5.937  29.838  -1.619  0.00  0.00    -0.624 OA
BRANCH  32  35
ATOM     35  O3A GDP d   1      -6.708  31.225  -3.626  0.00  0.00    -0.173 OA
BRANCH  35  36
ATOM     36  PB  GDP d   1      -6.914  30.152  -4.818  0.00  0.00     0.431 P 
ATOM     37  O1B GDP d   1      -5.583  29.652  -5.279  0.00  0.00    -0.616 OA
ATOM     38  O2B GDP d   1      -7.633  30.891  -5.917  0.00  0.00    -0.616 OA
ATOM     39  O3B GDP d   1      -7.718  28.981  -4.295  0.00  0.00    -0.616 OA
ENDBRANCH  35  36
ENDBRANCH  32  35
ENDBRANCH  31  32
ENDBRANCH  28  31
ENDBRANCH   1  28
BRANCH   3  40
ATOM     40  O3' GDP d   1      -3.413  33.655   1.432  0.00  0.00    -0.390 OA
ATOM     41  H5  GDP d   1      -3.524  33.343   2.322  0.00  0.00     0.210 HD
ENDBRANCH   3  40
TORSDOF 9
