REMARK  5 active torsions:
REMARK  status: ('A' for Active; 'I' for Inactive)
REMARK    1  A    between atoms: C3_3  and  O3_10 
REMARK    2  A    between atoms: C4_4  and  O4_12 
REMARK    3  A    between atoms: C5_5  and  C6_6 
REMARK    4  A    between atoms: C6_6  and  O6_14 
REMARK    5  A    between atoms: C2_13  and  O2_11 
ROOT
ATOM      1  C1  MVL d   1       8.658  12.458  13.404  0.00  0.00     0.138 A 
ATOM      2  N10 MVL d   1       9.056  13.072  12.308  0.00  0.00    -0.332 N 
ATOM      3  C3  MVL d   1       8.731  10.209  12.354  0.00  0.00     0.093 C 
ATOM      4  C4  MVL d   1       8.981  11.015  11.059  0.00  0.00     0.085 C 
ATOM      5  C5  MVL d   1       9.817  12.284  11.299  0.00  0.00     0.065 C 
ATOM      6  C7  MVL d   1       7.950  14.529  13.517  0.00  0.00     0.019 A 
ATOM      7  C8  MVL d   1       8.644  14.353  12.333  0.00  0.00    -0.001 A 
ATOM      8  N1  MVL d   1       7.987  13.340  14.171  0.00  0.00    -0.243 NA
ATOM      9  C2  MVL d   1       8.998  11.023  13.633  0.00  0.00     0.119 C 
ATOM     10  H1  MVL d   1       9.402   9.337  12.350  0.00  0.00     0.091 H 
ATOM     11  H2  MVL d   1       8.007  11.326  10.655  0.00  0.00     0.090 H 
ATOM     12  H3  MVL d   1      10.782  11.986  11.734  0.00  0.00     0.080 H 
ATOM     13  H6  MVL d   1       7.468  15.444  13.858  0.00  0.00     0.117 H 
ATOM     14  H7  MVL d   1       8.823  15.107  11.568  0.00  0.00     0.113 H 
ATOM     15  H11 MVL d   1      10.075  10.961  13.845  0.00  0.00     0.099 H 
ENDROOT
BRANCH   5  16
ATOM     16  C6  MVL d   1      10.125  13.095  10.044  0.00  0.00     0.038 C 
ATOM     17  H4  MVL d   1      10.579  12.436   9.289  0.00  0.00     0.077 H 
ATOM     18  H5  MVL d   1      10.829  13.901  10.298  0.00  0.00     0.077 H 
BRANCH  16  19
ATOM     19  O6  MVL d   1       8.929  13.666   9.511  0.00  0.00    -0.399 OA
ATOM     20  H12 MVL d   1       8.320  12.972   9.289  0.00  0.00     0.209 HD
ENDBRANCH  16  19
ENDBRANCH   5  16
BRANCH   4  21
ATOM     21  O4  MVL d   1       9.618  10.162  10.106  0.00  0.00    -0.391 OA
ATOM     22  H10 MVL d   1       9.715  10.626   9.283  0.00  0.00     0.210 HD
ENDBRANCH   4  21
BRANCH   3  23
ATOM     23  O3  MVL d   1       7.371   9.756  12.384  0.00  0.00    -0.390 OA
ATOM     24  H8  MVL d   1       6.788  10.506  12.361  0.00  0.00     0.210 HD
ENDBRANCH   3  23
BRANCH   9  25
ATOM     25  O2  MVL d   1       8.308  10.506  14.778  0.00  0.00    -0.385 OA
ATOM     26  H9  MVL d   1       8.507  11.043  15.536  0.00  0.00     0.210 HD
ENDBRANCH   9  25
TORSDOF 5
