REMARK  4 active torsions:
REMARK  status: ('A' for Active; 'I' for Inactive)
REMARK    1  A    between atoms: O4_1  and  C4_2 
REMARK    2  A    between atoms: C3_3  and  O3_4 
REMARK    3  A    between atoms: C5_8  and  C6_9 
REMARK    4  A    between atoms: C6_9  and  O6_10 
ROOT
ATOM      1  C4  IFM d   1       9.083  11.262  11.210  0.00  0.00     0.069 C 
ATOM      2  C3  IFM d   1       8.923  10.307  12.408  0.00  0.00     0.084 C 
ATOM      3  C2  IFM d   1       8.152  10.921  13.585  0.00  0.00     0.107 C 
ATOM      4  N   IFM d   1       8.528  12.310  13.833  0.00  0.00    -0.072 N 
ATOM      5  C1  IFM d   1       8.707  13.256  12.725  0.00  0.00     0.089 C 
ATOM      6  C5  IFM d   1       9.615  12.644  11.643  0.00  0.00     0.017 C 
ATOM      7  H2  IFM d   1       8.088  11.414  10.765  0.00  0.00     0.087 H 
ATOM      8  H3  IFM d   1       9.928  10.040  12.765  0.00  0.00     0.089 H 
ATOM      9  H5  IFM d   1       8.361  10.332  14.490  0.00  0.00     0.079 H 
ATOM     10  H6  IFM d   1       7.076  10.881  13.362  0.00  0.00     0.079 H 
ATOM     11  H7  IFM d   1       9.403  12.285  14.332  0.00  0.00     0.277 HD
ATOM     12  H8  IFM d   1       7.813  12.698  14.428  0.00  0.00     0.277 HD
ATOM     13  H9  IFM d   1       9.168  14.179  13.106  0.00  0.00     0.076 H 
ATOM     14  H10 IFM d   1       7.726  13.491  12.286  0.00  0.00     0.076 H 
ATOM     15  H11 IFM d   1      10.601  12.473  12.100  0.00  0.00     0.049 H 
ENDROOT
BRANCH   6  16
ATOM     16  C6  IFM d   1       9.833  13.633  10.487  0.00  0.00     0.024 C 
ATOM     17  H12 IFM d   1      10.789  13.401   9.995  0.00  0.00     0.074 H 
ATOM     18  H13 IFM d   1       9.869  14.654  10.894  0.00  0.00     0.074 H 
BRANCH  16  19
ATOM     19  O6  IFM d   1       8.776  13.557   9.511  0.00  0.00    -0.400 OA
ATOM     20  H14 IFM d   1       8.742  12.679   9.150  0.00  0.00     0.209 HD
ENDBRANCH  16  19
ENDBRANCH   6  16
BRANCH   1  21
ATOM     21  O4  IFM d   1       9.928  10.665  10.212  0.00  0.00    -0.392 OA
ATOM     22  H1  IFM d   1      10.020  11.262   9.478  0.00  0.00     0.210 HD
ENDBRANCH   1  21
BRANCH   2  23
ATOM     23  O3  IFM d   1       8.259   9.118  11.973  0.00  0.00    -0.391 OA
ATOM     24  H4  IFM d   1       8.158   8.526  12.709  0.00  0.00     0.210 HD
ENDBRANCH   2  23
TORSDOF 4
