REMARK  13 active torsions:
REMARK  status: ('A' for Active; 'I' for Inactive)
REMARK    1  A    between atoms: CAA_1  and  CAV_2 
REMARK    2  A    between atoms: CAV_2  and  CAB_3 
REMARK    3  A    between atoms: CAV_2  and  CAC_4 
REMARK    4  A    between atoms: CAV_2  and  OAR_5 
REMARK    5  A    between atoms: OAR_5  and  CAS_6 
REMARK       I    between atoms: CAS_6  and  NAP_8 
REMARK    6  A    between atoms: NAP_8  and  CAN_9 
REMARK    7  A    between atoms: CAN_9  and  CAL_10 
REMARK    8  A    between atoms: CAL_10  and  CAM_11 
REMARK    9  A    between atoms: CAM_11  and  CAO_12 
REMARK   10  A    between atoms: CAO_12  and  OAQ_13 
REMARK   11  A    between atoms: OAQ_13  and  CAT_14 
REMARK   12  A    between atoms: CAU_17  and  SAW_18 
REMARK   13  A    between atoms: SAW_18  and  NAD_21 
ROOT
ATOM      1  CAL 3O1 d   1      19.565   8.952  14.648  0.00  0.00    -0.048 C 
ATOM      2  H13 3O1 d   1      18.580   9.247  15.039  0.00  0.00     0.035 H 
ATOM      3  H14 3O1 d   1      20.158   8.495  15.454  0.00  0.00     0.035 H 
ENDROOT
BRANCH   1   4
ATOM      4  CAN 3O1 d   1      20.268  10.211  14.257  0.00  0.00    -0.004 C 
ATOM      5  H11 3O1 d   1      20.444  10.160  13.172  0.00  0.00     0.064 H 
ATOM      6  H12 3O1 d   1      19.586  11.045  14.479  0.00  0.00     0.064 H 
BRANCH   4   7
ATOM      7  NAP 3O1 d   1      21.524  10.518  14.874  0.00  0.00    -0.348 N 
ATOM      8  CAS 3O1 d   1      21.952  11.840  14.516  0.00  0.00     0.292 C 
ATOM      9  OAE 3O1 d   1      20.994  12.806  14.316  0.00  0.00    -0.143 OA
ATOM     10  H10 3O1 d   1      22.032   9.897  15.471  0.00  0.00     0.163 HD
BRANCH   8  11
ATOM     11  OAR 3O1 d   1      23.093  12.194  14.798  0.00  0.00    -0.305 OA
BRANCH  11  12
ATOM     12  CAV 3O1 d   1      24.163  11.907  13.972  0.00  0.00     0.060 C 
BRANCH  12  13
ATOM     13  CAA 3O1 d   1      23.730  11.058  12.822  0.00  0.00    -0.048 C 
ATOM     14  H1  3O1 d   1      24.596  10.842  12.179  0.00  0.00     0.031 H 
ATOM     15  H2  3O1 d   1      22.965  11.592  12.239  0.00  0.00     0.031 H 
ATOM     16  H3  3O1 d   1      23.310  10.114  13.200  0.00  0.00     0.031 H 
ENDBRANCH  12  13
BRANCH  12  17
ATOM     17  CAB 3O1 d   1      24.741  13.182  13.448  0.00  0.00    -0.048 C 
ATOM     18  H4  3O1 d   1      25.062  13.812  14.290  0.00  0.00     0.031 H 
ATOM     19  H5  3O1 d   1      23.980  13.716  12.860  0.00  0.00     0.031 H 
ATOM     20  H6  3O1 d   1      25.607  12.956  12.808  0.00  0.00     0.031 H 
ENDBRANCH  12  17
BRANCH  12  21
ATOM     21  CAC 3O1 d   1      25.211  11.179  14.750  0.00  0.00    -0.048 C 
ATOM     22  H7  3O1 d   1      24.792  10.239  15.139  0.00  0.00     0.031 H 
ATOM     23  H8  3O1 d   1      25.546  11.806  15.589  0.00  0.00     0.031 H 
ATOM     24  H9  3O1 d   1      26.066  10.956  14.095  0.00  0.00     0.031 H 
ENDBRANCH  12  21
ENDBRANCH  11  12
ENDBRANCH   8  11
ENDBRANCH   4   7
ENDBRANCH   1   4
BRANCH   1  25
ATOM     25  CAM 3O1 d   1      19.324   7.887  13.634  0.00  0.00    -0.043 C 
ATOM     26  H15 3O1 d   1      20.256   7.769  13.063  0.00  0.00     0.036 H 
ATOM     27  H16 3O1 d   1      18.529   8.251  12.967  0.00  0.00     0.036 H 
BRANCH  25  28
ATOM     28  CAO 3O1 d   1      18.918   6.524  14.097  0.00  0.00     0.026 C 
ATOM     29  H17 3O1 d   1      19.116   6.476  15.178  0.00  0.00     0.075 H 
ATOM     30  H18 3O1 d   1      19.559   5.799  13.574  0.00  0.00     0.075 H 
BRANCH  28  31
ATOM     31  OAQ 3O1 d   1      17.616   6.128  13.904  0.00  0.00    -0.351 OA
BRANCH  31  32
ATOM     32  CAT 3O1 d   1      17.103   5.058  14.599  0.00  0.00     0.068 A 
ATOM     33  CAH 3O1 d   1      15.781   5.063  15.023  0.00  0.00    -0.049 A 
ATOM     34  CAJ 3O1 d   1      15.260   3.990  15.724  0.00  0.00    -0.058 A 
ATOM     35  H19 3O1 d   1      15.150   5.917  14.803  0.00  0.00     0.087 H 
ATOM     36  CAU 3O1 d   1      16.056   2.890  16.015  0.00  0.00     0.079 A 
ATOM     37  H20 3O1 d   1      14.226   4.008  16.048  0.00  0.00     0.086 H 
ATOM     38  CAK 3O1 d   1      17.378   2.883  15.594  0.00  0.00    -0.058 A 
ATOM     39  CAI 3O1 d   1      17.896   3.956  14.890  0.00  0.00    -0.049 A 
ATOM     40  H23 3O1 d   1      18.010   2.031  15.818  0.00  0.00     0.086 H 
ATOM     41  H24 3O1 d   1      18.929   3.936  14.563  0.00  0.00     0.087 H 
BRANCH  36  42
ATOM     42  SAW 3O1 d   1      15.396   1.519  16.918  0.00  0.00     0.256 S 
ATOM     43  OAF 3O1 d   1      15.926   1.600  18.286  0.00  0.00    -0.201 OA
ATOM     44  OAG 3O1 d   1      13.927   1.606  16.951  0.00  0.00    -0.201 OA
BRANCH  42  45
ATOM     45  NAD 3O1 d   1      15.906   0.124  16.248  0.00  0.00    -0.324 N 
ATOM     46  H21 3O1 d   1      15.623  -0.752  16.639  0.00  0.00     0.169 HD
ATOM     47  H22 3O1 d   1      16.503   0.143  15.446  0.00  0.00     0.169 HD
ENDBRANCH  42  45
ENDBRANCH  36  42
ENDBRANCH  31  32
ENDBRANCH  28  31
ENDBRANCH  25  28
ENDBRANCH   1  25
TORSDOF 13
