REMARK  6 active torsions:
REMARK  status: ('A' for Active; 'I' for Inactive)
REMARK    1  A    between atoms: C1_1  and  C2_2 
REMARK    2  A    between atoms: C7_7  and  C8_8 
REMARK       I    between atoms: C8_8  and  N10_10 
REMARK    3  A    between atoms: N10_10  and  C11_11 
REMARK    4  A    between atoms: N14_14  and  C16_16 
REMARK    5  A    between atoms: C16_16  and  C17_17 
REMARK    6  A    between atoms: C16_16  and  C25_25 
ROOT
ATOM      1  C11 3P6 d   1      21.984   0.172   6.491  0.00  0.00     0.071 A 
ATOM      2  C12 3P6 d   1      22.087  -1.120   5.907  0.00  0.00     0.049 A 
ATOM      3  N13 3P6 d   1      23.290  -1.675   6.042  0.00  0.00    -0.182 NA
ATOM      4  N14 3P6 d   1      23.946  -0.728   6.738  0.00  0.00    -0.269 N 
ATOM      5  C15 3P6 d   1      23.216   0.391   7.024  0.00  0.00     0.026 A 
ATOM      6  H8  3P6 d   1      21.259  -1.610   5.397  0.00  0.00     0.121 H 
ATOM      7  H9  3P6 d   1      23.551   1.274   7.566  0.00  0.00     0.117 H 
ENDROOT
BRANCH   4   8
ATOM      8  C16 3P6 d   1      25.345  -0.884   7.103  0.00  0.00     0.075 C 
ATOM      9  H10 3P6 d   1      25.496  -0.389   8.074  0.00  0.00     0.085 H 
BRANCH   8  10
ATOM     10  C17 3P6 d   1      25.793  -2.326   7.260  0.00  0.00     0.070 C 
ATOM     11  C18 3P6 d   1      27.300  -2.398   7.519  0.00  0.00    -0.047 C 
ATOM     12  C19 3P6 d   1      27.781  -3.860   7.501  0.00  0.00    -0.063 C 
ATOM     13  H12 3P6 d   1      27.520  -1.957   8.502  0.00  0.00     0.035 H 
ATOM     14  H13 3P6 d   1      27.829  -1.833   6.737  0.00  0.00     0.035 H 
ATOM     15  C20 3P6 d   1      27.343  -4.609   8.711  0.00  0.00    -0.053 C 
ATOM     16  H14 3P6 d   1      28.880  -3.871   7.455  0.00  0.00     0.033 H 
ATOM     17  H15 3P6 d   1      27.372  -4.357   6.609  0.00  0.00     0.033 H 
ATOM     18  C21 3P6 d   1      25.818  -4.663   8.767  0.00  0.00     0.029 C 
ATOM     19  H16 3P6 d   1      27.723  -4.103   9.611  0.00  0.00     0.034 H 
ATOM     20  H17 3P6 d   1      27.743  -5.633   8.670  0.00  0.00     0.034 H 
ATOM     21  S22 3P6 d   1      24.981  -3.061   8.679  0.00  0.00     0.150 S 
ATOM     22  H18 3P6 d   1      25.530  -5.145   9.713  0.00  0.00     0.056 H 
ATOM     23  H19 3P6 d   1      25.469  -5.275   7.922  0.00  0.00     0.056 H 
ATOM     24  O23 3P6 d   1      25.343  -2.302   9.866  0.00  0.00    -0.227 OA
ATOM     25  O24 3P6 d   1      23.596  -3.335   8.340  0.00  0.00    -0.227 OA
ATOM     26  H11 3P6 d   1      25.542  -2.888   6.348  0.00  0.00     0.067 H 
ENDBRANCH   8  10
BRANCH   8  27
ATOM     27  C25 3P6 d   1      26.177  -0.169   6.067  0.00  0.00    -0.032 A 
ATOM     28  C26 3P6 d   1      27.082   0.804   6.452  0.00  0.00    -0.075 A 
ATOM     29  C27 3P6 d   1      27.857   1.449   5.500  0.00  0.00    -0.082 A 
ATOM     30  H20 3P6 d   1      27.186   1.063   7.500  0.00  0.00     0.084 H 
ATOM     31  C28 3P6 d   1      27.721   1.150   4.158  0.00  0.00    -0.083 A 
ATOM     32  H21 3P6 d   1      28.578   2.196   5.812  0.00  0.00     0.083 H 
ATOM     33  C29 3P6 d   1      26.815   0.179   3.765  0.00  0.00    -0.082 A 
ATOM     34  H22 3P6 d   1      28.319   1.671   3.419  0.00  0.00     0.083 H 
ATOM     35  C30 3P6 d   1      26.048  -0.475   4.724  0.00  0.00    -0.075 A 
ATOM     36  H23 3P6 d   1      26.704  -0.070   2.716  0.00  0.00     0.083 H 
ATOM     37  H24 3P6 d   1      25.340  -1.235   4.415  0.00  0.00     0.084 H 
ENDBRANCH   8  27
ENDBRANCH   4   8
BRANCH   1  38
ATOM     38  N10 3P6 d   1      20.935   1.078   6.562  0.00  0.00    -0.319 N 
ATOM     39  C8  3P6 d   1      19.760   0.907   5.869  0.00  0.00     0.274 C 
ATOM     40  O9  3P6 d   1      19.523  -0.134   5.274  0.00  0.00    -0.266 OA
ATOM     41  H7  3P6 d   1      21.038   1.887   7.140  0.00  0.00     0.169 HD
BRANCH  39  42
ATOM     42  C7  3P6 d   1      18.852   2.056   5.937  0.00  0.00     0.126 A 
ATOM     43  N6  3P6 d   1      19.243   3.262   6.391  0.00  0.00    -0.272 N 
ATOM     44  N5  3P6 d   1      18.165   4.084   6.312  0.00  0.00    -0.178 NA
ATOM     45  H6  3P6 d   1      20.181   3.513   6.733  0.00  0.00     0.189 HD
ATOM     46  C4  3P6 d   1      17.080   3.429   5.816  0.00  0.00     0.064 A 
ATOM     47  C3  3P6 d   1      15.734   4.008   5.582  0.00  0.00    -0.010 C 
ATOM     48  C31 3P6 d   1      17.485   2.143   5.589  0.00  0.00     0.003 A 
ATOM     49  C2  3P6 d   1      14.707   2.965   5.165  0.00  0.00     0.037 A 
ATOM     50  H4  3P6 d   1      15.391   4.487   6.511  0.00  0.00     0.043 H 
ATOM     51  H5  3P6 d   1      15.810   4.764   4.786  0.00  0.00     0.043 H 
ATOM     52  C33 3P6 d   1      15.154   1.532   4.947  0.00  0.00     0.027 A 
ATOM     53  C34 3P6 d   1      14.792   2.405   3.794  0.00  0.00     0.256 A 
ATOM     54  C32 3P6 d   1      16.588   1.114   5.051  0.00  0.00    -0.027 C 
ATOM     55  H27 3P6 d   1      14.501   0.706   5.266  0.00  0.00     0.051 H 
ATOM     56  H25 3P6 d   1      16.642   0.234   5.708  0.00  0.00     0.041 H 
ATOM     57  H26 3P6 d   1      16.941   0.843   4.045  0.00  0.00     0.041 H 
ATOM     58  F35 3P6 d   1      15.748   3.001   2.969  0.00  0.00    -0.205 F 
ATOM     59  F36 3P6 d   1      13.624   2.203   3.085  0.00  0.00    -0.205 F 
BRANCH  49  60
ATOM     60  C1  3P6 d   1      13.351   3.113   5.766  0.00  0.00    -0.063 C 
ATOM     61  H1  3P6 d   1      13.442   3.537   6.777  0.00  0.00     0.028 H 
ATOM     62  H2  3P6 d   1      12.866   2.127   5.824  0.00  0.00     0.028 H 
ATOM     63  H3  3P6 d   1      12.744   3.784   5.140  0.00  0.00     0.028 H 
ENDBRANCH  49  60
ENDBRANCH  39  42
ENDBRANCH   1  38
TORSDOF 6
