REMARK  5 active torsions:
REMARK  status: ('A' for Active; 'I' for Inactive)
REMARK    1  A    between atoms: CAP_16  and  OAB_2 
REMARK    2  A    between atoms: CAQ_17  and  OAC_3 
REMARK    3  A    between atoms: CAN_14  and  OAE_5 
REMARK    4  A    between atoms: CAO_15  and  OAF_6 
REMARK    5  A    between atoms: CAM_13  and  CAL_12 
ROOT
ATOM      1  CAG RHN d   1      -1.285   5.277   6.292  0.00  0.00    -0.079 C 
ATOM      2  CAH RHN d   1      -0.937   4.119   6.971  0.00  0.00    -0.050 C 
ATOM      3  CAI RHN d   1      -1.703   5.204   4.959  0.00  0.00    -0.069 C 
ATOM      4  CAJ RHN d   1      -3.502   0.386   1.301  0.00  0.00    -0.034 C 
ATOM      5  CAK RHN d   1      -3.063   2.707   1.050  0.00  0.00    -0.053 C 
ATOM      6  CAM RHN d   1      -3.506   1.506   0.505  0.00  0.00     0.044 C 
ATOM      7  CAN RHN d   1      -0.996   2.891   6.322  0.00  0.00     0.079 C 
ATOM      8  CAO RHN d   1      -2.917   0.400   2.560  0.00  0.00     0.080 C 
ATOM      9  CAP RHN d   1      -2.098   3.927   2.942  0.00  0.00     0.088 C 
ATOM     10  CAQ RHN d   1      -1.576   1.640   4.281  0.00  0.00     0.093 C 
ATOM     11  CAR RHN d   1      -1.710   3.988   4.282  0.00  0.00     0.014 C 
ATOM     12  CAS RHN d   1      -2.534   2.746   2.350  0.00  0.00     0.015 C 
ATOM     13  CAT RHN d   1      -1.491   2.819   5.011  0.00  0.00     0.044 C 
ATOM     14  CAU RHN d   1      -2.374   1.568   3.088  0.00  0.00     0.044 C 
ATOM     15  H5  RHN d   1      -1.233   6.237   6.793  0.00  0.00     0.083 H 
ATOM     16  H6  RHN d   1      -0.620   4.171   8.006  0.00  0.00     0.087 H 
ATOM     17  H7  RHN d   1      -2.025   6.104   4.448  0.00  0.00     0.085 H 
ATOM     18  H8  RHN d   1      -3.964  -0.525   0.939  0.00  0.00     0.089 H 
ATOM     19  H9  RHN d   1      -3.127   3.619   0.467  0.00  0.00     0.086 H 
ENDROOT
BRANCH   6  20
ATOM     20  CAL RHN d   1      -4.096   1.423  -0.877  0.00  0.00     0.209 C 
ATOM     21  OAA RHN d   1      -4.394   2.469  -1.488  0.00  0.00    -0.644 OA
ATOM     22  OAD RHN d   1      -4.302   0.314  -1.427  0.00  0.00    -0.644 OA
ENDBRANCH   6  20
BRANCH   8  23
ATOM     23  OAF RHN d   1      -3.047  -0.721   3.298  0.00  0.00    -0.360 OA
ATOM     24  H4  RHN d   1      -2.612  -0.601   4.134  0.00  0.00     0.217 HD
ENDBRANCH   8  23
BRANCH   9  25
ATOM     25  OAB RHN d   1      -2.043   5.057   2.162  0.00  0.00    -0.359 OA
ATOM     26  H1  RHN d   1      -2.338   4.849   1.283  0.00  0.00     0.217 HD
ENDBRANCH   9  25
BRANCH  10  27
ATOM     27  OAC RHN d   1      -1.471   0.519   5.040  0.00  0.00    -0.359 OA
ATOM     28  H2  RHN d   1      -2.171   0.506   5.682  0.00  0.00     0.217 HD
ENDBRANCH  10  27
BRANCH   7  29
ATOM     29  OAE RHN d   1      -0.698   1.767   7.030  0.00  0.00    -0.360 OA
ATOM     30  H3  RHN d   1      -0.779   1.008   6.465  0.00  0.00     0.217 HD
ENDBRANCH   7  29
TORSDOF 5
