REMARK  15 active torsions:
REMARK  status: ('A' for Active; 'I' for Inactive)
REMARK    1  A    between atoms: PBE_2  and  CAS_5 
REMARK    2  A    between atoms: CAS_5  and  CAP_6 
REMARK    3  A    between atoms: CAP_6  and  NBB_7 
REMARK    4  A    between atoms: NBB_7  and  CAL_8 
REMARK    5  A    between atoms: NBB_7  and  CAM_11 
REMARK    6  A    between atoms: CAL_8  and  CAK_9 
REMARK    7  A    between atoms: CAM_11  and  CAN_12 
REMARK    8  A    between atoms: CAN_12  and  NBC_13 
REMARK    9  A    between atoms: NBC_13  and  CAQ_14 
REMARK   10  A    between atoms: NBC_13  and  CAO_20 
REMARK   11  A    between atoms: CAQ_14  and  CAT_15 
REMARK   12  A    between atoms: CAT_15  and  PBF_16 
REMARK   13  A    between atoms: CAO_20  and  CAR_21 
REMARK   14  A    between atoms: CAR_21  and  N9_22 
REMARK   15  A    between atoms: C2_25  and  N2_26 
ROOT
ATOM      1  NBC 3QF d   1      -4.701  13.419 122.874  0.00  0.00    -0.067 N 
ATOM      2  H13 3QF d   1      -5.548  13.021 122.499  0.00  0.00     0.280 HD
ENDROOT
BRANCH   1   3
ATOM      3  CAN 3QF d   1      -3.552  12.598 122.485  0.00  0.00     0.106 C 
ATOM      4  H11 3QF d   1      -2.651  13.229 122.471  0.00  0.00     0.078 H 
ATOM      5  H12 3QF d   1      -3.424  11.792 123.222  0.00  0.00     0.078 H 
BRANCH   3   6
ATOM      6  CAM 3QF d   1      -3.750  11.965 121.070  0.00  0.00     0.106 C 
ATOM      7  H9  3QF d   1      -4.825  11.881 120.850  0.00  0.00     0.078 H 
ATOM      8  H10 3QF d   1      -3.269  12.600 120.311  0.00  0.00     0.078 H 
BRANCH   6   9
ATOM      9  NBB 3QF d   1      -3.143  10.639 121.055  0.00  0.00    -0.063 N 
ATOM     10  H5  3QF d   1      -2.203  10.698 121.415  0.00  0.00     0.280 HD
BRANCH   9  11
ATOM     11  CAP 3QF d   1      -3.947   9.743 121.923  0.00  0.00     0.096 C 
ATOM     12  H3  3QF d   1      -3.763  10.008 122.975  0.00  0.00     0.077 H 
ATOM     13  H4  3QF d   1      -5.013   9.884 121.690  0.00  0.00     0.077 H 
BRANCH  11  14
ATOM     14  CAS 3QF d   1      -3.574   8.223 121.706  0.00  0.00     0.061 C 
ATOM     15  H1  3QF d   1      -4.068   7.853 120.795  0.00  0.00     0.056 H 
ATOM     16  H2  3QF d   1      -2.484   8.127 121.597  0.00  0.00     0.056 H 
BRANCH  14  17
ATOM     17  PBE 3QF d   1      -4.138   7.219 123.164  0.00  0.00     0.261 P 
ATOM     18  OAF 3QF d   1      -3.426   7.688 124.396  0.00  0.00    -0.640 OA
ATOM     19  OAG 3QF d   1      -3.836   5.762 122.933  0.00  0.00    -0.640 OA
ATOM     20  OAC 3QF d   1      -5.613   7.405 123.341  0.00  0.00    -0.640 OA
ENDBRANCH  14  17
ENDBRANCH  11  14
ENDBRANCH   9  11
BRANCH   9  21
ATOM     21  CAL 3QF d   1      -3.098  10.100 119.663  0.00  0.00     0.131 C 
ATOM     22  H6  3QF d   1      -2.918   9.015 119.699  0.00  0.00     0.086 H 
ATOM     23  H7  3QF d   1      -2.283  10.589 119.110  0.00  0.00     0.086 H 
BRANCH  21  24
ATOM     24  CAK 3QF d   1      -4.433  10.371 118.946  0.00  0.00     0.113 C 
ATOM     25  OAE 3QF d   1      -5.330   9.499 118.943  0.00  0.00    -0.305 OA
ATOM     26  H8  3QF d   1      -4.597  11.322 118.441  0.00  0.00     0.146 H 
ENDBRANCH  21  24
ENDBRANCH   9  21
ENDBRANCH   6   9
ENDBRANCH   3   6
ENDBRANCH   1   3
BRANCH   1  27
ATOM     27  CAQ 3QF d   1      -4.533  14.731 122.374  0.00  0.00     0.095 C 
ATOM     28  H14 3QF d   1      -3.922  14.695 121.460  0.00  0.00     0.077 H 
ATOM     29  H15 3QF d   1      -4.023  15.345 123.131  0.00  0.00     0.077 H 
BRANCH  27  30
ATOM     30  CAT 3QF d   1      -5.877  15.351 122.052  0.00  0.00     0.061 C 
ATOM     31  H16 3QF d   1      -6.450  15.454 122.985  0.00  0.00     0.056 H 
ATOM     32  H17 3QF d   1      -6.416  14.685 121.362  0.00  0.00     0.056 H 
BRANCH  30  33
ATOM     33  PBF 3QF d   1      -5.717  17.035 121.258  0.00  0.00     0.261 P 
ATOM     34  OAH 3QF d   1      -5.272  16.864 119.831  0.00  0.00    -0.640 OA
ATOM     35  OAI 3QF d   1      -7.064  17.740 121.294  0.00  0.00    -0.640 OA
ATOM     36  OAD 3QF d   1      -4.695  17.868 121.995  0.00  0.00    -0.640 OA
ENDBRANCH  30  33
ENDBRANCH  27  30
ENDBRANCH   1  27
BRANCH   1  37
ATOM     37  CAO 3QF d   1      -4.777  13.453 124.341  0.00  0.00     0.099 C 
ATOM     38  H18 3QF d   1      -4.727  12.425 124.728  0.00  0.00     0.078 H 
ATOM     39  H19 3QF d   1      -5.730  13.912 124.642  0.00  0.00     0.078 H 
BRANCH  37  40
ATOM     40  CAR 3QF d   1      -3.605  14.278 124.936  0.00  0.00     0.025 C 
ATOM     41  H20 3QF d   1      -3.416  15.154 124.299  0.00  0.00     0.067 H 
ATOM     42  H21 3QF d   1      -2.702  13.652 124.976  0.00  0.00     0.067 H 
BRANCH  40  43
ATOM     43  N9  3QF d   1      -3.952  14.735 126.315  0.00  0.00    -0.322 N 
ATOM     44  C4  3QF d   1      -3.986  13.955 127.432  0.00  0.00     0.183 A 
ATOM     45  N3  3QF d   1      -3.745  12.628 127.723  0.00  0.00    -0.044 NA
ATOM     46  C5  3QF d   1      -4.364  14.797 128.493  0.00  0.00     0.159 A 
ATOM     47  C2  3QF d   1      -3.862  12.154 128.946  0.00  0.00     0.702 A 
ATOM     48  N1  3QF d   1      -4.231  12.951 130.002  0.00  0.00    -0.164 N 
ATOM     49  C6  3QF d   1      -4.486  14.240 129.836  0.00  0.00     0.226 A 
ATOM     50  H24 3QF d   1      -4.309  12.550 130.915  0.00  0.00     0.186 HD
ATOM     51  O6  3QF d   1      -4.864  15.049 130.926  0.00  0.00    -0.169 OA
ATOM     52  N7  3QF d   1      -4.540  16.046 127.947  0.00  0.00    -0.235 NA
ATOM     53  C8  3QF d   1      -4.293  16.000 126.653  0.00  0.00     0.068 A 
ATOM     54  H25 3QF d   1      -4.354  16.844 125.967  0.00  0.00     0.143 H 
BRANCH  47  55
ATOM     55  N2  3QF d   1      -3.603  10.779 129.186  0.00  0.00    -0.233 N 
ATOM     56  H22 3QF d   1      -3.325  10.164 128.408  0.00  0.00     0.174 HD
ATOM     57  H23 3QF d   1      -3.693  10.396 130.138  0.00  0.00     0.174 HD
ENDBRANCH  47  55
ENDBRANCH  40  43
ENDBRANCH  37  40
ENDBRANCH   1  37
TORSDOF 15
