REMARK  10 active torsions:
REMARK  status: ('A' for Active; 'I' for Inactive)
REMARK    1  A    between atoms: C4_1  and  O4_26 
REMARK    2  A    between atoms: C5_2  and  C6_3 
REMARK    3  A    between atoms: C6_3  and  O6_25 
REMARK    4  A    between atoms: C3_4  and  O3_27 
REMARK    5  A    between atoms: CAY_11  and  OBD_12 
REMARK    6  A    between atoms: NAA_16  and  CAB_15 
REMARK    7  A    between atoms: CAG_21  and  CAD_20 
REMARK    8  A    between atoms: O1_22  and  CAG_21 
REMARK    9  A    between atoms: C1_23  and  O1_22 
REMARK   10  A    between atoms: C2_28  and  O2_29 
ROOT
ATOM      1  CAG 3QR d   1      -0.552   9.955  82.733  0.00  0.00     0.065 C 
ATOM      2  H13 3QR d   1       0.539  10.005  82.606  0.00  0.00     0.084 H 
ATOM      3  H14 3QR d   1      -0.901  10.855  83.261  0.00  0.00     0.084 H 
ENDROOT
BRANCH   1   4
ATOM      4  CAD 3QR d   1      -0.946   8.695  83.501  0.00  0.00     0.099 A 
ATOM      5  CAC 3QR d   1      -0.521   7.359  83.213  0.00  0.00     0.034 A 
ATOM      6  NAA 3QR d   1      -1.135   6.567  84.137  0.00  0.00    -0.225 N 
ATOM      7  H12 3QR d   1       0.154   7.041  82.419  0.00  0.00     0.118 H 
ATOM      8  NAF 3QR d   1      -1.866   7.324  84.933  0.00  0.00    -0.061 NA
ATOM      9  NAE 3QR d   1      -1.784   8.590  84.575  0.00  0.00    -0.133 NA
BRANCH   6  10
ATOM     10  CAB 3QR d   1      -0.948   5.108  84.229  0.00  0.00     0.061 A 
ATOM     11  CAX 3QR d   1      -1.558   4.382  85.229  0.00  0.00    -0.032 A 
ATOM     12  CAW 3QR d   1      -1.330   2.938  85.293  0.00  0.00     0.092 A 
ATOM     13  H6  3QR d   1      -2.196   4.872  85.956  0.00  0.00     0.089 H 
ATOM     14  SBA 3QR d   1      -1.886   1.768  86.327  0.00  0.00     0.261 S 
ATOM     15  CAV 3QR d   1      -0.513   2.373  84.375  0.00  0.00     0.014 A 
ATOM     16  OBB 3QR d   1      -1.241   1.891  87.639  0.00  0.00    -0.200 OA
ATOM     17  OBC 3QR d   1      -3.347   1.778  86.432  0.00  0.00    -0.200 OA
ATOM     18  NAZ 3QR d   1      -1.395   0.393  85.638  0.00  0.00    -0.284 N 
ATOM     19  CAY 3QR d   1      -0.392   0.702  84.679  0.00  0.00     0.137 C 
ATOM     20  H7  3QR d   1      -1.738  -0.522  85.850  0.00  0.00     0.175 HD
ATOM     21  H8  3QR d   1       0.593   0.479  85.115  0.00  0.00     0.126 H 
ATOM     22  CAU 3QR d   1       0.121   3.141  83.350  0.00  0.00    -0.069 A 
ATOM     23  CAT 3QR d   1      -0.094   4.511  83.291  0.00  0.00    -0.054 A 
ATOM     24  H10 3QR d   1       0.765   2.657  82.624  0.00  0.00     0.084 H 
ATOM     25  H11 3QR d   1       0.392   5.111  82.530  0.00  0.00     0.087 H 
BRANCH  19  26
ATOM     26  OBD 3QR d   1      -0.496   0.054  83.598  0.00  0.00    -0.372 OA
ATOM     27  H9  3QR d   1       0.203   0.310  83.008  0.00  0.00     0.212 HD
ENDBRANCH  19  26
ENDBRANCH   6  10
ENDBRANCH   1   4
BRANCH   1  28
ATOM     28  O1  3QR d   1      -1.189   9.836  81.487  0.00  0.00    -0.352 OA
BRANCH  28  29
ATOM     29  C1  3QR d   1      -0.402  10.087  80.398  0.00  0.00     0.159 C 
ATOM     30  O5  3QR d   1      -0.909  11.275  79.689  0.00  0.00    -0.348 OA
ATOM     31  C5  3QR d   1      -2.317  11.147  79.327  0.00  0.00     0.089 C 
ATOM     32  C4  3QR d   1      -2.778   9.747  78.890  0.00  0.00     0.090 C 
ATOM     33  H2  3QR d   1      -2.906  11.408  80.219  0.00  0.00     0.090 H 
ATOM     34  C3  3QR d   1      -1.780   8.651  78.875  0.00  0.00     0.092 C 
ATOM     35  H1  3QR d   1      -3.543   9.449  79.622  0.00  0.00     0.091 H 
ATOM     36  C2  3QR d   1      -0.453   8.898  79.484  0.00  0.00     0.110 C 
ATOM     37  H5  3QR d   1      -1.599   8.403  77.819  0.00  0.00     0.091 H 
ATOM     38  H19 3QR d   1      -0.174   8.007  80.065  0.00  0.00     0.094 H 
ATOM     39  H15 3QR d   1       0.635  10.264  80.721  0.00  0.00     0.133 H 
BRANCH  31  40
ATOM     40  C6  3QR d   1      -2.613  12.166  78.250  0.00  0.00     0.043 C 
ATOM     41  H3  3QR d   1      -1.953  11.992  77.387  0.00  0.00     0.078 H 
ATOM     42  H4  3QR d   1      -2.442  13.179  78.644  0.00  0.00     0.078 H 
BRANCH  40  43
ATOM     43  O6  3QR d   1      -4.018  12.031  77.831  0.00  0.00    -0.398 OA
ATOM     44  H16 3QR d   1      -4.163  11.156  77.492  0.00  0.00     0.209 HD
ENDBRANCH  40  43
ENDBRANCH  31  40
BRANCH  32  45
ATOM     45  O4  3QR d   1      -3.419   9.796  77.584  0.00  0.00    -0.390 OA
ATOM     46  H17 3QR d   1      -4.063  10.494  77.575  0.00  0.00     0.210 HD
ENDBRANCH  32  45
BRANCH  34  47
ATOM     47  O3  3QR d   1      -2.379   7.493  79.532  0.00  0.00    -0.390 OA
ATOM     48  H18 3QR d   1      -1.757   6.775  79.535  0.00  0.00     0.210 HD
ENDBRANCH  34  47
BRANCH  36  49
ATOM     49  O2  3QR d   1       0.523   9.105  78.420  0.00  0.00    -0.388 OA
ATOM     50  H20 3QR d   1       0.305   9.896  77.942  0.00  0.00     0.210 HD
ENDBRANCH  36  49
ENDBRANCH  28  29
ENDBRANCH   1  28
TORSDOF 10
