REMARK  1 active torsions:
REMARK  status: ('A' for Active; 'I' for Inactive)
REMARK    1  A    between atoms: C7_4  and  O8_8 
ROOT
ATOM      1  C4  LSA d   1      -1.618   4.989  85.378  0.00  0.00    -0.081 A 
ATOM      2  C5  LSA d   1      -2.096   4.029  86.271  0.00  0.00    -0.060 A 
ATOM      3  C6  LSA d   1      -1.784   2.709  86.008  0.00  0.00     0.090 A 
ATOM      4  C7  LSA d   1      -0.845   0.829  84.822  0.00  0.00     0.137 A 
ATOM      5  C3  LSA d   1      -0.865   4.625  84.268  0.00  0.00    -0.082 A 
ATOM      6  S10 LSA d   1      -2.192   1.261  86.869  0.00  0.00     0.261 S 
ATOM      7  N9  LSA d   1      -1.496   0.177  85.936  0.00  0.00    -0.284 N 
ATOM      8  C1  LSA d   1      -1.033   2.353  84.896  0.00  0.00     0.014 A 
ATOM      9  C2  LSA d   1      -0.561   3.295  84.003  0.00  0.00    -0.071 A 
ATOM     10  O12 LSA d   1      -1.567   1.195  88.202  0.00  0.00    -0.200 OA
ATOM     11  O11 LSA d   1      -3.643   1.096  86.911  0.00  0.00    -0.200 OA
ATOM     12  H1  LSA d   1      -1.838   6.036  85.553  0.00  0.00     0.083 H 
ATOM     13  H2  LSA d   1      -2.688   4.308  87.135  0.00  0.00     0.085 H 
ATOM     14  H3  LSA d   1       0.101   0.887  85.381  0.00  0.00     0.126 H 
ATOM     15  H4  LSA d   1      -0.507   5.395  83.594  0.00  0.00     0.083 H 
ATOM     16  H5  LSA d   1      -1.507  -0.810  86.096  0.00  0.00     0.175 HD
ATOM     17  H7  LSA d   1       0.021   3.010  83.134  0.00  0.00     0.084 H 
ENDROOT
BRANCH   4  18
ATOM     18  O8  LSA d   1      -0.170   0.202  83.811  0.00  0.00    -0.372 OA
ATOM     19  H6  LSA d   1      -0.760  -0.385  83.354  0.00  0.00     0.212 HD
ENDBRANCH   4  18
TORSDOF 1
