REMARK  6 active torsions:
REMARK  status: ('A' for Active; 'I' for Inactive)
REMARK    1  A    between atoms: C9_6  and  N6_12 
REMARK    2  A    between atoms: C13_8  and  N15_15 
REMARK    3  A    between atoms: C3_9  and  O2_11 
REMARK    4  A    between atoms: O2_11  and  C1_10 
REMARK    5  A    between atoms: N15_15  and  C16_16 
REMARK    6  A    between atoms: N22_22  and  C23_23 
ROOT
ATOM      1  N15 3QS d   1     -54.873   1.940 -23.481  0.00  0.00    -0.326 N 
ATOM      2  H   3QS d   1     -55.245   2.897 -23.562  0.00  0.00     0.169 HD
ENDROOT
BRANCH   1   3
ATOM      3  C13 3QS d   1     -55.076   1.107 -24.571  0.00  0.00     0.133 A 
ATOM      4  C12 3QS d   1     -56.234   1.234 -25.354  0.00  0.00    -0.021 A 
ATOM      5  C11 3QS d   1     -56.387   0.403 -26.460  0.00  0.00     0.009 A 
ATOM      6  H   3QS d   1     -56.994   1.965 -25.102  0.00  0.00     0.091 H 
ATOM      7  N10 3QS d   1     -55.430  -0.475 -26.738  0.00  0.00    -0.231 NA
ATOM      8  H   3QS d   1     -57.271   0.471 -27.083  0.00  0.00     0.115 H 
ATOM      9  C9  3QS d   1     -54.322  -0.582 -25.992  0.00  0.00     0.205 A 
ATOM     10  N14 3QS d   1     -54.164   0.210 -24.930  0.00  0.00    -0.201 NA
BRANCH   9  11
ATOM     11  N6  3QS d   1     -53.331  -1.526 -26.292  0.00  0.00    -0.251 NA
ATOM     12  C5  3QS d   1     -53.067  -1.634 -27.762  0.00  0.00    -0.011 C 
ATOM     13  C4  3QS d   1     -51.850  -2.506 -28.105  0.00  0.00    -0.029 C 
ATOM     14  H   3QS d   1     -53.955  -2.070 -28.244  0.00  0.00     0.056 H 
ATOM     15  H   3QS d   1     -52.894  -0.623 -28.160  0.00  0.00     0.056 H 
ATOM     16  C3  3QS d   1     -50.653  -1.906 -27.352  0.00  0.00     0.040 C 
ATOM     17  H   3QS d   1     -51.664  -2.488 -29.189  0.00  0.00     0.038 H 
ATOM     18  H   3QS d   1     -52.022  -3.542 -27.779  0.00  0.00     0.038 H 
ATOM     19  C8  3QS d   1     -50.832  -2.014 -25.830  0.00  0.00    -0.029 C 
ATOM     20  H   3QS d   1     -50.692  -0.829 -27.571  0.00  0.00     0.083 H 
ATOM     21  C7  3QS d   1     -52.157  -1.378 -25.374  0.00  0.00    -0.011 C 
ATOM     22  H   3QS d   1     -50.828  -3.076 -25.544  0.00  0.00     0.038 H 
ATOM     23  H   3QS d   1     -49.997  -1.497 -25.334  0.00  0.00     0.038 H 
ATOM     24  H   3QS d   1     -51.978  -0.302 -25.234  0.00  0.00     0.056 H 
ATOM     25  H   3QS d   1     -52.429  -1.833 -24.410  0.00  0.00     0.056 H 
BRANCH  16  26
ATOM     26  O2  3QS d   1     -49.362  -2.320 -27.822  0.00  0.00    -0.391 OA
BRANCH  26  27
ATOM     27  C1  3QS d   1     -48.937  -3.688 -27.663  0.00  0.00     0.004 C 
ATOM     28  H   3QS d   1     -47.927  -3.809 -28.082  0.00  0.00     0.066 H 
ATOM     29  H   3QS d   1     -49.636  -4.353 -28.192  0.00  0.00     0.066 H 
ATOM     30  H   3QS d   1     -48.923  -3.946 -26.594  0.00  0.00     0.066 H 
ENDBRANCH  26  27
ENDBRANCH  16  26
ENDBRANCH   9  11
ENDBRANCH   1   3
BRANCH   1  31
ATOM     31  C16 3QS d   1     -54.219   1.627 -22.281  0.00  0.00     0.131 A 
ATOM     32  C17 3QS d   1     -53.206   0.666 -22.194  0.00  0.00    -0.012 A 
ATOM     33  C18 3QS d   1     -52.599   0.412 -20.953  0.00  0.00     0.050 A 
ATOM     34  H   3QS d   1     -52.892   0.122 -23.077  0.00  0.00     0.092 H 
ATOM     35  C19 3QS d   1     -53.018   1.189 -19.836  0.00  0.00     0.010 A 
ATOM     36  N22 3QS d   1     -51.630  -0.453 -20.498  0.00  0.00    -0.351 N 
ATOM     37  C20 3QS d   1     -52.224   0.739 -18.691  0.00  0.00    -0.054 A 
ATOM     38  C28 3QS d   1     -54.004   2.160 -20.021  0.00  0.00     0.017 A 
ATOM     39  C21 3QS d   1     -51.432  -0.239 -19.143  0.00  0.00    -0.019 A 
ATOM     40  H   3QS d   1     -52.269   1.124 -17.673  0.00  0.00     0.087 H 
ATOM     41  H   3QS d   1     -50.725  -0.794 -18.528  0.00  0.00     0.111 H 
ATOM     42  N29 3QS d   1     -54.573   2.332 -21.205  0.00  0.00    -0.242 NA
ATOM     43  H   3QS d   1     -54.308   2.781 -19.186  0.00  0.00     0.116 H 
BRANCH  36  44
ATOM     44  C23 3QS d   1     -50.910  -1.439 -21.338  0.00  0.00     0.017 C 
ATOM     45  C24 3QS d   1     -49.918  -0.726 -22.273  0.00  0.00    -0.046 C 
ATOM     46  C25 3QS d   1     -48.688  -0.461 -21.377  0.00  0.00    -0.063 C 
ATOM     47  H   3QS d   1     -50.341   0.218 -22.646  0.00  0.00     0.036 H 
ATOM     48  H   3QS d   1     -49.651  -1.369 -23.124  0.00  0.00     0.036 H 
ATOM     49  C26 3QS d   1     -48.575  -1.769 -20.554  0.00  0.00    -0.063 C 
ATOM     50  H   3QS d   1     -48.855   0.406 -20.721  0.00  0.00     0.033 H 
ATOM     51  H   3QS d   1     -47.785  -0.295 -21.983  0.00  0.00     0.033 H 
ATOM     52  C27 3QS d   1     -49.996  -2.385 -20.534  0.00  0.00    -0.046 C 
ATOM     53  H   3QS d   1     -48.240  -1.548 -19.530  0.00  0.00     0.033 H 
ATOM     54  H   3QS d   1     -47.865  -2.461 -21.031  0.00  0.00     0.033 H 
ATOM     55  H   3QS d   1     -49.982  -3.382 -20.999  0.00  0.00     0.036 H 
ATOM     56  H   3QS d   1     -50.357  -2.469 -19.498  0.00  0.00     0.036 H 
ATOM     57  H   3QS d   1     -51.647  -2.018 -21.914  0.00  0.00     0.073 H 
ENDBRANCH  36  44
ENDBRANCH   1  31
TORSDOF 6
