REMARK  14 active torsions:
REMARK  status: ('A' for Active; 'I' for Inactive)
REMARK    1  A    between atoms: S02_2  and  C03_3 
REMARK    2  A    between atoms: S02_2  and  N38_38 
REMARK    3  A    between atoms: C06_6  and  N07_7 
REMARK    4  A    between atoms: N07_7  and  C08_8 
REMARK    5  A    between atoms: N07_7  and  C20_20 
REMARK    6  A    between atoms: C08_8  and  C09_9 
REMARK    7  A    between atoms: N11_11  and  C12_12 
REMARK    8  A    between atoms: C20_20  and  C21_21 
REMARK    9  A    between atoms: N23_23  and  C24_24 
REMARK   10  A    between atoms: C25_25  and  O34_34 
REMARK   11  A    between atoms: C26_26  and  O33_33 
REMARK   12  A    between atoms: C27_27  and  O32_32 
REMARK   13  A    between atoms: C28_28  and  C29_29 
REMARK   14  A    between atoms: C29_29  and  O30_30 
ROOT
ATOM      1  N07 3T7 d   1      16.387   5.734  13.455  0.00  0.00    -0.348 N 
ENDROOT
BRANCH   1   2
ATOM      2  C06 3T7 d   1      16.401   4.538  14.272  0.00  0.00     0.183 A 
ATOM      3  N05 3T7 d   1      17.572   3.837  14.539  0.00  0.00    -0.154 NA
ATOM      4  N04 3T7 d   1      17.323   2.682  15.416  0.00  0.00    -0.069 NA
ATOM      5  C03 3T7 d   1      15.956   2.629  15.706  0.00  0.00     0.278 A 
ATOM      6  S37 3T7 d   1      15.086   3.867  15.017  0.00  0.00    -0.040 SA
BRANCH   5   7
ATOM      7  S02 3T7 d   1      15.287   1.335  16.725  0.00  0.00     0.264 S 
ATOM      8  O01 3T7 d   1      15.726   1.520  18.076  0.00  0.00    -0.203 OA
ATOM      9  O39 3T7 d   1      13.867   1.476  16.663  0.00  0.00    -0.203 OA
BRANCH   7  10
ATOM     10  N38 3T7 d   1      15.849  -0.063  16.114  0.00  0.00    -0.326 N 
ATOM     11  H23 3T7 d   1      15.622  -0.326  15.176  0.00  0.00     0.168 HD
ATOM     12  H24 3T7 d   1      16.422  -0.660  16.676  0.00  0.00     0.168 HD
ENDBRANCH   7  10
ENDBRANCH   5   7
ENDBRANCH   1   2
BRANCH   1  13
ATOM     13  C08 3T7 d   1      17.521   6.081  12.596  0.00  0.00     0.040 C 
ATOM     14  H1  3T7 d   1      17.152   6.492  11.644  0.00  0.00     0.074 H 
ATOM     15  H2  3T7 d   1      18.124   5.183  12.399  0.00  0.00     0.074 H 
BRANCH  13  16
ATOM     16  C09 3T7 d   1      18.390   7.145  13.323  0.00  0.00     0.087 A 
ATOM     17  C10 3T7 d   1      18.639   8.461  12.948  0.00  0.00     0.027 A 
ATOM     18  N11 3T7 d   1      19.430   8.997  13.895  0.00  0.00    -0.247 N 
ATOM     19  H3  3T7 d   1      18.265   8.962  12.057  0.00  0.00     0.117 H 
ATOM     20  N18 3T7 d   1      19.674   8.067  14.844  0.00  0.00     0.009 NA
ATOM     21  N19 3T7 d   1      19.028   6.915  14.485  0.00  0.00    -0.161 NA
BRANCH  18  22
ATOM     22  C12 3T7 d   1      19.936  10.321  13.953  0.00  0.00     0.054 A 
ATOM     23  C13 3T7 d   1      21.163  10.561  14.560  0.00  0.00    -0.056 A 
ATOM     24  C14 3T7 d   1      21.652  11.870  14.632  0.00  0.00    -0.081 A 
ATOM     25  H4  3T7 d   1      21.737   9.740  14.975  0.00  0.00     0.087 H 
ATOM     26  C15 3T7 d   1      20.909  12.932  14.105  0.00  0.00    -0.083 A 
ATOM     27  H5  3T7 d   1      22.611  12.062  15.098  0.00  0.00     0.083 H 
ATOM     28  C16 3T7 d   1      19.677  12.685  13.507  0.00  0.00    -0.081 A 
ATOM     29  H6  3T7 d   1      21.292  13.944  14.162  0.00  0.00     0.083 H 
ATOM     30  C17 3T7 d   1      19.190  11.377  13.436  0.00  0.00    -0.056 A 
ATOM     31  H7  3T7 d   1      19.097  13.504  13.098  0.00  0.00     0.083 H 
ATOM     32  H8  3T7 d   1      18.227  11.184  12.976  0.00  0.00     0.087 H 
ENDBRANCH  18  22
ENDBRANCH  13  16
ENDBRANCH   1  13
BRANCH   1  33
ATOM     33  C20 3T7 d   1      15.217   6.578  13.511  0.00  0.00     0.040 C 
ATOM     34  H9  3T7 d   1      15.327   7.307  14.328  0.00  0.00     0.074 H 
ATOM     35  H10 3T7 d   1      14.325   5.960  13.689  0.00  0.00     0.074 H 
BRANCH  33  36
ATOM     36  C21 3T7 d   1      15.070   7.318  12.180  0.00  0.00     0.087 A 
ATOM     37  C22 3T7 d   1      15.629   8.558  11.887  0.00  0.00     0.024 A 
ATOM     38  N23 3T7 d   1      15.309   8.867  10.646  0.00  0.00    -0.252 N 
ATOM     39  H11 3T7 d   1      16.226   9.167  12.564  0.00  0.00     0.117 H 
ATOM     40  N35 3T7 d   1      14.552   7.861  10.111  0.00  0.00     0.007 NA
ATOM     41  N36 3T7 d   1      14.426   6.900  11.077  0.00  0.00    -0.161 NA
BRANCH  38  42
ATOM     42  C24 3T7 d   1      15.701  10.051  10.001  0.00  0.00     0.149 C 
ATOM     43  C25 3T7 d   1      15.355   9.894   8.553  0.00  0.00     0.106 C 
ATOM     44  C26 3T7 d   1      15.146  11.190   7.834  0.00  0.00     0.091 C 
ATOM     45  H13 3T7 d   1      14.418   9.322   8.486  0.00  0.00     0.093 H 
ATOM     46  C27 3T7 d   1      15.644  12.404   8.534  0.00  0.00     0.089 C 
ATOM     47  H14 3T7 d   1      15.686  11.123   6.878  0.00  0.00     0.091 H 
ATOM     48  C28 3T7 d   1      15.259  12.497   9.993  0.00  0.00     0.088 C 
ATOM     49  H15 3T7 d   1      15.226  13.282   8.019  0.00  0.00     0.091 H 
ATOM     50  O31 3T7 d   1      15.013  11.177  10.641  0.00  0.00    -0.352 OA
ATOM     51  H16 3T7 d   1      16.101  12.971  10.519  0.00  0.00     0.090 H 
ATOM     52  H12 3T7 d   1      16.787  10.195  10.100  0.00  0.00     0.124 H 
BRANCH  43  53
ATOM     53  O34 3T7 d   1      16.414   9.129   7.927  0.00  0.00    -0.388 OA
ATOM     54  H22 3T7 d   1      16.180   8.947   7.024  0.00  0.00     0.210 HD
ENDBRANCH  43  53
BRANCH  44  55
ATOM     55  O33 3T7 d   1      13.720  11.344   7.553  0.00  0.00    -0.390 OA
ATOM     56  H21 3T7 d   1      13.248  11.457   8.370  0.00  0.00     0.210 HD
ENDBRANCH  44  55
BRANCH  46  57
ATOM     57  O32 3T7 d   1      17.103  12.446   8.437  0.00  0.00    -0.390 OA
ATOM     58  H20 3T7 d   1      17.360  12.388   7.524  0.00  0.00     0.210 HD
ENDBRANCH  46  57
BRANCH  48  59
ATOM     59  C29 3T7 d   1      14.047  13.367  10.176  0.00  0.00     0.043 C 
ATOM     60  H17 3T7 d   1      14.322  14.412   9.969  0.00  0.00     0.078 H 
ATOM     61  H18 3T7 d   1      13.697  13.279  11.215  0.00  0.00     0.078 H 
BRANCH  59  62
ATOM     62  O30 3T7 d   1      12.994  12.984   9.299  0.00  0.00    -0.398 OA
ATOM     63  H19 3T7 d   1      12.245  13.551   9.439  0.00  0.00     0.209 HD
ENDBRANCH  59  62
ENDBRANCH  48  59
ENDBRANCH  38  42
ENDBRANCH  33  36
ENDBRANCH   1  33
TORSDOF 14
