REMARK  1 active torsions:
REMARK  status: ('A' for Active; 'I' for Inactive)
REMARK    1  A    between atoms: C1_3  and  O1_6 
ROOT
ATOM      1 CL2  T6C d   1     -33.076 -10.911  20.017  0.00  0.00    -0.081 Cl
ATOM      2  C2  T6C d   1     -31.893 -12.183  20.064  0.00  0.00     0.070 A 
ATOM      3  C1  T6C d   1     -30.560 -11.880  20.248  0.00  0.00     0.109 A 
ATOM      4  C6  T6C d   1     -29.638 -12.902  20.328  0.00  0.00     0.070 A 
ATOM      5 CL6  T6C d   1     -27.972 -12.514  20.549  0.00  0.00    -0.081 Cl
ATOM      6  C3  T6C d   1     -32.297 -13.492  19.925  0.00  0.00    -0.038 A 
ATOM      7  C4  T6C d   1     -31.355 -14.489  20.002  0.00  0.00     0.037 A 
ATOM      8 CL4  T6C d   1     -31.902 -16.114  19.872  0.00  0.00    -0.084 Cl
ATOM      9  C5  T6C d   1     -30.023 -14.221  20.209  0.00  0.00    -0.038 A 
ATOM     10  H   T6C d   1     -33.341 -13.732  19.758  0.00  0.00     0.088 H 
ATOM     11  H   T6C d   1     -29.297 -15.023  20.277  0.00  0.00     0.088 H 
ENDROOT
BRANCH   3  12
ATOM     12  O1  T6C d   1     -30.158 -10.540  20.372  0.00  0.00    -0.357 OA
ATOM     13  H   T6C d   1     -29.752 -10.410  21.221  0.00  0.00     0.217 HD
ENDBRANCH   3  12
TORSDOF 1
