REMARK  3 active torsions:
REMARK  status: ('A' for Active; 'I' for Inactive)
REMARK    1  A    between atoms: C09_9  and  N10_10 
REMARK    2  A    between atoms: N10_10  and  S11_11 
REMARK    3  A    between atoms: S11_11  and  C14_14 
ROOT
ATOM      1  S11 R1S d   1      -9.902  17.069  -7.682  0.00  0.00     0.266 S 
ATOM      2  O12 R1S d   1      -8.830  17.452  -8.556  0.00  0.00    -0.200 OA
ATOM      3  O13 R1S d   1      -9.332  17.291  -6.384  0.00  0.00    -0.200 OA
ENDROOT
BRANCH   1   4
ATOM      4  N10 R1S d   1     -11.245  17.917  -7.953  0.00  0.00    -0.258 N 
ATOM      5  H   R1S d   1     -11.637  18.455  -7.207  0.00  0.00     0.181 HD
BRANCH   4   6
ATOM      6  C09 R1S d   1     -11.887  17.923  -9.216  0.00  0.00     0.181 A 
ATOM      7  N08 R1S d   1     -11.377  18.383 -10.417  0.00  0.00    -0.223 NA
ATOM      8  C05 R1S d   1     -12.390  18.247 -11.456  0.00  0.00     0.077 A 
ATOM      9  C04 R1S d   1     -13.604  17.709 -11.047  0.00  0.00     0.039 A 
ATOM     10  C06 R1S d   1     -12.211  18.631 -12.803  0.00  0.00    -0.052 A 
ATOM     11  C03 R1S d   1     -14.645  17.531 -11.941  0.00  0.00    -0.043 A 
ATOM     12  S23 R1S d   1     -13.446  17.374  -9.434  0.00  0.00    -0.049 SA
ATOM     13  C02 R1S d   1     -14.468  17.908 -13.263  0.00  0.00     0.035 A 
ATOM     14  H   R1S d   1     -15.585  17.103 -11.612  0.00  0.00     0.088 H 
ATOM     15 CL1  R1S d   1     -15.817  17.665 -14.327  0.00  0.00    -0.084 Cl
ATOM     16  C07 R1S d   1     -13.256  18.459 -13.701  0.00  0.00    -0.060 A 
ATOM     17  H   R1S d   1     -13.135  18.750 -14.738  0.00  0.00     0.086 H 
ATOM     18  H   R1S d   1     -11.269  19.055 -13.132  0.00  0.00     0.087 H 
ENDBRANCH   4   6
ENDBRANCH   1   4
BRANCH   1  19
ATOM     19  C14 R1S d   1     -10.525  15.439  -7.925  0.00  0.00     0.098 A 
ATOM     20  C15 R1S d   1     -11.657  14.866  -7.268  0.00  0.00    -0.021 A 
ATOM     21  S16 R1S d   1     -11.872  13.331  -7.841  0.00  0.00    -0.100 SA
ATOM     22  H   R1S d   1     -12.274  15.357  -6.517  0.00  0.00     0.097 H 
ATOM     23  C17 R1S d   1     -10.624  13.230  -8.936  0.00  0.00     0.016 A 
ATOM     24  C18 R1S d   1     -10.162  12.235  -9.787  0.00  0.00    -0.066 A 
ATOM     25  C22 R1S d   1      -9.953  14.456  -8.904  0.00  0.00     0.005 A 
ATOM     26  C19 R1S d   1      -9.053  12.506 -10.592  0.00  0.00    -0.082 A 
ATOM     27  H   R1S d   1     -10.651  11.268  -9.826  0.00  0.00     0.085 H 
ATOM     28  C20 R1S d   1      -8.380  13.743 -10.562  0.00  0.00    -0.082 A 
ATOM     29  H   R1S d   1      -8.697  11.735 -11.265  0.00  0.00     0.083 H 
ATOM     30  C21 R1S d   1      -8.834  14.724  -9.716  0.00  0.00    -0.070 A 
ATOM     31  H   R1S d   1      -7.518  13.917 -11.196  0.00  0.00     0.083 H 
ATOM     32  H   R1S d   1      -8.340  15.688  -9.674  0.00  0.00     0.084 H 
ENDBRANCH   1  19
TORSDOF 3
