REMARK  3 active torsions:
REMARK  status: ('A' for Active; 'I' for Inactive)
REMARK    1  A    between atoms: C09_9  and  N10_10 
REMARK    2  A    between atoms: N10_10  and  S11_11 
REMARK    3  A    between atoms: S11_11  and  C14_14 
ROOT
ATOM      1  S11 R2S d   1     -11.283  18.021  -7.470  0.00  0.00     0.271 S 
ATOM      2  O12 R2S d   1     -12.457  18.102  -6.716  0.00  0.00    -0.200 OA
ATOM      3  O13 R2S d   1     -10.289  18.544  -6.632  0.00  0.00    -0.200 OA
ENDROOT
BRANCH   1   4
ATOM      4  N10 R2S d   1     -11.376  18.868  -8.838  0.00  0.00    -0.258 N 
ATOM      5  H   R2S d   1     -10.777  19.658  -8.969  0.00  0.00     0.181 HD
BRANCH   4   6
ATOM      6  C09 R2S d   1     -12.279  18.517  -9.843  0.00  0.00     0.181 A 
ATOM      7  N08 R2S d   1     -12.083  18.903 -11.144  0.00  0.00    -0.223 NA
ATOM      8  C05 R2S d   1     -13.201  18.435 -11.922  0.00  0.00     0.077 A 
ATOM      9  C04 R2S d   1     -14.171  17.717 -11.256  0.00  0.00     0.039 A 
ATOM     10  C06 R2S d   1     -13.298  18.680 -13.296  0.00  0.00    -0.052 A 
ATOM     11  C03 R2S d   1     -15.253  17.227 -11.960  0.00  0.00    -0.043 A 
ATOM     12  S23 R2S d   1     -13.699  17.655  -9.671  0.00  0.00    -0.049 SA
ATOM     13  C02 R2S d   1     -15.344  17.466 -13.321  0.00  0.00     0.035 A 
ATOM     14  H   R2S d   1     -16.025  16.660 -11.452  0.00  0.00     0.088 H 
ATOM     15 CL1  R2S d   1     -16.703  16.839 -14.177  0.00  0.00    -0.084 Cl
ATOM     16  C07 R2S d   1     -14.375  18.194 -13.992  0.00  0.00    -0.060 A 
ATOM     17  H   R2S d   1     -14.467  18.378 -15.056  0.00  0.00     0.086 H 
ATOM     18  H   R2S d   1     -12.529  19.249 -13.806  0.00  0.00     0.087 H 
ENDBRANCH   4   6
ENDBRANCH   1   4
BRANCH   1  19
ATOM     19  C14 R2S d   1     -10.970  16.381  -8.032  0.00  0.00     0.122 A 
ATOM     20  C15 R2S d   1     -10.000  15.945  -8.987  0.00  0.00    -0.042 A 
ATOM     21  C16 R2S d   1     -10.176  14.447  -9.150  0.00  0.00    -0.017 A 
ATOM     22  H   R2S d   1      -9.272  16.570  -9.501  0.00  0.00     0.088 H 
ATOM     23  C17 R2S d   1      -9.425  13.619  -9.987  0.00  0.00    -0.072 A 
ATOM     24  C21 R2S d   1     -11.187  13.896  -8.366  0.00  0.00     0.016 A 
ATOM     25  C18 R2S d   1      -9.712  12.264 -10.013  0.00  0.00    -0.082 A 
ATOM     26  H   R2S d   1      -8.633  14.028 -10.604  0.00  0.00     0.084 H 
ATOM     27  C19 R2S d   1     -10.723  11.699  -9.219  0.00  0.00    -0.082 A 
ATOM     28  H   R2S d   1      -9.137  11.619 -10.668  0.00  0.00     0.083 H 
ATOM     29  C20 R2S d   1     -11.470  12.528  -8.392  0.00  0.00    -0.066 A 
ATOM     30  H   R2S d   1     -10.917  10.633  -9.251  0.00  0.00     0.083 H 
ATOM     31  H   R2S d   1     -12.262  12.119  -7.775  0.00  0.00     0.085 H 
ATOM     32  S22 R2S d   1     -11.854  15.129  -7.509  0.00  0.00    -0.076 SA
ENDBRANCH   1  19
TORSDOF 3
