REMARK  10 active torsions:
REMARK  status: ('A' for Active; 'I' for Inactive)
REMARK    1  A    between atoms: C5'_2  and  O5'_1 
REMARK    2  A    between atoms: C4'_3  and  C5'_2 
REMARK    3  A    between atoms: C1'_5  and  N9_6 
REMARK    4  A    between atoms: C6_11  and  N6_12 
REMARK    5  A    between atoms: C2'_16  and  O2'_17 
REMARK    6  A    between atoms: N8_19  and  C3'_18 
REMARK    7  A    between atoms: CA_21  and  N_20 
REMARK    8  A    between atoms: CA_21  and  CB_22 
REMARK    9  A    between atoms: CA_21  and  C_24 
REMARK   10  A    between atoms: CB_22  and  OG_23 
ROOT
ATOM      1  C4' A3S d   1      14.770  -4.529  -4.739  0.00  0.00     0.083 C 
ATOM      2  O4' A3S d   1      16.029  -4.460  -4.016  0.00  0.00    -0.354 OA
ATOM      3  C1' A3S d   1      15.731  -3.927  -2.691  0.00  0.00     0.139 C 
ATOM      4  C2' A3S d   1      14.221  -4.000  -2.501  0.00  0.00     0.100 C 
ATOM      5  C3' A3S d   1      13.759  -3.732  -3.927  0.00  0.00     0.067 C 
ATOM      6  H4  A3S d   1      14.443  -5.570  -4.877  0.00  0.00     0.090 H 
ATOM      7  H5  A3S d   1      16.150  -4.615  -1.942  0.00  0.00     0.122 H 
ATOM      8  H10 A3S d   1      13.852  -3.242  -1.795  0.00  0.00     0.093 H 
ATOM      9  H12 A3S d   1      13.784  -2.662  -4.180  0.00  0.00     0.080 H 
ENDROOT
BRANCH   5  10
ATOM     10  N8  A3S d   1      12.430  -4.255  -4.093  0.00  0.00    -0.360 N 
ATOM     11  C   A3S d   1      11.376  -3.509  -3.896  0.00  0.00     0.184 C 
ATOM     12  O   A3S d   1      11.466  -2.184  -3.612  0.00  0.00    -0.175 OA
ATOM     13  H13 A3S d   1      12.310  -5.210  -4.365  0.00  0.00     0.162 HD
BRANCH  11  14
ATOM     14  CA  A3S d   1      10.042  -4.195  -4.081  0.00  0.00     0.183 C 
ATOM     15  H17 A3S d   1      10.231  -5.277  -4.136  0.00  0.00     0.100 H 
BRANCH  14  16
ATOM     16  N   A3S d   1       9.094  -3.960  -2.950  0.00  0.00    -0.066 N 
ATOM     17  H14 A3S d   1       8.227  -4.441  -3.132  0.00  0.00     0.275 HD
ATOM     18  H15 A3S d   1       8.917  -2.972  -2.860  0.00  0.00     0.275 HD
ATOM     19  H16 A3S d   1       9.498  -4.308  -2.095  0.00  0.00     0.275 HD
ENDBRANCH  14  16
BRANCH  14  20
ATOM     20  CB  A3S d   1       9.397  -3.748  -5.418  0.00  0.00     0.050 C 
ATOM     21  H18 A3S d   1      10.158  -3.745  -6.212  0.00  0.00     0.077 H 
ATOM     22  H19 A3S d   1       8.979  -2.736  -5.307  0.00  0.00     0.077 H 
BRANCH  20  23
ATOM     23  OG  A3S d   1       8.333  -4.681  -5.763  0.00  0.00    -0.398 OA
ATOM     24  H20 A3S d   1       7.679  -4.682  -5.074  0.00  0.00     0.209 HD
ENDBRANCH  20  23
ENDBRANCH  14  20
ENDBRANCH  11  14
ENDBRANCH   5  10
BRANCH   1  25
ATOM     25  C5' A3S d   1      14.951  -3.842  -6.055  0.00  0.00     0.043 C 
ATOM     26  H2  A3S d   1      15.749  -4.342  -6.623  0.00  0.00     0.078 H 
ATOM     27  H3  A3S d   1      14.011  -3.887  -6.625  0.00  0.00     0.078 H 
BRANCH  25  28
ATOM     28  O5' A3S d   1      15.309  -2.473  -5.832  0.00  0.00    -0.398 OA
ATOM     29  H1  A3S d   1      15.424  -2.037  -6.668  0.00  0.00     0.209 HD
ENDBRANCH  25  28
ENDBRANCH   1  25
BRANCH   4  30
ATOM     30  O2' A3S d   1      13.833  -5.299  -2.072  0.00  0.00    -0.389 OA
ATOM     31  H11 A3S d   1      12.890  -5.325  -1.959  0.00  0.00     0.210 HD
ENDBRANCH   4  30
BRANCH   3  32
ATOM     32  N9  A3S d   1      16.516  -2.630  -2.522  0.00  0.00    -0.294 N 
ATOM     33  C4  A3S d   1      16.374  -1.793  -1.492  0.00  0.00     0.167 A 
ATOM     34  N3  A3S d   1      15.547  -1.814  -0.437  0.00  0.00    -0.222 NA
ATOM     35  C5  A3S d   1      17.315  -0.793  -1.649  0.00  0.00     0.149 A 
ATOM     36  C2  A3S d   1      15.634  -0.838   0.474  0.00  0.00     0.091 A 
ATOM     37  N1  A3S d   1      16.537   0.120   0.350  0.00  0.00    -0.222 NA
ATOM     38  H6  A3S d   1      14.958  -0.833   1.321  0.00  0.00     0.146 H 
ATOM     39  C6  A3S d   1      17.392   0.208  -0.690  0.00  0.00     0.155 A 
ATOM     40  N7  A3S d   1      17.969  -1.029  -2.794  0.00  0.00    -0.236 NA
ATOM     41  C8  A3S d   1      17.502  -2.169  -3.327  0.00  0.00     0.071 A 
ATOM     42  H9  A3S d   1      17.854  -2.639  -4.244  0.00  0.00     0.144 H 
BRANCH  39  43
ATOM     43  N6  A3S d   1      18.280   1.209  -0.787  0.00  0.00    -0.382 N 
ATOM     44  H7  A3S d   1      18.921   1.252  -1.592  0.00  0.00     0.157 HD
ATOM     45  H8  A3S d   1      18.320   1.934  -0.057  0.00  0.00     0.157 HD
ENDBRANCH  39  43
ENDBRANCH   3  32
TORSDOF 10
