REMARK  11 active torsions:
REMARK  status: ('A' for Active; 'I' for Inactive)
REMARK    1  A    between atoms: C_1  and  CA_15 
REMARK    2  A    between atoms: CA_15  and  N_2 
REMARK    3  A    between atoms: C6_9  and  N6_10 
REMARK    4  A    between atoms: C3'_21  and  N8_13 
REMARK    5  A    between atoms: C1'_18  and  N9_14 
REMARK    6  A    between atoms: CA_15  and  CB_16 
REMARK    7  A    between atoms: CB_16  and  OG_17 
REMARK    8  A    between atoms: CB_16  and  CG2_26 
REMARK    9  A    between atoms: C2'_19  and  O2'_20 
REMARK   10  A    between atoms: C4'_22  and  C5'_24 
REMARK   11  A    between atoms: C5'_24  and  O5'_25 
ROOT
ATOM      1  C1' A3T d   1      16.358  -3.726  -2.607  0.00  0.00     0.139 C 
ATOM      2  C2' A3T d   1      14.862  -3.802  -2.435  0.00  0.00     0.100 C 
ATOM      3  C3' A3T d   1      14.416  -3.386  -3.809  0.00  0.00     0.067 C 
ATOM      4  C4' A3T d   1      15.457  -3.949  -4.756  0.00  0.00     0.083 C 
ATOM      5  O4' A3T d   1      16.644  -4.197  -3.925  0.00  0.00    -0.354 OA
ATOM      6  H12 A3T d   1      16.771  -4.456  -1.895  0.00  0.00     0.122 H 
ATOM      7  H13 A3T d   1      14.506  -3.092  -1.674  0.00  0.00     0.093 H 
ATOM      8  H15 A3T d   1      14.368  -2.291  -3.901  0.00  0.00     0.080 H 
ATOM      9  H16 A3T d   1      15.118  -4.866  -5.261  0.00  0.00     0.090 H 
ENDROOT
BRANCH   3  10
ATOM     10  N8  A3T d   1      13.103  -3.959  -4.029  0.00  0.00    -0.360 N 
ATOM     11  C   A3T d   1      11.997  -3.181  -3.883  0.00  0.00     0.185 C 
ATOM     12  O   A3T d   1      11.982  -1.844  -3.544  0.00  0.00    -0.175 OA
ATOM     13  H8  A3T d   1      13.011  -4.921  -4.287  0.00  0.00     0.162 HD
BRANCH  11  14
ATOM     14  CA  A3T d   1      10.635  -3.860  -4.092  0.00  0.00     0.187 C 
ATOM     15  H9  A3T d   1      10.801  -4.943  -4.192  0.00  0.00     0.101 H 
BRANCH  14  16
ATOM     16  N   A3T d   1       9.825  -3.625  -2.840  0.00  0.00    -0.065 N 
ATOM     17  H1  A3T d   1      10.341  -3.954  -2.039  0.00  0.00     0.275 HD
ATOM     18  H2  A3T d   1       8.952  -4.125  -2.906  0.00  0.00     0.275 HD
ATOM     19  H3  A3T d   1       9.641  -2.639  -2.739  0.00  0.00     0.275 HD
ENDBRANCH  14  16
BRANCH  14  20
ATOM     20  CB  A3T d   1       9.921  -3.381  -5.406  0.00  0.00     0.067 C 
ATOM     21  H10 A3T d   1       9.247  -2.555  -5.133  0.00  0.00     0.086 H 
BRANCH  20  22
ATOM     22  OG  A3T d   1       9.104  -4.468  -5.976  0.00  0.00    -0.393 OA
ATOM     23  H11 A3T d   1       8.680  -4.162  -6.769  0.00  0.00     0.210 HD
ENDBRANCH  20  22
BRANCH  20  24
ATOM     24  CG2 A3T d   1      10.912  -2.844  -6.475  0.00  0.00    -0.050 C 
ATOM     25  H20 A3T d   1      10.352  -2.526  -7.367  0.00  0.00     0.031 H 
ATOM     26  H21 A3T d   1      11.620  -3.639  -6.751  0.00  0.00     0.031 H 
ATOM     27  H22 A3T d   1      11.465  -1.987  -6.064  0.00  0.00     0.031 H 
ENDBRANCH  20  24
ENDBRANCH  14  20
ENDBRANCH  11  14
ENDBRANCH   3  10
BRANCH   2  28
ATOM     28  O2' A3T d   1      14.426  -5.198  -2.043  0.00  0.00    -0.389 OA
ATOM     29  H14 A3T d   1      13.482  -5.217  -1.942  0.00  0.00     0.210 HD
ENDBRANCH   2  28
BRANCH   4  30
ATOM     30  C5' A3T d   1      15.734  -2.823  -5.759  0.00  0.00     0.043 C 
ATOM     31  H17 A3T d   1      15.608  -1.845  -5.272  0.00  0.00     0.078 H 
ATOM     32  H18 A3T d   1      15.043  -2.900  -6.612  0.00  0.00     0.078 H 
BRANCH  30  33
ATOM     33  O5' A3T d   1      17.078  -2.977  -6.204  0.00  0.00    -0.398 OA
ATOM     34  H19 A3T d   1      17.666  -2.915  -5.460  0.00  0.00     0.209 HD
ENDBRANCH  30  33
ENDBRANCH   4  30
BRANCH   1  35
ATOM     35  N9  A3T d   1      17.128  -2.431  -2.327  0.00  0.00    -0.294 N 
ATOM     36  C4  A3T d   1      16.999  -1.557  -1.306  0.00  0.00     0.167 A 
ATOM     37  N3  A3T d   1      16.076  -1.570  -0.297  0.00  0.00    -0.222 NA
ATOM     38  C5  A3T d   1      17.945  -0.590  -1.406  0.00  0.00     0.149 A 
ATOM     39  C2  A3T d   1      16.168  -0.510   0.650  0.00  0.00     0.091 A 
ATOM     40  N1  A3T d   1      17.153   0.462   0.510  0.00  0.00    -0.222 NA
ATOM     41  H4  A3T d   1      15.471  -0.461   1.479  0.00  0.00     0.146 H 
ATOM     42  C6  A3T d   1      18.013   0.433  -0.498  0.00  0.00     0.155 A 
ATOM     43  N7  A3T d   1      18.678  -0.892  -2.491  0.00  0.00    -0.236 NA
ATOM     44  C8  A3T d   1      18.183  -2.007  -3.053  0.00  0.00     0.071 A 
ATOM     45  H7  A3T d   1      18.570  -2.490  -3.949  0.00  0.00     0.144 H 
BRANCH  42  46
ATOM     46  N6  A3T d   1      18.942   1.381  -0.555  0.00  0.00    -0.382 N 
ATOM     47  H5  A3T d   1      19.625   1.387  -1.326  0.00  0.00     0.157 HD
ATOM     48  H6  A3T d   1      18.979   2.110   0.172  0.00  0.00     0.157 HD
ENDBRANCH  42  46
ENDBRANCH   1  35
TORSDOF 11
