REMARK  10 active torsions:
REMARK  status: ('A' for Active; 'I' for Inactive)
REMARK    1  A    between atoms: C5'_2  and  O5'_1 
REMARK    2  A    between atoms: C4'_3  and  C5'_2 
REMARK    3  A    between atoms: C1'_5  and  N9_6 
REMARK    4  A    between atoms: C6_11  and  N6_12 
REMARK    5  A    between atoms: C2'_16  and  O2'_17 
REMARK    6  A    between atoms: N8_19  and  C3'_18 
REMARK    7  A    between atoms: CA_21  and  N_20 
REMARK    8  A    between atoms: CA_21  and  CB_22 
REMARK    9  A    between atoms: CA_21  and  C_24 
REMARK   10  A    between atoms: CB_22  and  OG_23 
ROOT
ATOM      1  C4' A3S d   1       9.799  -4.324   6.782  0.00  0.00     0.083 C 
ATOM      2  O4' A3S d   1       9.159  -3.363   6.049  0.00  0.00    -0.354 OA
ATOM      3  C1' A3S d   1      10.181  -2.578   5.350  0.00  0.00     0.139 C 
ATOM      4  C2' A3S d   1      11.500  -3.243   5.518  0.00  0.00     0.100 C 
ATOM      5  C3' A3S d   1      11.259  -3.812   6.945  0.00  0.00     0.067 C 
ATOM      6  H4  A3S d   1       9.763  -5.325   6.326  0.00  0.00     0.090 H 
ATOM      7  H5  A3S d   1       9.964  -2.645   4.274  0.00  0.00     0.122 H 
ATOM      8  H10 A3S d   1      12.355  -2.552   5.481  0.00  0.00     0.093 H 
ATOM      9  H12 A3S d   1      11.372  -3.065   7.744  0.00  0.00     0.080 H 
ENDROOT
BRANCH   5  10
ATOM     10  N8  A3S d   1      12.152  -4.936   7.133  0.00  0.00    -0.360 N 
ATOM     11  C   A3S d   1      13.421  -4.777   7.479  0.00  0.00     0.184 C 
ATOM     12  O   A3S d   1      13.967  -3.554   7.700  0.00  0.00    -0.175 OA
ATOM     13  H13 A3S d   1      11.800  -5.862   6.997  0.00  0.00     0.162 HD
BRANCH  11  14
ATOM     14  CA  A3S d   1      14.320  -6.033   7.493  0.00  0.00     0.183 C 
ATOM     15  H17 A3S d   1      14.233  -6.537   6.519  0.00  0.00     0.100 H 
BRANCH  14  16
ATOM     16  N   A3S d   1      15.733  -5.650   7.729  0.00  0.00    -0.066 N 
ATOM     17  H14 A3S d   1      16.309  -6.477   7.736  0.00  0.00     0.275 HD
ATOM     18  H15 A3S d   1      15.810  -5.180   8.617  0.00  0.00     0.275 HD
ATOM     19  H16 A3S d   1      16.041  -5.032   6.994  0.00  0.00     0.275 HD
ENDBRANCH  14  16
BRANCH  14  20
ATOM     20  CB  A3S d   1      13.924  -7.019   8.612  0.00  0.00     0.050 C 
ATOM     21  H18 A3S d   1      12.850  -7.251   8.557  0.00  0.00     0.077 H 
ATOM     22  H19 A3S d   1      14.156  -6.593   9.599  0.00  0.00     0.077 H 
BRANCH  20  23
ATOM     23  OG  A3S d   1      14.706  -8.203   8.380  0.00  0.00    -0.398 OA
ATOM     24  H20 A3S d   1      15.630  -7.984   8.422  0.00  0.00     0.209 HD
ENDBRANCH  20  23
ENDBRANCH  14  20
ENDBRANCH  11  14
ENDBRANCH   5  10
BRANCH   1  25
ATOM     25  C5' A3S d   1       9.074  -4.261   8.079  0.00  0.00     0.043 C 
ATOM     26  H2  A3S d   1       8.028  -4.565   7.927  0.00  0.00     0.078 H 
ATOM     27  H3  A3S d   1       9.553  -4.942   8.798  0.00  0.00     0.078 H 
BRANCH  25  28
ATOM     28  O5' A3S d   1       9.111  -2.926   8.592  0.00  0.00    -0.398 OA
ATOM     29  H1  A3S d   1       8.697  -2.338   7.971  0.00  0.00     0.209 HD
ENDBRANCH  25  28
ENDBRANCH   1  25
BRANCH   4  30
ATOM     30  O2' A3S d   1      11.618  -4.245   4.488  0.00  0.00    -0.389 OA
ATOM     31  H11 A3S d   1      12.455  -4.687   4.572  0.00  0.00     0.210 HD
ENDBRANCH   4  30
BRANCH   3  32
ATOM     32  N9  A3S d   1      10.010  -1.143   5.686  0.00  0.00    -0.294 N 
ATOM     33  C4  A3S d   1      10.833  -0.159   5.375  0.00  0.00     0.167 A 
ATOM     34  N3  A3S d   1      12.123  -0.113   4.927  0.00  0.00    -0.222 NA
ATOM     35  C5  A3S d   1      10.177   1.026   5.687  0.00  0.00     0.149 A 
ATOM     36  C2  A3S d   1      12.715   1.086   4.733  0.00  0.00     0.091 A 
ATOM     37  N1  A3S d   1      12.140   2.263   5.009  0.00  0.00    -0.222 NA
ATOM     38  H6  A3S d   1      13.720   1.095   4.328  0.00  0.00     0.146 H 
ATOM     39  C6  A3S d   1      10.835   2.239   5.455  0.00  0.00     0.155 A 
ATOM     40  N7  A3S d   1       8.882   0.695   6.111  0.00  0.00    -0.236 NA
ATOM     41  C8  A3S d   1       8.785  -0.646   6.078  0.00  0.00     0.071 A 
ATOM     42  H9  A3S d   1       7.899  -1.233   6.317  0.00  0.00     0.144 H 
BRANCH  39  43
ATOM     43  N6  A3S d   1      10.241   3.407   5.717  0.00  0.00    -0.382 N 
ATOM     44  H7  A3S d   1       9.267   3.426   6.052  0.00  0.00     0.157 HD
ATOM     45  H8  A3S d   1      10.757   4.288   5.584  0.00  0.00     0.157 HD
ENDBRANCH  39  43
ENDBRANCH   3  32
TORSDOF 10
