REMARK  11 active torsions:
REMARK  status: ('A' for Active; 'I' for Inactive)
REMARK    1  A    between atoms: C_1  and  CA_15 
REMARK    2  A    between atoms: CA_15  and  N_2 
REMARK    3  A    between atoms: C6_9  and  N6_10 
REMARK    4  A    between atoms: C3'_21  and  N8_13 
REMARK    5  A    between atoms: C1'_18  and  N9_14 
REMARK    6  A    between atoms: CA_15  and  CB_16 
REMARK    7  A    between atoms: CB_16  and  OG_17 
REMARK    8  A    between atoms: CB_16  and  CG2_26 
REMARK    9  A    between atoms: C2'_19  and  O2'_20 
REMARK   10  A    between atoms: C4'_22  and  C5'_24 
REMARK   11  A    between atoms: C5'_24  and  O5'_25 
ROOT
ATOM      1  C1' A3T d   1      -4.624   8.334  45.094  0.00  0.00     0.139 C 
ATOM      2  C2' A3T d   1      -3.397   8.018  44.243  0.00  0.00     0.100 C 
ATOM      3  C3' A3T d   1      -3.978   8.058  42.839  0.00  0.00     0.067 C 
ATOM      4  C4' A3T d   1      -5.052   9.158  42.920  0.00  0.00     0.083 C 
ATOM      5  O4' A3T d   1      -5.527   9.158  44.288  0.00  0.00    -0.354 OA
ATOM      6  H12 A3T d   1      -4.288   8.941  45.948  0.00  0.00     0.122 H 
ATOM      7  H13 A3T d   1      -2.966   7.033  44.476  0.00  0.00     0.093 H 
ATOM      8  H15 A3T d   1      -4.418   7.089  42.561  0.00  0.00     0.080 H 
ATOM      9  H16 A3T d   1      -4.609  10.132  42.664  0.00  0.00     0.090 H 
ENDROOT
BRANCH   3  10
ATOM     10  N8  A3T d   1      -2.942   8.438  41.868  0.00  0.00    -0.360 N 
ATOM     11  C   A3T d   1      -1.972   7.612  41.479  0.00  0.00     0.185 C 
ATOM     12  O   A3T d   1      -1.780   6.341  41.931  0.00  0.00    -0.175 OA
ATOM     13  H8  A3T d   1      -2.966   9.360  41.481  0.00  0.00     0.162 HD
BRANCH  11  14
ATOM     14  CA  A3T d   1      -0.995   8.153  40.447  0.00  0.00     0.187 C 
ATOM     15  H9  A3T d   1      -1.071   9.250  40.416  0.00  0.00     0.101 H 
BRANCH  14  16
ATOM     16  N   A3T d   1       0.364   7.771  40.843  0.00  0.00    -0.065 N 
ATOM     17  H1  A3T d   1       0.565   8.144  41.758  0.00  0.00     0.275 HD
ATOM     18  H2  A3T d   1       1.024   8.141  40.177  0.00  0.00     0.275 HD
ATOM     19  H3  A3T d   1       0.437   6.766  40.866  0.00  0.00     0.275 HD
ENDBRANCH  14  16
BRANCH  14  20
ATOM     20  CB  A3T d   1      -1.313   7.593  39.059  0.00  0.00     0.067 C 
ATOM     21  H10 A3T d   1      -1.075   6.519  39.045  0.00  0.00     0.086 H 
BRANCH  20  22
ATOM     22  OG  A3T d   1      -0.480   8.279  38.135  0.00  0.00    -0.393 OA
ATOM     23  H11 A3T d   1       0.431   8.128  38.358  0.00  0.00     0.210 HD
ENDBRANCH  20  22
BRANCH  20  24
ATOM     24  CG2 A3T d   1      -2.785   7.768  38.652  0.00  0.00    -0.050 C 
ATOM     25  H20 A3T d   1      -2.941   7.345  37.649  0.00  0.00     0.031 H 
ATOM     26  H21 A3T d   1      -3.038   8.838  38.642  0.00  0.00     0.031 H 
ATOM     27  H22 A3T d   1      -3.430   7.246  39.374  0.00  0.00     0.031 H 
ENDBRANCH  20  24
ENDBRANCH  14  20
ENDBRANCH  11  14
ENDBRANCH   3  10
BRANCH   2  28
ATOM     28  O2' A3T d   1      -2.427   9.046  44.451  0.00  0.00    -0.389 OA
ATOM     29  H14 A3T d   1      -1.656   8.863  43.927  0.00  0.00     0.210 HD
ENDBRANCH   2  28
BRANCH   4  30
ATOM     30  C5' A3T d   1      -6.248   8.878  41.987  0.00  0.00     0.043 C 
ATOM     31  H17 A3T d   1      -5.910   8.912  40.941  0.00  0.00     0.078 H 
ATOM     32  H18 A3T d   1      -7.022   9.643  42.147  0.00  0.00     0.078 H 
BRANCH  30  33
ATOM     33  O5' A3T d   1      -6.795   7.582  42.268  0.00  0.00    -0.398 OA
ATOM     34  H19 A3T d   1      -7.088   7.552  43.171  0.00  0.00     0.209 HD
ENDBRANCH  30  33
ENDBRANCH   4  30
BRANCH   1  35
ATOM     35  N9  A3T d   1      -5.296   7.127  45.667  0.00  0.00    -0.294 N 
ATOM     36  C4  A3T d   1      -4.687   6.107  46.281  0.00  0.00     0.167 A 
ATOM     37  N3  A3T d   1      -3.395   5.809  46.548  0.00  0.00    -0.222 NA
ATOM     38  C5  A3T d   1      -5.685   5.234  46.689  0.00  0.00     0.149 A 
ATOM     39  C2  A3T d   1      -3.061   4.684  47.189  0.00  0.00     0.091 A 
ATOM     40  N1  A3T d   1      -4.000   3.828  47.590  0.00  0.00    -0.222 NA
ATOM     41  H4  A3T d   1      -2.017   4.466  47.384  0.00  0.00     0.146 H 
ATOM     42  C6  A3T d   1      -5.312   4.071  47.358  0.00  0.00     0.155 A 
ATOM     43  N7  A3T d   1      -6.859   5.752  46.308  0.00  0.00    -0.236 NA
ATOM     44  C8  A3T d   1      -6.618   6.910  45.694  0.00  0.00     0.071 A 
ATOM     45  H7  A3T d   1      -7.375   7.574  45.280  0.00  0.00     0.144 H 
BRANCH  42  46
ATOM     46  N6  A3T d   1      -6.253   3.214  47.761  0.00  0.00    -0.382 N 
ATOM     47  H5  A3T d   1      -7.246   3.415  47.576  0.00  0.00     0.157 HD
ATOM     48  H6  A3T d   1      -5.986   2.352  48.257  0.00  0.00     0.157 HD
ENDBRANCH  42  46
ENDBRANCH   1  35
TORSDOF 11
