REMARK  6 active torsions:
REMARK  status: ('A' for Active; 'I' for Inactive)
REMARK    1  A    between atoms: N1_1  and  C1'_21 
REMARK    2  A    between atoms: O3'_18  and  P_9 
REMARK    3  A    between atoms: C5'_14  and  O5'_13 
REMARK    4  A    between atoms: C4'_15  and  C5'_14 
REMARK    5  A    between atoms: C3'_17  and  O3'_18 
REMARK    6  A    between atoms: C2'_19  and  O2'_20 
ROOT
ATOM      1  C4' U3P d   1     -19.013  43.595  27.075  0.00  0.00     0.089 C 
ATOM      2  O4' U3P d   1     -18.956  42.255  27.655  0.00  0.00    -0.353 OA
ATOM      3  C3' U3P d   1     -17.648  43.780  26.407  0.00  0.00     0.107 C 
ATOM      4  C2' U3P d   1     -16.695  42.920  27.249  0.00  0.00     0.106 C 
ATOM      5  C1' U3P d   1     -17.608  41.807  27.731  0.00  0.00     0.141 C 
ATOM      6  H7  U3P d   1     -19.142  44.344  27.870  0.00  0.00     0.090 H 
ATOM      7  H8  U3P d   1     -17.664  43.437  25.362  0.00  0.00     0.092 H 
ATOM      8  H9  U3P d   1     -15.855  42.545  26.645  0.00  0.00     0.093 H 
ATOM      9  H11 U3P d   1     -17.361  41.603  28.783  0.00  0.00     0.123 H 
ENDROOT
BRANCH   5  10
ATOM     10  N1  U3P d   1     -17.478  40.551  26.994  0.00  0.00    -0.280 N 
ATOM     11  C6  U3P d   1     -18.440  40.246  26.059  0.00  0.00    -0.008 A 
ATOM     12  C5  U3P d   1     -18.428  39.083  25.380  0.00  0.00    -0.002 A 
ATOM     13  H3  U3P d   1     -19.234  40.965  25.862  0.00  0.00     0.112 H 
ATOM     14  C4  U3P d   1     -17.388  38.109  25.633  0.00  0.00     0.250 A 
ATOM     15  H2  U3P d   1     -19.201  38.876  24.641  0.00  0.00     0.094 H 
ATOM     16  N3  U3P d   1     -16.488  38.479  26.618  0.00  0.00    -0.275 N 
ATOM     17  O4  U3P d   1     -17.260  37.022  25.057  0.00  0.00    -0.268 OA
ATOM     18  C2  U3P d   1     -16.466  39.667  27.305  0.00  0.00     0.331 A 
ATOM     19  H1  U3P d   1     -15.781  37.812  26.853  0.00  0.00     0.173 HD
ATOM     20  O2  U3P d   1     -15.616  39.894  28.138  0.00  0.00    -0.246 OA
ENDBRANCH   5  10
BRANCH   4  21
ATOM     21  O2' U3P d   1     -16.211  43.596  28.406  0.00  0.00    -0.388 OA
ATOM     22  H10 U3P d   1     -15.739  44.376  28.141  0.00  0.00     0.210 HD
ENDBRANCH   4  21
BRANCH   3  23
ATOM     23  O3' U3P d   1     -17.288  45.161  26.459  0.00  0.00    -0.272 OA
BRANCH  23  24
ATOM     24  P   U3P d   1     -15.883  45.662  25.882  0.00  0.00     0.422 P 
ATOM     25  O3P U3P d   1     -16.066  47.129  25.742  0.00  0.00    -0.617 OA
ATOM     26  O2P U3P d   1     -14.821  45.280  26.837  0.00  0.00    -0.617 OA
ATOM     27  O1P U3P d   1     -15.657  44.948  24.601  0.00  0.00    -0.617 OA
ENDBRANCH  23  24
ENDBRANCH   3  23
BRANCH   1  28
ATOM     28  C5' U3P d   1     -20.182  43.731  26.089  0.00  0.00     0.043 C 
ATOM     29  H5  U3P d   1     -20.016  43.034  25.254  0.00  0.00     0.078 H 
ATOM     30  H6  U3P d   1     -20.198  44.763  25.708  0.00  0.00     0.078 H 
BRANCH  28  31
ATOM     31  O5' U3P d   1     -21.453  43.444  26.672  0.00  0.00    -0.398 OA
ATOM     32  H4  U3P d   1     -21.456  42.552  26.998  0.00  0.00     0.209 HD
ENDBRANCH  28  31
ENDBRANCH   1  28
TORSDOF 6
