REMARK  5 active torsions:
REMARK  status: ('A' for Active; 'I' for Inactive)
REMARK    1  A    between atoms: CAM_1  and  CAL_2 
REMARK    2  A    between atoms: CAL_2  and  OAH_3 
REMARK    3  A    between atoms: OAH_3  and  CAD_4 
REMARK    4  A    between atoms: CAA_7  and  SAG_8 
REMARK    5  A    between atoms: SAG_8  and  NAK_11 
ROOT
ATOM      1  CAD 3W8 d   1      -4.293   4.708  14.495  0.00  0.00     0.068 A 
ATOM      2  CAC 3W8 d   1      -5.738   4.656  14.894  0.00  0.00    -0.049 A 
ATOM      3  CAB 3W8 d   1      -6.232   3.587  15.553  0.00  0.00    -0.058 A 
ATOM      4  CAA 3W8 d   1      -5.311   2.444  15.874  0.00  0.00     0.079 A 
ATOM      5  CAF 3W8 d   1      -4.004   2.484  15.524  0.00  0.00    -0.058 A 
ATOM      6  CAE 3W8 d   1      -3.467   3.674  14.783  0.00  0.00    -0.049 A 
ATOM      7  H6  3W8 d   1      -6.392   5.486  14.650  0.00  0.00     0.087 H 
ATOM      8  H7  3W8 d   1      -7.275   3.554  15.846  0.00  0.00     0.086 H 
ATOM      9  H10 3W8 d   1      -3.347   1.660  15.778  0.00  0.00     0.086 H 
ATOM     10  H11 3W8 d   1      -2.426   3.705  14.481  0.00  0.00     0.087 H 
ENDROOT
BRANCH   1  11
ATOM     11  OAH 3W8 d   1      -3.834   5.846  13.813  0.00  0.00    -0.352 OA
BRANCH  11  12
ATOM     12  CAL 3W8 d   1      -2.460   5.862  13.508  0.00  0.00     0.023 C 
ATOM     13  H4  3W8 d   1      -1.868   5.661  14.413  0.00  0.00     0.074 H 
ATOM     14  H5  3W8 d   1      -2.232   5.103  12.745  0.00  0.00     0.074 H 
BRANCH  12  15
ATOM     15  CAM 3W8 d   1      -2.151   7.242  12.979  0.00  0.00    -0.056 C 
ATOM     16  H1  3W8 d   1      -1.083   7.306  12.725  0.00  0.00     0.030 H 
ATOM     17  H2  3W8 d   1      -2.391   7.992  13.748  0.00  0.00     0.030 H 
ATOM     18  H3  3W8 d   1      -2.754   7.434  12.079  0.00  0.00     0.030 H 
ENDBRANCH  12  15
ENDBRANCH  11  12
ENDBRANCH   1  11
BRANCH   4  19
ATOM     19  SAG 3W8 d   1      -5.947   1.069  16.757  0.00  0.00     0.256 S 
ATOM     20  OAI 3W8 d   1      -5.442   1.168  18.110  0.00  0.00    -0.201 OA
ATOM     21  OAJ 3W8 d   1      -7.380   1.112  16.814  0.00  0.00    -0.201 OA
BRANCH  19  22
ATOM     22  NAK 3W8 d   1      -5.403  -0.288  16.038  0.00  0.00    -0.324 N 
ATOM     23  H8  3W8 d   1      -5.661  -1.184  16.401  0.00  0.00     0.169 HD
ATOM     24  H9  3W8 d   1      -4.811  -0.225  15.234  0.00  0.00     0.169 HD
ENDBRANCH  19  22
ENDBRANCH   4  19
TORSDOF 5
