REMARK  12 active torsions:
REMARK  status: ('A' for Active; 'I' for Inactive)
REMARK    1  A    between atoms: C1_4  and  C_1 
REMARK    2  A    between atoms: C6_15  and  N_2 
REMARK    3  A    between atoms: C22_31  and  O1_6 
REMARK    4  A    between atoms: O1_6  and  C24_33 
REMARK       I    between atoms: N2_8  and  C12_21 
REMARK    5  A    between atoms: C13_22  and  N2_8 
REMARK    6  A    between atoms: C20_29  and  O2_9 
REMARK    7  A    between atoms: O2_9  and  C25_34 
REMARK    8  A    between atoms: C4_12  and  C5_14 
REMARK    9  A    between atoms: C12_21  and  C9_18 
REMARK   10  A    between atoms: C16_25  and  C15_24 
REMARK   11  A    between atoms: C17_26  and  C16_25 
REMARK   12  A    between atoms: C18_27  and  C17_26 
ROOT
ATOM      1  O   66T d   1     -19.884  -8.092  13.413  0.00  0.00    -0.267 OA
ATOM      2  N2  66T d   1     -19.378  -6.119  14.415  0.00  0.00    -0.306 N 
ATOM      3  C12 66T d   1     -20.225  -7.129  14.072  0.00  0.00     0.257 C 
ATOM      4  H9  66T d   1     -19.767  -5.380  14.966  0.00  0.00     0.170 HD
ENDROOT
BRANCH   2   5
ATOM      5  C13 66T d   1     -18.056  -6.002  14.091  0.00  0.00     0.152 A 
ATOM      6  N4  66T d   1     -17.357  -4.958  14.528  0.00  0.00    -0.156 NA
ATOM      7  N3  66T d   1     -16.136  -5.019  14.110  0.00  0.00    -0.280 N 
ATOM      8  C15 66T d   1     -16.061  -6.157  13.369  0.00  0.00     0.032 A 
ATOM      9  H12 66T d   1     -15.379  -4.347  14.298  0.00  0.00     0.189 HD
ATOM     10  C14 66T d   1     -17.257  -6.767  13.358  0.00  0.00    -0.014 A 
ATOM     11  H21 66T d   1     -17.517  -7.696  12.853  0.00  0.00     0.092 H 
BRANCH   8  12
ATOM     12  C16 66T d   1     -14.756  -6.530  12.728  0.00  0.00    -0.021 C 
ATOM     13  H22 66T d   1     -14.181  -7.140  13.440  0.00  0.00     0.042 H 
ATOM     14  H23 66T d   1     -14.202  -5.606  12.506  0.00  0.00     0.042 H 
BRANCH  12  15
ATOM     15  C17 66T d   1     -14.909  -7.313  11.445  0.00  0.00    -0.036 C 
ATOM     16  H24 66T d   1     -15.745  -6.910  10.855  0.00  0.00     0.040 H 
ATOM     17  H25 66T d   1     -15.097  -8.373  11.671  0.00  0.00     0.040 H 
BRANCH  15  18
ATOM     18  C18 66T d   1     -13.616  -7.170  10.674  0.00  0.00    -0.052 A 
ATOM     19  C19 66T d   1     -12.505  -7.918  11.051  0.00  0.00    -0.045 A 
ATOM     20  C20 66T d   1     -11.307  -7.805  10.359  0.00  0.00     0.071 A 
ATOM     21  H26 66T d   1     -12.576  -8.596  11.894  0.00  0.00     0.088 H 
ATOM     22  C21 66T d   1     -11.212  -6.932   9.272  0.00  0.00    -0.019 A 
ATOM     23  C22 66T d   1     -12.319  -6.192   8.900  0.00  0.00     0.071 A 
ATOM     24  H27 66T d   1     -10.280  -6.836   8.726  0.00  0.00     0.092 H 
ATOM     25  C23 66T d   1     -13.518  -6.307   9.594  0.00  0.00    -0.045 A 
ATOM     26  H28 66T d   1     -14.378  -5.721   9.290  0.00  0.00     0.088 H 
BRANCH  20  27
ATOM     27  O2  66T d   1     -10.275  -8.560  10.784  0.00  0.00    -0.356 OA
BRANCH  27  28
ATOM     28  C25 66T d   1      -8.956  -8.270  10.294  0.00  0.00     0.010 C 
ATOM     29  H32 66T d   1      -8.237  -8.975  10.737  0.00  0.00     0.066 H 
ATOM     30  H33 66T d   1      -8.680  -7.242  10.571  0.00  0.00     0.066 H 
ATOM     31  H34 66T d   1      -8.941  -8.371   9.199  0.00  0.00     0.066 H 
ENDBRANCH  27  28
ENDBRANCH  20  27
BRANCH  23  32
ATOM     32  O1  66T d   1     -12.289  -5.330   7.854  0.00  0.00    -0.356 OA
BRANCH  32  33
ATOM     33  C24 66T d   1     -11.022  -5.125   7.210  0.00  0.00     0.010 C 
ATOM     34  H29 66T d   1     -11.142  -4.407   6.385  0.00  0.00     0.066 H 
ATOM     35  H30 66T d   1     -10.653  -6.082   6.813  0.00  0.00     0.066 H 
ATOM     36  H31 66T d   1     -10.300  -4.728   7.939  0.00  0.00     0.066 H 
ENDBRANCH  32  33
ENDBRANCH  23  32
ENDBRANCH  15  18
ENDBRANCH  12  15
ENDBRANCH   8  12
ENDBRANCH   2   5
BRANCH   3  37
ATOM     37  C9  66T d   1     -21.635  -6.995  14.550  0.00  0.00     0.032 A 
ATOM     38  C8  66T d   1     -22.037  -6.133  15.568  0.00  0.00    -0.066 A 
ATOM     39  C7  66T d   1     -23.378  -6.065  15.951  0.00  0.00    -0.056 A 
ATOM     40  H18 66T d   1     -21.303  -5.510  16.067  0.00  0.00     0.085 H 
ATOM     41  C6  66T d   1     -24.336  -6.873  15.307  0.00  0.00     0.030 A 
ATOM     42  H17 66T d   1     -23.682  -5.391  16.744  0.00  0.00     0.086 H 
ATOM     43  C11 66T d   1     -23.934  -7.724  14.299  0.00  0.00    -0.056 A 
ATOM     44  C10 66T d   1     -22.600  -7.775  13.933  0.00  0.00    -0.066 A 
ATOM     45  H20 66T d   1     -24.660  -8.351  13.795  0.00  0.00     0.086 H 
ATOM     46  H19 66T d   1     -22.300  -8.447  13.137  0.00  0.00     0.085 H 
BRANCH  41  47
ATOM     47  N   66T d   1     -25.652  -6.833  15.647  0.00  0.00    -0.377 N 
ATOM     48  C2  66T d   1     -26.482  -7.990  15.991  0.00  0.00     0.021 C 
ATOM     49  C1  66T d   1     -27.902  -7.642  15.494  0.00  0.00     0.114 C 
ATOM     50  H7  66T d   1     -26.485  -8.151  17.079  0.00  0.00     0.067 H 
ATOM     51  H8  66T d   1     -26.109  -8.894  15.487  0.00  0.00     0.067 H 
ATOM     52  N1  66T d   1     -28.422  -6.489  16.248  0.00  0.00    -0.064 N 
ATOM     53  H4  66T d   1     -27.837  -7.363  14.432  0.00  0.00     0.086 H 
ATOM     54  C4  66T d   1     -27.647  -5.263  16.006  0.00  0.00     0.114 C 
ATOM     55  H5  66T d   1     -28.388  -6.704  17.232  0.00  0.00     0.278 HD
ATOM     56  H6  66T d   1     -29.378  -6.327  15.973  0.00  0.00     0.278 HD
ATOM     57  C3  66T d   1     -26.138  -5.510  16.220  0.00  0.00     0.021 C 
ATOM     58  H13 66T d   1     -27.798  -4.974  14.955  0.00  0.00     0.086 H 
ATOM     59  H10 66T d   1     -25.580  -4.695  15.736  0.00  0.00     0.067 H 
ATOM     60  H11 66T d   1     -25.934  -5.503  17.301  0.00  0.00     0.067 H 
BRANCH  49  61
ATOM     61  C   66T d   1     -28.855  -8.839  15.614  0.00  0.00    -0.048 C 
ATOM     62  H1  66T d   1     -28.450  -9.689  15.045  0.00  0.00     0.030 H 
ATOM     63  H2  66T d   1     -29.841  -8.565  15.211  0.00  0.00     0.030 H 
ATOM     64  H3  66T d   1     -28.957  -9.122  16.672  0.00  0.00     0.030 H 
ENDBRANCH  49  61
BRANCH  54  65
ATOM     65  C5  66T d   1     -28.131  -4.095  16.891  0.00  0.00    -0.048 C 
ATOM     66  H14 66T d   1     -27.527  -3.200  16.680  0.00  0.00     0.030 H 
ATOM     67  H15 66T d   1     -28.022  -4.369  17.951  0.00  0.00     0.030 H 
ATOM     68  H16 66T d   1     -29.188  -3.884  16.673  0.00  0.00     0.030 H 
ENDBRANCH  54  65
ENDBRANCH  41  47
ENDBRANCH   3  37
TORSDOF 12
