REMARK  6 active torsions:
REMARK  status: ('A' for Active; 'I' for Inactive)
REMARK    1  A    between atoms: C2'_10  and  O2'_11 
REMARK    2  A    between atoms: C1'_12  and  N9_13 
REMARK    3  A    between atoms: C6_17  and  N6_18 
REMARK    4  A    between atoms: C2'1_32  and  O2'1_33 
REMARK    5  A    between atoms: C1'1_34  and  N91_35 
REMARK    6  A    between atoms: C61_39  and  N61_40 
ROOT
ATOM      1  P   2BA d   1      59.781  74.024 -87.877  0.00  0.00     0.408 P 
ATOM      2  O1P 2BA d   1      59.220  73.419 -86.629  0.00  0.00    -0.624 OA
ATOM      3  O2P 2BA d   1      60.915  75.024 -87.820  0.00  0.00    -0.624 OA
ATOM      4  O5' 2BA d   1      58.644  74.768 -88.732  0.00  0.00    -0.287 OA
ATOM      5  C5' 2BA d   1      57.373  74.104 -88.950  0.00  0.00     0.058 C 
ATOM      6  C4' 2BA d   1      56.456  75.019 -89.728  0.00  0.00     0.090 C 
ATOM      7  O4' 2BA d   1      56.199  76.201 -88.996  0.00  0.00    -0.353 OA
ATOM      8  C3' 2BA d   1      57.034  75.514 -91.046  0.00  0.00     0.106 C 
ATOM      9  O3' 2BA d   1      56.882  74.494 -92.032  0.00  0.00    -0.279 OA
ATOM     10  C2' 2BA d   1      56.311  76.814 -91.334  0.00  0.00     0.106 C 
ATOM     11  C1' 2BA d   1      55.691  77.062 -89.974  0.00  0.00     0.140 C 
ATOM     12  P1  2BA d   1      57.991  74.283 -93.173  0.00  0.00     0.408 P 
ATOM     13  O1P 2BA d   1      58.436  75.582 -93.719  0.00  0.00    -0.624 OA
ATOM     14  O2P 2BA d   1      57.458  73.241 -94.148  0.00  0.00    -0.624 OA
ATOM     15  O5' 2BA d   1      59.258  73.641 -92.397  0.00  0.00    -0.287 OA
ATOM     16  C5' 2BA d   1      59.244  72.334 -91.823  0.00  0.00     0.058 C 
ATOM     17  C4' 2BA d   1      60.571  72.128 -91.151  0.00  0.00     0.090 C 
ATOM     18  O4' 2BA d   1      61.634  72.195 -92.121  0.00  0.00    -0.353 OA
ATOM     19  C3' 2BA d   1      60.912  73.161 -90.099  0.00  0.00     0.106 C 
ATOM     20  O3' 2BA d   1      60.273  72.829 -88.870  0.00  0.00    -0.279 OA
ATOM     21  C2' 2BA d   1      62.437  73.060 -90.016  0.00  0.00     0.106 C 
ATOM     22  C1' 2BA d   1      62.773  72.804 -91.473  0.00  0.00     0.140 C 
ATOM     23  H1  2BA d   1      56.914  73.862 -87.980  0.00  0.00     0.079 H 
ATOM     24  H2  2BA d   1      57.536  73.177 -89.519  0.00  0.00     0.079 H 
ATOM     25  H3  2BA d   1      55.517  74.480 -89.921  0.00  0.00     0.090 H 
ATOM     26  H4  2BA d   1      58.108  75.723 -90.934  0.00  0.00     0.092 H 
ATOM     27  H5  2BA d   1      57.003  77.612 -91.640  0.00  0.00     0.093 H 
ATOM     28  H7  2BA d   1      54.618  76.839 -90.070  0.00  0.00     0.122 H 
ATOM     29  H12 2BA d   1      59.099  71.579 -92.609  0.00  0.00     0.079 H 
ATOM     30  H13 2BA d   1      58.432  72.255 -91.085  0.00  0.00     0.079 H 
ATOM     31  H14 2BA d   1      60.561  71.134 -90.680  0.00  0.00     0.090 H 
ATOM     32  H15 2BA d   1      60.603  74.169 -90.411  0.00  0.00     0.092 H 
ATOM     33  H16 2BA d   1      62.901  73.973 -89.615  0.00  0.00     0.093 H 
ATOM     34  H18 2BA d   1      63.651  72.144 -91.536  0.00  0.00     0.122 H 
ENDROOT
BRANCH  11  35
ATOM     35  N9  2BA d   1      55.795  78.410 -89.579  0.00  0.00    -0.294 N 
ATOM     36  C8  2BA d   1      54.722  79.208 -89.209  0.00  0.00     0.071 A 
ATOM     37  N7  2BA d   1      55.151  80.393 -88.735  0.00  0.00    -0.236 NA
ATOM     38  H8  2BA d   1      53.676  78.916 -89.291  0.00  0.00     0.144 H 
ATOM     39  C5  2BA d   1      56.510  80.274 -88.787  0.00  0.00     0.149 A 
ATOM     40  C6  2BA d   1      57.569  81.186 -88.428  0.00  0.00     0.155 C 
ATOM     41  C4  2BA d   1      56.898  78.973 -89.269  0.00  0.00     0.167 A 
ATOM     42  N1  2BA d   1      58.824  80.759 -88.615  0.00  0.00    -0.222 NA
ATOM     43  C2  2BA d   1      59.100  79.532 -89.025  0.00  0.00     0.091 C 
ATOM     44  N3  2BA d   1      58.209  78.631 -89.441  0.00  0.00    -0.222 NA
ATOM     45  H11 2BA d   1      60.142  79.233 -89.023  0.00  0.00     0.146 H 
BRANCH  40  46
ATOM     46  N6  2BA d   1      57.275  82.413 -87.973  0.00  0.00    -0.382 N 
ATOM     47  H9  2BA d   1      58.032  83.063 -87.717  0.00  0.00     0.157 HD
ATOM     48  H10 2BA d   1      56.292  82.706 -87.879  0.00  0.00     0.157 HD
ENDBRANCH  40  46
ENDBRANCH  11  35
BRANCH  10  49
ATOM     49  O2' 2BA d   1      55.274  76.668 -92.298  0.00  0.00    -0.388 OA
ATOM     50  H6  2BA d   1      54.633  76.044 -91.980  0.00  0.00     0.210 HD
ENDBRANCH  10  49
BRANCH  21  51
ATOM     51  O2' 2BA d   1      62.836  71.904 -89.270  0.00  0.00    -0.388 OA
ATOM     52  H17 2BA d   1      63.785  71.864 -89.233  0.00  0.00     0.210 HD
ENDBRANCH  21  51
BRANCH  22  53
ATOM     53  N91 2BA d   1      63.030  74.050 -92.193  0.00  0.00    -0.294 N 
ATOM     54  C81 2BA d   1      62.136  74.958 -92.760  0.00  0.00     0.071 C 
ATOM     55  N71 2BA d   1      62.796  75.942 -93.412  0.00  0.00    -0.236 NA
ATOM     56  H19 2BA d   1      61.052  74.885 -92.687  0.00  0.00     0.144 H 
ATOM     57  C51 2BA d   1      64.132  75.812 -93.047  0.00  0.00     0.149 A 
ATOM     58  C61 2BA d   1      65.332  76.515 -93.444  0.00  0.00     0.155 A 
ATOM     59  C41 2BA d   1      64.263  74.563 -92.365  0.00  0.00     0.167 A 
ATOM     60  N11 2BA d   1      66.508  75.999 -93.057  0.00  0.00    -0.222 NA
ATOM     61  C21 2BA d   1      66.547  74.878 -92.320  0.00  0.00     0.091 A 
ATOM     62  N31 2BA d   1      65.469  74.131 -91.976  0.00  0.00    -0.222 NA
ATOM     63  H22 2BA d   1      67.517  74.543 -91.972  0.00  0.00     0.146 H 
BRANCH  58  64
ATOM     64  N61 2BA d   1      65.247  77.650 -94.191  0.00  0.00    -0.382 N 
ATOM     65  H20 2BA d   1      66.104  78.147 -94.471  0.00  0.00     0.157 HD
ATOM     66  H21 2BA d   1      64.325  78.011 -94.476  0.00  0.00     0.157 HD
ENDBRANCH  58  64
ENDBRANCH  22  53
TORSDOF 6
