REMARK  26 active torsions:
REMARK  status: ('A' for Active; 'I' for Inactive)
REMARK    1  A    between atoms: C1_1  and  C2_4 
REMARK    2  A    between atoms: C3_6  and  C1_1 
REMARK    3  A    between atoms: C9_13  and  N1_2 
REMARK       I    between atoms: N1_2  and  C10_14 
REMARK       I    between atoms: C2_4  and  N_15 
REMARK       I    between atoms: C10_14  and  N2_5 
REMARK       I    between atoms: C10_14  and  N3_7 
REMARK    4  A    between atoms: C7_11  and  C9_13 
REMARK    5  A    between atoms: N_15  and  CA_16 
REMARK    6  A    between atoms: CA_16  and  C_17 
REMARK    7  A    between atoms: CA_16  and  CB_19 
REMARK       I    between atoms: C_17  and  N_26 
REMARK    8  A    between atoms: CB_19  and  CG_20 
REMARK    9  A    between atoms: CG_20  and  CD_21 
REMARK   10  A    between atoms: CD_21  and  NE_22 
REMARK       I    between atoms: NE_22  and  CZ_23 
REMARK       I    between atoms: CZ_23  and  NH1_24 
REMARK       I    between atoms: CZ_23  and  NH2_25 
REMARK   11  A    between atoms: N_26  and  CA_27 
REMARK   12  A    between atoms: CA_27  and  CB_28 
REMARK   13  A    between atoms: CA_27  and  C_32 
REMARK   14  A    between atoms: CB_28  and  CG1_29 
REMARK   15  A    between atoms: CB_28  and  CG2_30 
REMARK   16  A    between atoms: CB_28  and  CG3_31 
REMARK       I    between atoms: C_32  and  N_34 
REMARK   17  A    between atoms: N_34  and  CA_35 
REMARK   18  A    between atoms: CA_35  and  C_36 
REMARK   19  A    between atoms: CA_35  and  CB_38 
REMARK       I    between atoms: C_36  and  N23_45 
REMARK   20  A    between atoms: CB_38  and  CG_39 
REMARK   21  A    between atoms: CG_39  and  CD_40 
REMARK   22  A    between atoms: CD_40  and  NE_41 
REMARK       I    between atoms: NE_41  and  CZ_42 
REMARK       I    between atoms: CZ_42  and  NH1_43 
REMARK   23  A    between atoms: N23_45  and  C16_46 
REMARK   24  A    between atoms: C16_46  and  C17_47 
REMARK   25  A    between atoms: C24_50  and  C27_51 
REMARK   26  A    between atoms: C27_51  and  N35_52 
ROOT
ATOM      1  CA  TBG d   1      27.275  30.622  -6.884  0.00  0.00     0.095 C 
ATOM      2  H28 TBG d   1      28.045  31.405  -6.944  0.00  0.00     0.088 H 
ENDROOT
BRANCH   1   3
ATOM      3  N   TBG d   1      27.910  29.463  -6.695  0.00  0.00    -0.345 N 
ATOM      4  C   ARG d   1      29.238  29.347  -6.635  0.00  0.00     0.241 C 
ATOM      5  O   ARG d   1      30.003  30.304  -6.729  0.00  0.00    -0.271 OA
ATOM      6  H27 TBG d   1      27.359  28.635  -6.593  0.00  0.00     0.163 HD
BRANCH   4   7
ATOM      7  CA  ARG d   1      29.786  27.939  -6.437  0.00  0.00     0.089 C 
ATOM      8  H15 ARG d   1      28.956  27.227  -6.558  0.00  0.00     0.087 H 
BRANCH   7   9
ATOM      9  N   ARG d   1      30.812  27.649  -7.428  0.00  0.00    -0.348 N 
ATOM     10  C2  2UE d   1      30.695  26.662  -8.310  0.00  0.00     0.222 C 
ATOM     11  O1  2UE d   1      29.747  25.885  -8.352  0.00  0.00    -0.273 OA
ATOM     12  H14 ARG d   1      31.637  28.214  -7.446  0.00  0.00     0.163 HD
BRANCH  10  13
ATOM     13  C1  2UE d   1      31.876  26.535  -9.217  0.00  0.00     0.033 C 
ATOM     14  H1  2UE d   1      32.258  27.543  -9.438  0.00  0.00     0.054 H 
ATOM     15  H2  2UE d   1      31.551  26.053 -10.151  0.00  0.00     0.054 H 
BRANCH  13  16
ATOM     16  C3  2UE d   1      32.986  25.723  -8.622  0.00  0.00    -0.049 A 
ATOM     17  C4  2UE d   1      32.909  24.320  -8.634  0.00  0.00    -0.076 A 
ATOM     18  C6  2UE d   1      33.864  23.547  -7.940  0.00  0.00    -0.075 A 
ATOM     19  H8  2UE d   1      32.111  23.829  -9.180  0.00  0.00     0.084 H 
ATOM     20  C7  2UE d   1      34.916  24.176  -7.219  0.00  0.00    -0.040 A 
ATOM     21  H10 2UE d   1      33.795  22.465  -7.957  0.00  0.00     0.084 H 
ATOM     22  C8  2UE d   1      34.994  25.578  -7.232  0.00  0.00    -0.075 A 
ATOM     23  C5  2UE d   1      34.038  26.343  -7.925  0.00  0.00    -0.076 A 
ATOM     24  H11 2UE d   1      35.799  26.076  -6.703  0.00  0.00     0.084 H 
ATOM     25  H9  2UE d   1      34.114  27.424  -7.921  0.00  0.00     0.084 H 
BRANCH  20  26
ATOM     26  C9  2UE d   1      35.904  23.363  -6.423  0.00  0.00     0.033 C 
ATOM     27  H12 2UE d   1      36.688  23.005  -7.107  0.00  0.00     0.072 H 
ATOM     28  H13 2UE d   1      36.353  24.016  -5.660  0.00  0.00     0.072 H 
BRANCH  26  29
ATOM     29  N1  2UE d   1      35.316  22.199  -5.746  0.00  0.00    -0.223 N 
ATOM     30  C10 2UE d   1      34.559  22.233  -4.647  0.00  0.00     0.665 C 
ATOM     31  N2  2UE d   1      34.251  23.393  -4.053  0.00  0.00    -0.235 N 
ATOM     32  N3  2UE d   1      34.095  21.089  -4.151  0.00  0.00    -0.235 N 
ATOM     33  H4  2UE d   1      33.666  23.398  -3.206  0.00  0.00     0.174 HD
ATOM     34  H5  2UE d   1      34.600  24.280  -4.444  0.00  0.00     0.174 HD
ATOM     35  H6  2UE d   1      34.331  20.196  -4.607  0.00  0.00     0.174 HD
ATOM     36  H7  2UE d   1      33.499  21.096  -3.311  0.00  0.00     0.174 HD
ATOM     37  H3  2UE d   1      35.505  21.273  -6.156  0.00  0.00     0.178 HD
ENDBRANCH  26  29
ENDBRANCH  20  26
ENDBRANCH  13  16
ENDBRANCH  10  13
ENDBRANCH   7   9
BRANCH   7  38
ATOM     38  CB  ARG d   1      30.402  27.743  -5.054  0.00  0.00    -0.036 C 
ATOM     39  H16 ARG d   1      29.622  27.904  -4.295  0.00  0.00     0.036 H 
ATOM     40  H17 ARG d   1      31.204  28.483  -4.918  0.00  0.00     0.036 H 
BRANCH  38  41
ATOM     41  CG  ARG d   1      30.994  26.334  -4.862  0.00  0.00    -0.048 C 
ATOM     42  H18 ARG d   1      31.519  26.289  -3.897  0.00  0.00     0.035 H 
ATOM     43  H19 ARG d   1      31.704  26.124  -5.676  0.00  0.00     0.035 H 
BRANCH  41  44
ATOM     44  CD  ARG d   1      29.885  25.291  -4.880  0.00  0.00     0.009 C 
ATOM     45  H20 ARG d   1      29.358  25.367  -5.843  0.00  0.00     0.064 H 
ATOM     46  H21 ARG d   1      29.187  25.518  -4.061  0.00  0.00     0.064 H 
BRANCH  44  47
ATOM     47  NE  ARG d   1      30.343  23.911  -4.719  0.00  0.00    -0.227 N 
ATOM     48  CZ  ARG d   1      30.436  23.035  -5.719  0.00  0.00     0.665 C 
ATOM     49  NH1 ARG d   1      30.847  21.790  -5.495  0.00  0.00    -0.235 N 
ATOM     50  NH2 ARG d   1      30.125  23.410  -6.956  0.00  0.00    -0.235 N 
ATOM     51  H23 ARG d   1      30.915  21.122  -6.276  0.00  0.00     0.174 HD
ATOM     52  H24 ARG d   1      31.097  21.494  -4.541  0.00  0.00     0.174 HD
ATOM     53  H25 ARG d   1      29.806  24.372  -7.138  0.00  0.00     0.174 HD
ATOM     54  H26 ARG d   1      30.203  22.738  -7.733  0.00  0.00     0.174 HD
ATOM     55  H22 ARG d   1      30.610  23.597  -3.775  0.00  0.00     0.177 HD
ENDBRANCH  44  47
ENDBRANCH  41  44
ENDBRANCH  38  41
ENDBRANCH   7  38
ENDBRANCH   4   7
ENDBRANCH   1   3
BRANCH   1  56
ATOM     56  CB  TBG d   1      26.509  30.574  -8.275  0.00  0.00    -0.022 C 
BRANCH  56  57
ATOM     57  CG1 TBG d   1      25.975  31.968  -8.654  0.00  0.00    -0.067 C 
ATOM     58  H29 TBG d   1      25.450  31.910  -9.619  0.00  0.00     0.028 H 
ATOM     59  H30 TBG d   1      26.816  32.673  -8.736  0.00  0.00     0.028 H 
ATOM     60  H31 TBG d   1      25.278  32.317  -7.878  0.00  0.00     0.028 H 
ENDBRANCH  56  57
BRANCH  56  61
ATOM     61  CG2 TBG d   1      27.464  30.109  -9.374  0.00  0.00    -0.067 C 
ATOM     62  H32 TBG d   1      27.857  29.113  -9.121  0.00  0.00     0.028 H 
ATOM     63  H33 TBG d   1      28.298  30.821  -9.460  0.00  0.00     0.028 H 
ATOM     64  H34 TBG d   1      26.924  30.058 -10.331  0.00  0.00     0.028 H 
ENDBRANCH  56  61
BRANCH  56  65
ATOM     65  CG3 TBG d   1      25.346  29.565  -8.224  0.00  0.00    -0.067 C 
ATOM     66  H35 TBG d   1      24.634  29.866  -7.442  0.00  0.00     0.028 H 
ATOM     67  H36 TBG d   1      25.739  28.563  -7.996  0.00  0.00     0.028 H 
ATOM     68  H37 TBG d   1      24.835  29.545  -9.198  0.00  0.00     0.028 H 
ENDBRANCH  56  65
ENDBRANCH   1  56
BRANCH   1  69
ATOM     69  C   TBG d   1      26.301  31.037  -5.761  0.00  0.00     0.241 C 
ATOM     70  O   TBG d   1      25.688  30.210  -5.116  0.00  0.00    -0.271 OA
ATOM     71  N   ARG d   1      26.187  32.357  -5.578  0.00  0.00    -0.346 N 
ATOM     72  H38 ARG d   1      26.725  32.980  -6.146  0.00  0.00     0.163 HD
BRANCH  71  73
ATOM     73  CA  ARG d   1      25.284  32.907  -4.556  0.00  0.00     0.089 C 
ATOM     74  H39 ARG d   1      25.480  32.455  -3.573  0.00  0.00     0.087 H 
BRANCH  73  75
ATOM     75  C   ARG d   1      23.889  32.538  -5.074  0.00  0.00     0.240 C 
ATOM     76  O   ARG d   1      23.587  32.733  -6.251  0.00  0.00    -0.271 OA
ATOM     77  N23 00S d   1      23.049  32.008  -4.198  0.00  0.00    -0.355 N 
ATOM     78  H51 00S d   1      23.354  31.886  -3.253  0.00  0.00     0.162 HD
BRANCH  77  79
ATOM     79  C16 00S d   1      21.704  31.597  -4.554  0.00  0.00     0.019 C 
ATOM     80  H52 00S d   1      21.400  32.096  -5.486  0.00  0.00     0.071 H 
ATOM     81  H53 00S d   1      21.008  31.871  -3.747  0.00  0.00     0.071 H 
BRANCH  79  82
ATOM     82  C17 00S d   1      21.686  30.105  -4.751  0.00  0.00    -0.040 A 
ATOM     83  C22 00S d   1      21.469  29.250  -3.658  0.00  0.00    -0.074 A 
ATOM     84  C21 00S d   1      21.585  27.847  -3.795  0.00  0.00    -0.069 A 
ATOM     85  H54 00S d   1      21.209  29.672  -2.694  0.00  0.00     0.084 H 
ATOM     86  C24 00S d   1      21.913  27.268  -5.029  0.00  0.00     0.007 A 
ATOM     87  H55 00S d   1      21.418  27.210  -2.934  0.00  0.00     0.085 H 
ATOM     88  C19 00S d   1      22.120  28.111  -6.138  0.00  0.00    -0.069 A 
ATOM     89  C18 00S d   1      22.005  29.535  -6.002  0.00  0.00    -0.074 A 
ATOM     90  H60 00S d   1      22.368  27.681  -7.102  0.00  0.00     0.085 H 
ATOM     91  H61 00S d   1      22.164  30.175  -6.863  0.00  0.00     0.084 H 
BRANCH  86  92
ATOM     92  C27 00S d   1      22.031  25.782  -5.161  0.00  0.00     0.102 C 
ATOM     93  N34 00S d   1      22.707  25.216  -6.159  0.00  0.00    -0.385 N 
ATOM     94  H58 00S d   1      23.159  25.804  -6.873  0.00  0.00     0.157 HD
ATOM     95  H59 00S d   1      22.778  24.190  -6.216  0.00  0.00     0.157 HD
BRANCH  92  96
ATOM     96  N35 00S d   1      21.441  25.041  -4.230  0.00  0.00    -0.385 N 
ATOM     97  H56 00S d   1      21.495  24.014  -4.279  0.00  0.00     0.157 HD
ATOM     98  H57 00S d   1      20.930  25.494  -3.459  0.00  0.00     0.157 HD
ENDBRANCH  92  96
ENDBRANCH  86  92
ENDBRANCH  79  82
ENDBRANCH  77  79
ENDBRANCH  73  75
BRANCH  73  99
ATOM     99  CB  ARG d   1      25.406  34.433  -4.460  0.00  0.00    -0.036 C 
ATOM    100  H40 ARG d   1      24.586  34.800  -3.825  0.00  0.00     0.036 H 
ATOM    101  H41 ARG d   1      25.299  34.847  -5.473  0.00  0.00     0.036 H 
BRANCH  99 102
ATOM    102  CG  ARG d   1      26.708  34.941  -3.882  0.00  0.00    -0.048 C 
ATOM    103  H42 ARG d   1      27.550  34.514  -4.447  0.00  0.00     0.035 H 
ATOM    104  H43 ARG d   1      26.782  34.638  -2.827  0.00  0.00     0.035 H 
BRANCH 102 105
ATOM    105  CD  ARG d   1      26.755  36.461  -3.976  0.00  0.00     0.009 C 
ATOM    106  H44 ARG d   1      25.912  36.873  -3.402  0.00  0.00     0.064 H 
ATOM    107  H45 ARG d   1      26.655  36.749  -5.033  0.00  0.00     0.064 H 
BRANCH 105 108
ATOM    108  NE  ARG d   1      27.995  37.030  -3.454  0.00  0.00    -0.227 N 
ATOM    109  CZ  ARG d   1      29.187  36.872  -4.021  0.00  0.00     0.665 C 
ATOM    110  NH1 ARG d   1      29.310  36.150  -5.131  0.00  0.00    -0.235 N 
ATOM    111  NH2 ARG d   1      30.253  37.467  -3.497  0.00  0.00    -0.235 N 
ATOM    112  H47 ARG d   1      30.235  36.030  -5.567  0.00  0.00     0.174 HD
ATOM    113  H48 ARG d   1      28.480  35.711  -5.554  0.00  0.00     0.174 HD
ATOM    114  H49 ARG d   1      30.160  38.027  -2.637  0.00  0.00     0.174 HD
ATOM    115  H50 ARG d   1      31.173  37.369  -3.950  0.00  0.00     0.174 HD
ATOM    116  H46 ARG d   1      27.942  37.590  -2.591  0.00  0.00     0.177 HD
ENDBRANCH 105 108
ENDBRANCH 102 105
ENDBRANCH  99 102
ENDBRANCH  73  99
ENDBRANCH  71  73
ENDBRANCH   1  69
TORSDOF 26
