REMARK  10 active torsions:
REMARK  status: ('A' for Active; 'I' for Inactive)
REMARK    1  A    between atoms: N3_3  and  C10_10 
REMARK    2  A    between atoms: C6_6  and  C7_7 
REMARK    3  A    between atoms: C6_6  and  C8_8 
REMARK    4  A    between atoms: C8_8  and  C12_12 
REMARK    5  A    between atoms: C8_8  and  C13_13 
REMARK    6  A    between atoms: C10_10  and  C14_14 
REMARK    7  A    between atoms: C16_16  and  C21_21 
REMARK       I    between atoms: C21_21  and  N23_23 
REMARK    8  A    between atoms: N23_23  and  C24_24 
REMARK    9  A    between atoms: C24_24  and  C25_25 
REMARK   10  A    between atoms: C24_24  and  C31_31 
ROOT
ATOM      1  C14 43T d   1      36.233  61.467  42.322  0.00  0.00    -0.035 A 
ATOM      2  C15 43T d   1      36.374  60.953  43.606  0.00  0.00    -0.060 A 
ATOM      3  C16 43T d   1      37.626  60.841  44.180  0.00  0.00     0.035 A 
ATOM      4  C17 43T d   1      38.737  61.249  43.475  0.00  0.00    -0.030 A 
ATOM      5  C18 43T d   1      38.598  61.737  42.192  0.00  0.00     0.117 A 
ATOM      6  C19 43T d   1      37.354  61.851  41.605  0.00  0.00    -0.038 A 
ATOM      7  F20 43T d   1      39.714  62.108  41.547  0.00  0.00    -0.206 F 
ATOM      8  H18 43T d   1      35.497  60.638  44.160  0.00  0.00     0.086 H 
ATOM      9  H19 43T d   1      39.720  61.187  43.928  0.00  0.00     0.089 H 
ATOM     10  H20 43T d   1      37.256  62.236  40.596  0.00  0.00     0.089 H 
ENDROOT
BRANCH   1  11
ATOM     11  C10 43T d   1      34.891  61.615  41.668  0.00  0.00     0.043 C 
ATOM     12  H10 43T d   1      34.481  62.595  41.954  0.00  0.00     0.073 H 
ATOM     13  H11 43T d   1      35.040  61.583  40.579  0.00  0.00     0.073 H 
BRANCH  11  14
ATOM     14  N3  43T d   1      33.911  60.602  42.015  0.00  0.00    -0.147 N 
ATOM     15  C2  43T d   1      34.124  59.316  41.553  0.00  0.00     0.240 C 
ATOM     16  C1  43T d   1      33.098  58.278  41.927  0.00  0.00     0.034 C 
ATOM     17  O11 43T d   1      35.105  58.982  40.915  0.00  0.00    -0.272 OA
ATOM     18  C6  43T d   1      32.370  58.541  43.235  0.00  0.00     0.054 C 
ATOM     19  H1  43T d   1      33.608  57.307  42.009  0.00  0.00     0.051 H 
ATOM     20  H2  43T d   1      32.349  58.232  41.122  0.00  0.00     0.051 H 
ATOM     21  N5  43T d   1      31.958  59.924  43.190  0.00  0.00    -0.217 N 
ATOM     22  C4  43T d   1      32.721  60.936  42.657  0.00  0.00     0.677 C 
ATOM     23  H3  43T d   1      31.037  60.167  43.581  0.00  0.00     0.178 HD
ATOM     24  N9  43T d   1      32.323  62.162  42.709  0.00  0.00    -0.234 N 
ATOM     25  H8  43T d   1      32.905  62.910  42.306  0.00  0.00     0.174 HD
ATOM     26  H9  43T d   1      31.423  62.393  43.154  0.00  0.00     0.174 HD
BRANCH  18  27
ATOM     27  C7  43T d   1      31.061  57.758  43.223  0.00  0.00    -0.052 C 
ATOM     28  H4  43T d   1      30.519  57.936  44.163  0.00  0.00     0.030 H 
ATOM     29  H5  43T d   1      31.277  56.684  43.122  0.00  0.00     0.030 H 
ATOM     30  H6  43T d   1      30.443  58.089  42.375  0.00  0.00     0.030 H 
ENDBRANCH  18  27
BRANCH  18  31
ATOM     31  C8  43T d   1      33.243  58.234  44.473  0.00  0.00    -0.036 C 
ATOM     32  H7  43T d   1      34.228  58.682  44.276  0.00  0.00     0.042 H 
BRANCH  31  33
ATOM     33  C12 43T d   1      32.704  58.858  45.756  0.00  0.00    -0.071 C 
ATOM     34  H12 43T d   1      33.368  58.603  46.595  0.00  0.00     0.028 H 
ATOM     35  H13 43T d   1      31.694  58.470  45.956  0.00  0.00     0.028 H 
ATOM     36  H14 43T d   1      32.661  59.951  45.642  0.00  0.00     0.028 H 
ENDBRANCH  31  33
BRANCH  31  37
ATOM     37  C13 43T d   1      33.464  56.737  44.722  0.00  0.00    -0.071 C 
ATOM     38  H15 43T d   1      33.853  56.267  43.807  0.00  0.00     0.028 H 
ATOM     39  H16 43T d   1      32.509  56.266  44.998  0.00  0.00     0.028 H 
ATOM     40  H17 43T d   1      34.188  56.604  45.539  0.00  0.00     0.028 H 
ENDBRANCH  31  37
ENDBRANCH  18  31
ENDBRANCH  11  14
ENDBRANCH   1  11
BRANCH   3  41
ATOM     41  C21 43T d   1      37.850  60.347  45.559  0.00  0.00     0.252 C 
ATOM     42  O22 43T d   1      38.984  60.061  45.936  0.00  0.00    -0.268 OA
ATOM     43  N23 43T d   1      36.738  60.290  46.372  0.00  0.00    -0.349 N 
ATOM     44  H21 43T d   1      35.851  60.606  46.035  0.00  0.00     0.163 HD
BRANCH  43  45
ATOM     45  C24 43T d   1      36.865  59.766  47.727  0.00  0.00     0.034 C 
ATOM     46  H22 43T d   1      37.720  60.255  48.217  0.00  0.00     0.079 H 
BRANCH  45  47
ATOM     47  C25 43T d   1      37.091  58.279  47.740  0.00  0.00    -0.036 A 
ATOM     48  C26 43T d   1      37.845  57.712  48.756  0.00  0.00    -0.075 A 
ATOM     49  C27 43T d   1      38.055  56.348  48.769  0.00  0.00    -0.082 A 
ATOM     50  H23 43T d   1      38.267  58.336  49.535  0.00  0.00     0.084 H 
ATOM     51  C28 43T d   1      37.528  55.527  47.784  0.00  0.00    -0.083 A 
ATOM     52  H24 43T d   1      38.644  55.909  49.566  0.00  0.00     0.083 H 
ATOM     53  C29 43T d   1      36.791  56.085  46.757  0.00  0.00    -0.082 A 
ATOM     54  H25 43T d   1      37.693  54.456  47.819  0.00  0.00     0.083 H 
ATOM     55  C30 43T d   1      36.579  57.455  46.742  0.00  0.00    -0.075 A 
ATOM     56  H26 43T d   1      36.383  55.459  45.972  0.00  0.00     0.083 H 
ATOM     57  H27 43T d   1      36.002  57.894  45.936  0.00  0.00     0.084 H 
ENDBRANCH  45  47
BRANCH  45  58
ATOM     58  C31 43T d   1      35.597  60.090  48.492  0.00  0.00    -0.053 C 
ATOM     59  H28 43T d   1      35.678  59.700  49.517  0.00  0.00     0.030 H 
ATOM     60  H29 43T d   1      34.736  59.624  47.990  0.00  0.00     0.030 H 
ATOM     61  H30 43T d   1      35.457  61.181  48.524  0.00  0.00     0.030 H 
ENDBRANCH  45  58
ENDBRANCH  43  45
ENDBRANCH   3  41
TORSDOF 10
