REMARK  9 active torsions:
REMARK  status: ('A' for Active; 'I' for Inactive)
REMARK    1  A    between atoms: C1_1  and  C2_3 
REMARK    2  A    between atoms: C2_3  and  C3_4 
REMARK    3  A    between atoms: C3_4  and  C4_5 
REMARK    4  A    between atoms: C4_5  and  C5_6 
REMARK    5  A    between atoms: C5_6  and  C6_7 
REMARK    6  A    between atoms: C6_7  and  C7_8 
REMARK    7  A    between atoms: C7_8  and  C8_9 
REMARK    8  A    between atoms: C8_9  and  C9_10 
REMARK    9  A    between atoms: C9_10  and  C10_11 
ROOT
ATOM      1  C6  DKA d   1       7.738 -20.799  -6.067  0.00  0.00    -0.065 C 
ATOM      2  H7  DKA d   1       8.731 -21.151  -6.384  0.00  0.00     0.033 H 
ATOM      3  H8  DKA d   1       7.232 -20.317  -6.916  0.00  0.00     0.033 H 
ENDROOT
BRANCH   1   4
ATOM      4  C5  DKA d   1       7.938 -19.745  -4.979  0.00  0.00    -0.062 C 
ATOM      5  H5  DKA d   1       8.517 -20.197  -4.160  0.00  0.00     0.033 H 
ATOM      6  H6  DKA d   1       8.505 -18.906  -5.408  0.00  0.00     0.033 H 
BRANCH   4   7
ATOM      7  C4  DKA d   1       6.635 -19.203  -4.406  0.00  0.00    -0.050 C 
ATOM      8  H3  DKA d   1       5.990 -18.890  -5.241  0.00  0.00     0.038 H 
ATOM      9  H4  DKA d   1       6.141 -20.008  -3.842  0.00  0.00     0.038 H 
BRANCH   7  10
ATOM     10  C3  DKA d   1       6.829 -18.028  -3.488  0.00  0.00    -0.097 C 
ATOM     11  H2  DKA d   1       7.782 -17.509  -3.393  0.00  0.00     0.077 H 
BRANCH  10  12
ATOM     12  C2  DKA d   1       5.631 -17.633  -2.726  0.00  0.00    -0.013 C 
ATOM     13  H1  DKA d   1       4.674 -18.131  -2.874  0.00  0.00     0.093 H 
BRANCH  12  14
ATOM     14  C1  DKA d   1       5.786 -16.509  -1.732  0.00  0.00     0.198 C 
ATOM     15  O1  DKA d   1       6.856 -15.867  -1.678  0.00  0.00    -0.645 OA
ATOM     16  O2  DKA d   1       4.797 -16.256  -0.976  0.00  0.00    -0.645 OA
ENDBRANCH  12  14
ENDBRANCH  10  12
ENDBRANCH   7  10
ENDBRANCH   4   7
ENDBRANCH   1   4
BRANCH   1  17
ATOM     17  C7  DKA d   1       6.930 -21.997  -5.669  0.00  0.00    -0.065 C 
ATOM     18  H9  DKA d   1       6.823 -22.646  -6.551  0.00  0.00     0.033 H 
ATOM     19  H10 DKA d   1       5.937 -21.648  -5.348  0.00  0.00     0.033 H 
BRANCH  17  20
ATOM     20  C8  DKA d   1       7.511 -22.804  -4.572  0.00  0.00    -0.065 C 
ATOM     21  H11 DKA d   1       7.658 -22.142  -3.706  0.00  0.00     0.033 H 
ATOM     22  H12 DKA d   1       8.485 -23.185  -4.911  0.00  0.00     0.033 H 
BRANCH  20  23
ATOM     23  C9  DKA d   1       6.671 -23.998  -4.116  0.00  0.00    -0.069 C 
ATOM     24  H13 DKA d   1       6.513 -24.662  -4.979  0.00  0.00     0.032 H 
ATOM     25  H14 DKA d   1       5.700 -23.624  -3.759  0.00  0.00     0.032 H 
BRANCH  23  26
ATOM     26  C10 DKA d   1       7.316 -24.809  -2.996  0.00  0.00    -0.077 C 
ATOM     27  H15 DKA d   1       6.657 -25.646  -2.723  0.00  0.00     0.027 H 
ATOM     28  H16 DKA d   1       7.471 -24.164  -2.119  0.00  0.00     0.027 H 
ATOM     29  H17 DKA d   1       8.285 -25.202  -3.339  0.00  0.00     0.027 H 
ENDBRANCH  23  26
ENDBRANCH  20  23
ENDBRANCH  17  20
ENDBRANCH   1  17
TORSDOF 9
