REMARK  11 active torsions:
REMARK  status: ('A' for Active; 'I' for Inactive)
REMARK    1  A    between atoms: C1_3  and  C2_4 
REMARK    2  A    between atoms: C2_4  and  C3_5 
REMARK    3  A    between atoms: C3_5  and  C4_6 
REMARK    4  A    between atoms: C4_6  and  C5_7 
REMARK    5  A    between atoms: C5_7  and  C6_8 
REMARK    6  A    between atoms: C6_8  and  C7_9 
REMARK    7  A    between atoms: C7_9  and  C8_10 
REMARK    8  A    between atoms: C8_10  and  C9_11 
REMARK    9  A    between atoms: C9_11  and  C10_12 
REMARK   10  A    between atoms: C10_12  and  C11_13 
REMARK   11  A    between atoms: C11_13  and  C12_14 
ROOT
ATOM      1  C7  DAO d   1      -6.974  21.930  11.119  0.00  0.00    -0.065 C 
ATOM      2  H11 DAO d   1      -6.902  22.578  10.233  0.00  0.00     0.033 H 
ATOM      3  H12 DAO d   1      -5.968  21.594  11.411  0.00  0.00     0.033 H 
ENDROOT
BRANCH   1   4
ATOM      4  C6  DAO d   1      -7.774  20.734  10.754  0.00  0.00    -0.065 C 
ATOM      5  H9  DAO d   1      -8.776  21.076  10.454  0.00  0.00     0.033 H 
ATOM      6  H10 DAO d   1      -7.282  20.246   9.900  0.00  0.00     0.033 H 
BRANCH   4   7
ATOM      7  C5  DAO d   1      -7.943  19.698  11.850  0.00  0.00    -0.065 C 
ATOM      8  H7  DAO d   1      -8.522  20.155  12.666  0.00  0.00     0.033 H 
ATOM      9  H8  DAO d   1      -8.505  18.849  11.433  0.00  0.00     0.033 H 
BRANCH   7  10
ATOM     10  C4  DAO d   1      -6.652  19.167  12.431  0.00  0.00    -0.065 C 
ATOM     11  H5  DAO d   1      -6.009  18.843  11.600  0.00  0.00     0.033 H 
ATOM     12  H6  DAO d   1      -6.160  19.985  12.978  0.00  0.00     0.033 H 
BRANCH  10  13
ATOM     13  C3  DAO d   1      -6.823  17.999  13.380  0.00  0.00    -0.056 C 
ATOM     14  H3  DAO d   1      -7.596  18.274  14.113  0.00  0.00     0.033 H 
ATOM     15  H4  DAO d   1      -7.167  17.137  12.790  0.00  0.00     0.033 H 
BRANCH  13  16
ATOM     16  C2  DAO d   1      -5.622  17.580  14.129  0.00  0.00     0.016 C 
ATOM     17  H1  DAO d   1      -4.887  17.216  13.396  0.00  0.00     0.049 H 
ATOM     18  H2  DAO d   1      -5.223  18.470  14.637  0.00  0.00     0.049 H 
BRANCH  16  19
ATOM     19  C1  DAO d   1      -5.793  16.501  15.173  0.00  0.00     0.172 C 
ATOM     20  O1  DAO d   1      -6.875  15.890  15.237  0.00  0.00    -0.648 OA
ATOM     21  O2  DAO d   1      -4.800  16.237  15.902  0.00  0.00    -0.648 OA
ENDBRANCH  16  19
ENDBRANCH  13  16
ENDBRANCH  10  13
ENDBRANCH   7  10
ENDBRANCH   4   7
ENDBRANCH   1   4
BRANCH   1  22
ATOM     22  C8  DAO d   1      -7.538  22.737  12.240  0.00  0.00    -0.065 C 
ATOM     23  H13 DAO d   1      -7.659  22.078  13.113  0.00  0.00     0.033 H 
ATOM     24  H14 DAO d   1      -8.522  23.119  11.930  0.00  0.00     0.033 H 
BRANCH  22  25
ATOM     25  C9  DAO d   1      -6.680  23.913  12.648  0.00  0.00    -0.065 C 
ATOM     26  H15 DAO d   1      -6.548  24.561  11.769  0.00  0.00     0.033 H 
ATOM     27  H16 DAO d   1      -5.701  23.527  12.969  0.00  0.00     0.033 H 
BRANCH  25  28
ATOM     28  C10 DAO d   1      -7.253  24.766  13.787  0.00  0.00    -0.065 C 
ATOM     29  H17 DAO d   1      -8.243  25.126  13.470  0.00  0.00     0.033 H 
ATOM     30  H18 DAO d   1      -6.580  25.624  13.934  0.00  0.00     0.033 H 
BRANCH  28  31
ATOM     31  C11 DAO d   1      -7.420  24.081  15.121  0.00  0.00    -0.069 C 
ATOM     32  H19 DAO d   1      -6.450  23.692  15.463  0.00  0.00     0.032 H 
ATOM     33  H20 DAO d   1      -8.135  23.251  15.025  0.00  0.00     0.032 H 
BRANCH  31  34
ATOM     34  C12 DAO d   1      -7.937  25.082  16.104  0.00  0.00    -0.077 C 
ATOM     35  H21 DAO d   1      -8.066  24.600  17.085  0.00  0.00     0.027 H 
ATOM     36  H22 DAO d   1      -8.906  25.471  15.757  0.00  0.00     0.027 H 
ATOM     37  H23 DAO d   1      -7.220  25.912  16.194  0.00  0.00     0.027 H 
ENDBRANCH  31  34
ENDBRANCH  28  31
ENDBRANCH  25  28
ENDBRANCH  22  25
ENDBRANCH   1  22
TORSDOF 11
