REMARK  12 active torsions:
REMARK  status: ('A' for Active; 'I' for Inactive)
REMARK    1  A    between atoms: C1_1  and  C2_4 
REMARK    2  A    between atoms: C2_4  and  C3_5 
REMARK    3  A    between atoms: C3_5  and  C4_6 
REMARK    4  A    between atoms: C4_6  and  C5_7 
REMARK    5  A    between atoms: C5_7  and  C6_8 
REMARK    6  A    between atoms: C6_8  and  C7_9 
REMARK    7  A    between atoms: C7_9  and  C8_10 
REMARK    8  A    between atoms: C8_10  and  C9_11 
REMARK    9  A    between atoms: C9_11  and  C10_12 
REMARK   10  A    between atoms: C10_12  and  C11_13 
REMARK   11  A    between atoms: C12_14  and  C13_15 
REMARK   12  A    between atoms: C13_15  and  C14_16 
ROOT
ATOM      1  C7  MYR d   1      -6.913 -21.974   5.678  0.00  0.00    -0.065 C 
ATOM      2  H11 MYR d   1      -6.853 -22.645   6.548  0.00  0.00     0.033 H 
ATOM      3  H12 MYR d   1      -5.902 -21.641   5.402  0.00  0.00     0.033 H 
ENDROOT
BRANCH   1   4
ATOM      4  C6  MYR d   1      -7.730 -20.774   6.051  0.00  0.00    -0.065 C 
ATOM      5  H9  MYR d   1      -8.729 -21.131   6.342  0.00  0.00     0.033 H 
ATOM      6  H10 MYR d   1      -7.244 -20.298   6.916  0.00  0.00     0.033 H 
BRANCH   4   7
ATOM      7  C5  MYR d   1      -7.917 -19.705   4.984  0.00  0.00    -0.065 C 
ATOM      8  H7  MYR d   1      -8.531 -20.128   4.175  0.00  0.00     0.033 H 
ATOM      9  H8  MYR d   1      -8.445 -18.853   5.437  0.00  0.00     0.033 H 
BRANCH   7  10
ATOM     10  C4  MYR d   1      -6.611 -19.194   4.379  0.00  0.00    -0.065 C 
ATOM     11  H5  MYR d   1      -5.953 -18.867   5.198  0.00  0.00     0.033 H 
ATOM     12  H6  MYR d   1      -6.133 -20.021   3.833  0.00  0.00     0.033 H 
BRANCH  10  13
ATOM     13  C3  MYR d   1      -6.797 -18.039   3.426  0.00  0.00    -0.056 C 
ATOM     14  H3  MYR d   1      -7.567 -18.325   2.695  0.00  0.00     0.033 H 
ATOM     15  H4  MYR d   1      -7.147 -17.174   4.008  0.00  0.00     0.033 H 
BRANCH  13  16
ATOM     16  C2  MYR d   1      -5.573 -17.619   2.666  0.00  0.00     0.016 C 
ATOM     17  H1  MYR d   1      -4.822 -17.292   3.400  0.00  0.00     0.049 H 
ATOM     18  H2  MYR d   1      -5.198 -18.501   2.126  0.00  0.00     0.049 H 
BRANCH  16  19
ATOM     19  C1  MYR d   1      -5.740 -16.524   1.676  0.00  0.00     0.172 C 
ATOM     20  O1  MYR d   1      -6.818 -15.874   1.594  0.00  0.00    -0.648 OA
ATOM     21  O2  MYR d   1      -4.732 -16.275   0.920  0.00  0.00    -0.648 OA
ENDBRANCH  16  19
ENDBRANCH  13  16
ENDBRANCH  10  13
ENDBRANCH   7  10
ENDBRANCH   4   7
ENDBRANCH   1   4
BRANCH   1  22
ATOM     22  C8  MYR d   1      -7.508 -22.738   4.515  0.00  0.00    -0.065 C 
ATOM     23  H13 MYR d   1      -7.679 -22.042   3.680  0.00  0.00     0.033 H 
ATOM     24  H14 MYR d   1      -8.466 -23.177   4.829  0.00  0.00     0.033 H 
BRANCH  22  25
ATOM     25  C9  MYR d   1      -6.584 -23.851   4.048  0.00  0.00    -0.062 C 
ATOM     26  H15 MYR d   1      -6.366 -24.499   4.909  0.00  0.00     0.033 H 
ATOM     27  H16 MYR d   1      -5.651 -23.393   3.688  0.00  0.00     0.033 H 
BRANCH  25  28
ATOM     28  C10 MYR d   1      -7.125 -24.683   2.978  0.00  0.00    -0.050 C 
ATOM     29  H17 MYR d   1      -8.042 -25.144   3.374  0.00  0.00     0.038 H 
ATOM     30  H18 MYR d   1      -6.377 -25.465   2.782  0.00  0.00     0.038 H 
BRANCH  28  31
ATOM     31  C11 MYR d   1      -7.464 -24.131   1.727  0.00  0.00    -0.107 C 
ATOM     32  C12 MYR d   1      -6.607 -23.116   1.227  0.00  0.00    -0.107 C 
ATOM     33  H20 MYR d   1      -5.915 -22.582   1.876  0.00  0.00     0.076 H 
ATOM     34  H19 MYR d   1      -8.339 -24.466   1.172  0.00  0.00     0.076 H 
BRANCH  32  35
ATOM     35  C13 MYR d   1      -6.702 -22.815  -0.243  0.00  0.00    -0.053 C 
ATOM     36  H21 MYR d   1      -7.487 -23.452  -0.677  0.00  0.00     0.038 H 
ATOM     37  H22 MYR d   1      -5.735 -23.056  -0.709  0.00  0.00     0.038 H 
BRANCH  35  38
ATOM     38  C14 MYR d   1      -7.031 -21.384  -0.552  0.00  0.00    -0.073 C 
ATOM     39  H23 MYR d   1      -7.082 -21.247  -1.642  0.00  0.00     0.027 H 
ATOM     40  H24 MYR d   1      -6.250 -20.730  -0.136  0.00  0.00     0.027 H 
ATOM     41  H25 MYR d   1      -8.002 -21.126  -0.104  0.00  0.00     0.027 H 
ENDBRANCH  35  38
ENDBRANCH  32  35
ENDBRANCH  28  31
ENDBRANCH  25  28
ENDBRANCH  22  25
ENDBRANCH   1  22
TORSDOF 12
