REMARK  15 active torsions:
REMARK  status: ('A' for Active; 'I' for Inactive)
REMARK    1  A    between atoms: C1_1  and  C2_4 
REMARK    2  A    between atoms: C2_4  and  C3_5 
REMARK    3  A    between atoms: C3_5  and  C4_6 
REMARK    4  A    between atoms: C4_6  and  C5_7 
REMARK    5  A    between atoms: C5_7  and  C6_8 
REMARK    6  A    between atoms: C6_8  and  C7_9 
REMARK    7  A    between atoms: C7_9  and  C8_10 
REMARK    8  A    between atoms: C8_10  and  C9_11 
REMARK    9  A    between atoms: C9_11  and  CA_12 
REMARK   10  A    between atoms: CA_12  and  CB_13 
REMARK   11  A    between atoms: CB_13  and  CC_14 
REMARK   12  A    between atoms: CC_14  and  CD_15 
REMARK   13  A    between atoms: CD_15  and  CE_16 
REMARK   14  A    between atoms: CE_16  and  CF_17 
REMARK   15  A    between atoms: CF_17  and  CG_18 
ROOT
ATOM      1  C8  PLM d   1       7.590 -22.850  -4.627  0.00  0.00    -0.065 C 
ATOM      2  H13 PLM d   1       7.790 -22.205  -3.759  0.00  0.00     0.033 H 
ATOM      3  H14 PLM d   1       8.519 -23.355  -4.931  0.00  0.00     0.033 H 
ENDROOT
BRANCH   1   4
ATOM      4  C7  PLM d   1       7.124 -21.976  -5.775  0.00  0.00    -0.065 C 
ATOM      5  H11 PLM d   1       7.087 -22.592  -6.686  0.00  0.00     0.033 H 
ATOM      6  H12 PLM d   1       6.115 -21.606  -5.541  0.00  0.00     0.033 H 
BRANCH   4   7
ATOM      7  C6  PLM d   1       8.022 -20.778  -6.044  0.00  0.00    -0.065 C 
ATOM      8  H9  PLM d   1       9.024 -21.155  -6.298  0.00  0.00     0.033 H 
ATOM      9  H10 PLM d   1       7.608 -20.229  -6.903  0.00  0.00     0.033 H 
BRANCH   7  10
ATOM     10  C5  PLM d   1       8.168 -19.798  -4.886  0.00  0.00    -0.065 C 
ATOM     11  H7  PLM d   1       8.711 -20.305  -4.075  0.00  0.00     0.033 H 
ATOM     12  H8  PLM d   1       8.756 -18.938  -5.238  0.00  0.00     0.033 H 
BRANCH  10  13
ATOM     13  C4  PLM d   1       6.857 -19.276  -4.323  0.00  0.00    -0.065 C 
ATOM     14  H5  PLM d   1       6.245 -18.892  -5.152  0.00  0.00     0.033 H 
ATOM     15  H6  PLM d   1       6.329 -20.106  -3.831  0.00  0.00     0.033 H 
BRANCH  13  16
ATOM     16  C3  PLM d   1       7.060 -18.165  -3.315  0.00  0.00    -0.056 C 
ATOM     17  H3  PLM d   1       7.775 -18.511  -2.554  0.00  0.00     0.033 H 
ATOM     18  H4  PLM d   1       7.475 -17.291  -3.838  0.00  0.00     0.033 H 
BRANCH  16  19
ATOM     19  C2  PLM d   1       5.793 -17.747  -2.622  0.00  0.00     0.016 C 
ATOM     20  H1  PLM d   1       5.080 -17.423  -3.394  0.00  0.00     0.049 H 
ATOM     21  H2  PLM d   1       5.392 -18.627  -2.098  0.00  0.00     0.049 H 
BRANCH  19  22
ATOM     22  C1  PLM d   1       5.919 -16.628  -1.613  0.00  0.00     0.172 C 
ATOM     23  O1  PLM d   1       4.896 -16.397  -0.878  0.00  0.00    -0.648 OA
ATOM     24  O2  PLM d   1       6.964 -15.966  -1.551  0.00  0.00    -0.648 OA
ENDBRANCH  19  22
ENDBRANCH  16  19
ENDBRANCH  13  16
ENDBRANCH  10  13
ENDBRANCH   7  10
ENDBRANCH   4   7
ENDBRANCH   1   4
BRANCH   1  25
ATOM     25  C9  PLM d   1       6.564 -23.927  -4.207  0.00  0.00    -0.065 C 
ATOM     26  H15 PLM d   1       6.388 -24.579  -5.075  0.00  0.00     0.033 H 
ATOM     27  H16 PLM d   1       5.629 -23.413  -3.939  0.00  0.00     0.033 H 
BRANCH  25  28
ATOM     28  CA  PLM d   1       6.966 -24.830  -3.012  0.00  0.00    -0.065 C 
ATOM     29  H17 PLM d   1       7.779 -25.488  -3.352  0.00  0.00     0.033 H 
ATOM     30  H18 PLM d   1       6.089 -25.438  -2.745  0.00  0.00     0.033 H 
BRANCH  28  31
ATOM     31  CB  PLM d   1       7.452 -24.114  -1.718  0.00  0.00    -0.062 C 
ATOM     32  H19 PLM d   1       8.409 -23.630  -1.963  0.00  0.00     0.033 H 
ATOM     33  H20 PLM d   1       7.620 -24.898  -0.965  0.00  0.00     0.033 H 
BRANCH  31  34
ATOM     34  CC  PLM d   1       6.566 -23.038  -1.050  0.00  0.00    -0.050 C 
ATOM     35  H21 PLM d   1       5.680 -23.543  -0.637  0.00  0.00     0.038 H 
ATOM     36  H22 PLM d   1       6.253 -22.330  -1.831  0.00  0.00     0.038 H 
BRANCH  34  37
ATOM     37  CD  PLM d   1       7.239 -22.193   0.131  0.00  0.00    -0.107 C 
ATOM     38  H23 PLM d   1       6.760 -22.165   1.109  0.00  0.00     0.076 H 
BRANCH  37  39
ATOM     39  CE  PLM d   1       8.480 -21.461  -0.078  0.00  0.00    -0.107 C 
ATOM     40  H24 PLM d   1       8.985 -21.429  -1.042  0.00  0.00     0.076 H 
BRANCH  39  41
ATOM     41  CF  PLM d   1       9.027 -20.734   1.169  0.00  0.00    -0.053 C 
ATOM     42  H25 PLM d   1       9.025 -21.416   2.032  0.00  0.00     0.038 H 
ATOM     43  H26 PLM d   1       8.405 -19.855   1.394  0.00  0.00     0.038 H 
BRANCH  41  44
ATOM     44  CG  PLM d   1      10.432 -20.301   0.862  0.00  0.00    -0.073 C 
ATOM     45  H27 PLM d   1      10.853 -19.778   1.733  0.00  0.00     0.027 H 
ATOM     46  H28 PLM d   1      10.426 -19.624  -0.005  0.00  0.00     0.027 H 
ATOM     47  H29 PLM d   1      11.046 -21.184   0.633  0.00  0.00     0.027 H 
ENDBRANCH  41  44
ENDBRANCH  39  41
ENDBRANCH  37  39
ENDBRANCH  34  37
ENDBRANCH  31  34
ENDBRANCH  28  31
ENDBRANCH  25  28
ENDBRANCH   1  25
TORSDOF 15
