REMARK  7 active torsions:
REMARK  status: ('A' for Active; 'I' for Inactive)
REMARK    1  A    between atoms: N_1  and  CA_2 
REMARK    2  A    between atoms: CA_2  and  C_3 
REMARK    3  A    between atoms: CA_2  and  CB_5 
REMARK       I    between atoms: C_3  and  N2_9 
REMARK    4  A    between atoms: CB_5  and  CG_6 
REMARK    5  A    between atoms: CG_6  and  CD1_7 
REMARK    6  A    between atoms: CG_6  and  CD2_8 
REMARK    7  A    between atoms: N2_9  and  ON2_10 
ROOT
ATOM      1  CB  LNO d   1      52.028  18.472  -3.348  0.00  0.00    -0.027 C 
ATOM      2  H5  LNO d   1      51.008  18.538  -2.942  0.00  0.00     0.037 H 
ATOM      3  H6  LNO d   1      52.426  19.485  -3.505  0.00  0.00     0.037 H 
ENDROOT
BRANCH   1   4
ATOM      4  CA  LNO d   1      51.998  17.681  -4.752  0.00  0.00     0.178 C 
ATOM      5  H4  LNO d   1      51.013  17.329  -5.093  0.00  0.00     0.099 H 
BRANCH   4   6
ATOM      6  N   LNO d   1      52.907  16.546  -4.354  0.00  0.00    -0.066 N 
ATOM      7  H1  LNO d   1      52.408  15.912  -3.750  0.00  0.00     0.275 HD
ATOM      8  H2  LNO d   1      53.709  16.913  -3.866  0.00  0.00     0.275 HD
ATOM      9  H3  LNO d   1      53.212  16.054  -5.179  0.00  0.00     0.275 HD
ENDBRANCH   4   6
BRANCH   4  10
ATOM     10  C   LNO d   1      52.570  18.758  -5.673  0.00  0.00     0.271 C 
ATOM     11  O   LNO d   1      53.633  18.701  -6.374  0.00  0.00    -0.269 OA
ATOM     12  N2  LNO d   1      51.844  19.830  -5.654  0.00  0.00    -0.236 N 
ATOM     13  H14 LNO d   1      51.000  19.978  -5.139  0.00  0.00     0.197 HD
BRANCH  12  14
ATOM     14  ON2 LNO d   1      52.476  20.725  -6.492  0.00  0.00    -0.287 OA
ATOM     15  H15 LNO d   1      53.353  20.895  -6.168  0.00  0.00     0.244 HD
ENDBRANCH  12  14
ENDBRANCH   4  10
ENDBRANCH   1   4
BRANCH   1  16
ATOM     16  CG  LNO d   1      52.920  17.721  -2.366  0.00  0.00    -0.059 C 
ATOM     17  H7  LNO d   1      52.529  16.697  -2.268  0.00  0.00     0.038 H 
BRANCH  16  18
ATOM     18  CD1 LNO d   1      54.277  17.669  -3.142  0.00  0.00    -0.073 C 
ATOM     19  H8  LNO d   1      55.027  17.142  -2.534  0.00  0.00     0.028 H 
ATOM     20  H9  LNO d   1      54.623  18.693  -3.345  0.00  0.00     0.028 H 
ATOM     21  H10 LNO d   1      54.135  17.135  -4.093  0.00  0.00     0.028 H 
ENDBRANCH  16  18
BRANCH  16  22
ATOM     22  CD2 LNO d   1      53.031  18.254  -0.947  0.00  0.00    -0.073 C 
ATOM     23  H11 LNO d   1      52.036  18.256  -0.477  0.00  0.00     0.028 H 
ATOM     24  H12 LNO d   1      53.428  19.280  -0.971  0.00  0.00     0.028 H 
ATOM     25  H13 LNO d   1      53.709  17.612  -0.366  0.00  0.00     0.028 H 
ENDBRANCH  16  22
ENDBRANCH   1  16
TORSDOF 7
