REMARK  21 active torsions:
REMARK  status: ('A' for Active; 'I' for Inactive)
REMARK    1  A    between atoms: BN1_1  and  BC1'_13 
REMARK    2  A    between atoms: BC5_8  and  BC7_9 
REMARK    3  A    between atoms: BC4'_11  and  BC5'_10 
REMARK    4  A    between atoms: BC5'_10  and  BO5'_20 
REMARK    5  A    between atoms: BC3'_15  and  BO3'_16 
REMARK    6  A    between atoms: BO5'_20  and  PA_17 
REMARK    7  A    between atoms: PA_17  and  O3A_21 
REMARK    8  A    between atoms: O3A_21  and  PB_22 
REMARK    9  A    between atoms: PB_22  and  O3B_25 
REMARK   10  A    between atoms: O3B_25  and  PC_26 
REMARK   11  A    between atoms: PC_26  and  O3C_29 
REMARK   12  A    between atoms: O3C_29  and  PD_30 
REMARK   13  A    between atoms: PD_30  and  O3D_33 
REMARK   14  A    between atoms: O3D_33  and  PE_34 
REMARK   15  A    between atoms: PE_34  and  AO5'_37 
REMARK   16  A    between atoms: AO5'_37  and  AC5'_38 
REMARK   17  A    between atoms: AC5'_38  and  AC4'_39 
REMARK   18  A    between atoms: AC1'_41  and  AN9_46 
REMARK   19  A    between atoms: AC2'_42  and  AO2'_43 
REMARK   20  A    between atoms: AC3'_44  and  AO3'_45 
REMARK   21  A    between atoms: AC6_51  and  AN6_52 
ROOT
ATOM      1  PC  T5A d   1      20.510 107.576  16.164  0.00  0.00     0.427 P 
ATOM      2  O1C T5A d   1      21.817 107.037  16.572  0.00  0.00    -0.624 OA
ATOM      3  O2C T5A d   1      20.210 107.684  14.749  0.00  0.00    -0.624 OA
ENDROOT
BRANCH   1   4
ATOM      4  O3B T5A d   1      19.475 106.676  16.833  0.00  0.00    -0.180 OA
BRANCH   4   5
ATOM      5  PB  T5A d   1      18.364 105.640  16.366  0.00  0.00     0.427 P 
ATOM      6  O2B T5A d   1      18.228 105.910  14.901  0.00  0.00    -0.624 OA
ATOM      7  O1B T5A d   1      17.121 105.632  17.210  0.00  0.00    -0.624 OA
BRANCH   5   8
ATOM      8  O3A T5A d   1      19.154 104.208  16.507  0.00  0.00    -0.180 OA
BRANCH   8   9
ATOM      9  PA  T5A d   1      20.085 103.505  15.698  0.00  0.00     0.417 P 
ATOM     10  O2A T5A d   1      20.900 104.695  15.287  0.00  0.00    -0.624 OA
ATOM     11  O1A T5A d   1      19.355 102.840  14.647  0.00  0.00    -0.624 OA
BRANCH   9  12
ATOM     12  BO5 T5A d   1      21.074 102.515  16.563  0.00  0.00    -0.287 OA
BRANCH  12  13
ATOM     13  BC5 T5A d   1      20.568 101.814  17.616  0.00  0.00     0.058 C 
ATOM     14  H6  T5A d   1      19.841 102.430  18.165  0.00  0.00     0.079 H 
ATOM     15  H7  T5A d   1      20.076 100.898  17.258  0.00  0.00     0.079 H 
BRANCH  13  16
ATOM     16  BC4 T5A d   1      21.750 101.456  18.527  0.00  0.00     0.087 C 
ATOM     17  BO4 T5A d   1      22.648 100.528  17.853  0.00  0.00    -0.356 OA
ATOM     18  BC1 T5A d   1      23.975 100.854  18.413  0.00  0.00     0.116 C 
ATOM     19  BC2 T5A d   1      23.864 102.398  18.360  0.00  0.00     0.002 C 
ATOM     20  H9  T5A d   1      24.134 100.474  19.433  0.00  0.00     0.118 H 
ATOM     21  BC3 T5A d   1      22.533 102.693  18.994  0.00  0.00     0.066 C 
ATOM     22  H10 T5A d   1      23.889 102.756  17.320  0.00  0.00     0.043 H 
ATOM     23  H11 T5A d   1      24.680 102.868  18.929  0.00  0.00     0.043 H 
ATOM     24  H12 T5A d   1      22.098 103.627  18.609  0.00  0.00     0.087 H 
ATOM     25  H8  T5A d   1      21.345 100.957  19.420  0.00  0.00     0.090 H 
BRANCH  18  26
ATOM     26  BN1 T5A d   1      24.959 100.339  17.519  0.00  0.00    -0.282 N 
ATOM     27  BC2 T5A d   1      25.872  99.479  18.018  0.00  0.00     0.331 C 
ATOM     28  BN3 T5A d   1      26.766  99.018  17.082  0.00  0.00    -0.275 N 
ATOM     29  BO2 T5A d   1      25.898  99.024  19.184  0.00  0.00    -0.246 OA
ATOM     30  BC4 T5A d   1      26.712  99.217  15.722  0.00  0.00     0.256 C 
ATOM     31  H2  T5A d   1      27.537  98.481  17.425  0.00  0.00     0.173 HD
ATOM     32  BC5 T5A d   1      25.645 100.064  15.289  0.00  0.00     0.022 C 
ATOM     33  BO4 T5A d   1      27.564  98.768  14.942  0.00  0.00    -0.267 OA
ATOM     34  BC6 T5A d   1      24.820 100.592  16.212  0.00  0.00    -0.002 C 
ATOM     35  H1  T5A d   1      24.013 101.246  15.885  0.00  0.00     0.113 H 
BRANCH  32  36
ATOM     36  BC7 T5A d   1      25.568 100.348  13.786  0.00  0.00    -0.045 C 
ATOM     37  H3  T5A d   1      24.711 101.007  13.581  0.00  0.00     0.033 H 
ATOM     38  H4  T5A d   1      25.442  99.401  13.240  0.00  0.00     0.033 H 
ATOM     39  H5  T5A d   1      26.495 100.840  13.458  0.00  0.00     0.033 H 
ENDBRANCH  32  36
ENDBRANCH  18  26
BRANCH  21  40
ATOM     40  BO3 T5A d   1      22.595 102.749  20.414  0.00  0.00    -0.393 OA
ATOM     41  H13 T5A d   1      21.714 102.794  20.767  0.00  0.00     0.210 HD
ENDBRANCH  21  40
ENDBRANCH  13  16
ENDBRANCH  12  13
ENDBRANCH   9  12
ENDBRANCH   8   9
ENDBRANCH   5   8
ENDBRANCH   4   5
ENDBRANCH   1   4
BRANCH   1  42
ATOM     42  O3C T5A d   1      20.217 109.082  16.804  0.00  0.00    -0.180 OA
BRANCH  42  43
ATOM     43  PD  T5A d   1      20.498 110.719  16.425  0.00  0.00     0.427 P 
ATOM     44  O2D T5A d   1      20.612 111.378  17.714  0.00  0.00    -0.624 OA
ATOM     45  O1D T5A d   1      21.479 110.856  15.307  0.00  0.00    -0.624 OA
BRANCH  43  46
ATOM     46  O3D T5A d   1      19.145 111.133  15.650  0.00  0.00    -0.180 OA
BRANCH  46  47
ATOM     47  PE  T5A d   1      18.308 112.512  15.346  0.00  0.00     0.417 P 
ATOM     48  O2E T5A d   1      17.123 112.034  14.631  0.00  0.00    -0.624 OA
ATOM     49  O1E T5A d   1      19.207 113.496  14.676  0.00  0.00    -0.624 OA
BRANCH  47  50
ATOM     50  AO5 T5A d   1      17.971 112.911  16.811  0.00  0.00    -0.287 OA
BRANCH  50  51
ATOM     51  AC5 T5A d   1      17.461 111.996  17.809  0.00  0.00     0.058 C 
ATOM     52  H14 T5A d   1      18.304 111.597  18.392  0.00  0.00     0.079 H 
ATOM     53  H15 T5A d   1      16.940 111.169  17.304  0.00  0.00     0.079 H 
BRANCH  51  54
ATOM     54  AC4 T5A d   1      16.507 112.676  18.737  0.00  0.00     0.089 C 
ATOM     55  AC3 T5A d   1      15.316 113.480  18.050  0.00  0.00     0.091 C 
ATOM     56  AC2 T5A d   1      15.912 114.923  18.033  0.00  0.00     0.105 C 
ATOM     57  H20 T5A d   1      15.043 113.123  17.046  0.00  0.00     0.091 H 
ATOM     58  AC1 T5A d   1      16.734 114.977  19.318  0.00  0.00     0.139 C 
ATOM     59  H18 T5A d   1      16.526 115.078  17.134  0.00  0.00     0.093 H 
ATOM     60  AO4 T5A d   1      17.226 113.618  19.496  0.00  0.00    -0.353 OA
ATOM     61  H17 T5A d   1      16.110 115.275  20.174  0.00  0.00     0.122 H 
ATOM     62  H16 T5A d   1      16.074 111.912  19.399  0.00  0.00     0.090 H 
BRANCH  55  63
ATOM     63  AO3 T5A d   1      14.215 113.342  19.000  0.00  0.00    -0.390 OA
ATOM     64  H21 T5A d   1      14.527 113.541  19.875  0.00  0.00     0.210 HD
ENDBRANCH  55  63
BRANCH  56  65
ATOM     65  AO2 T5A d   1      14.948 115.962  18.154  0.00  0.00    -0.388 OA
ATOM     66  H19 T5A d   1      14.481 115.865  18.976  0.00  0.00     0.210 HD
ENDBRANCH  56  65
BRANCH  58  67
ATOM     67  AN9 T5A d   1      17.835 115.946  19.147  0.00  0.00    -0.294 N 
ATOM     68  AC8 T5A d   1      18.852 115.936  18.239  0.00  0.00     0.071 A 
ATOM     69  AN7 T5A d   1      19.670 116.956  18.362  0.00  0.00    -0.236 NA
ATOM     70  H25 T5A d   1      18.974 115.159  17.486  0.00  0.00     0.144 H 
ATOM     71  AC5 T5A d   1      19.152 117.731  19.375  0.00  0.00     0.149 A 
ATOM     72  AC4 T5A d   1      17.981 117.149  19.827  0.00  0.00     0.167 A 
ATOM     73  AC6 T5A d   1      19.477 119.027  19.903  0.00  0.00     0.155 C 
ATOM     74  AN3 T5A d   1      17.184 117.615  20.840  0.00  0.00    -0.222 NA
ATOM     75  AC2 T5A d   1      17.571 118.828  21.265  0.00  0.00     0.091 C 
ATOM     76  AN1 T5A d   1      18.634 119.549  20.819  0.00  0.00    -0.222 NA
ATOM     77  H22 T5A d   1      16.972 119.281  22.047  0.00  0.00     0.146 H 
BRANCH  73  78
ATOM     78  AN6 T5A d   1      20.496 119.801  19.551  0.00  0.00    -0.382 N 
ATOM     79  H23 T5A d   1      21.180 119.468  18.857  0.00  0.00     0.157 HD
ATOM     80  H24 T5A d   1      20.603 120.735  19.972  0.00  0.00     0.157 HD
ENDBRANCH  73  78
ENDBRANCH  58  67
ENDBRANCH  51  54
ENDBRANCH  50  51
ENDBRANCH  47  50
ENDBRANCH  46  47
ENDBRANCH  43  46
ENDBRANCH  42  43
ENDBRANCH   1  42
TORSDOF 21
