REMARK  7 active torsions:
REMARK  status: ('A' for Active; 'I' for Inactive)
REMARK    1  A    between atoms: C14_21  and  C15_1 
REMARK    2  A    between atoms: C03_10  and  N04_11 
REMARK    3  A    between atoms: C08_15  and  C07_14 
REMARK    4  A    between atoms: C09_16  and  C08_15 
REMARK    5  A    between atoms: C09_16  and  C25_26 
REMARK    6  A    between atoms: N11_18  and  N10_17 
REMARK    7  A    between atoms: C12_19  and  N11_18 
ROOT
ATOM      1  C09 33R d   1      -7.534   3.075  -0.593  0.00  0.00     0.135 C 
ATOM      2  N10 33R d   1      -6.816   2.694   0.491  0.00  0.00    -0.170 NA
ENDROOT
BRANCH   1   3
ATOM      3  C08 33R d   1      -6.832   3.490  -1.890  0.00  0.00     0.010 C 
ATOM      4  H   33R d   1      -7.428   4.297  -2.341  0.00  0.00     0.050 H 
ATOM      5  H   33R d   1      -5.840   3.877  -1.615  0.00  0.00     0.050 H 
BRANCH   3   6
ATOM      6  C07 33R d   1      -6.631   2.466  -2.922  0.00  0.00    -0.019 A 
ATOM      7  C28 33R d   1      -5.518   1.646  -2.796  0.00  0.00    -0.074 A 
ATOM      8  C29 33R d   1      -5.264   0.645  -3.733  0.00  0.00    -0.082 A 
ATOM      9  H   33R d   1      -4.840   1.785  -1.962  0.00  0.00     0.084 H 
ATOM     10  C01 33R d   1      -6.121   0.471  -4.809  0.00  0.00    -0.081 A 
ATOM     11  H   33R d   1      -4.397   0.004  -3.620  0.00  0.00     0.083 H 
ATOM     12  C02 33R d   1      -7.222   1.278  -4.942  0.00  0.00    -0.050 A 
ATOM     13  H   33R d   1      -5.921  -0.301  -5.543  0.00  0.00     0.083 H 
ATOM     14  C03 33R d   1      -7.491   2.288  -3.995  0.00  0.00     0.109 A 
ATOM     15  H   33R d   1      -7.892   1.138  -5.783  0.00  0.00     0.087 H 
BRANCH  14  16
ATOM     16  N04 33R d   1      -8.702   3.128  -4.208  0.00  0.00    -0.115 N 
ATOM     17  O05 33R d   1      -8.634   4.331  -4.194  0.00  0.00    -0.532 OA
ATOM     18  O06 33R d   1      -9.762   2.595  -4.418  0.00  0.00    -0.532 OA
ENDBRANCH  14  16
ENDBRANCH   3   6
ENDBRANCH   1   3
BRANCH   1  19
ATOM     19  C25 33R d   1      -9.031   2.758  -0.597  0.00  0.00     0.226 C 
ATOM     20  O26 33R d   1      -9.757   3.091  -1.577  0.00  0.00    -0.643 OA
ATOM     21  O27 33R d   1      -9.545   2.143   0.428  0.00  0.00    -0.643 OA
ENDBRANCH   1  19
BRANCH   2  22
ATOM     22  N11 33R d   1      -5.487   2.849   0.613  0.00  0.00    -0.255 N 
ATOM     23  H   33R d   1      -4.931   3.293  -0.131  0.00  0.00     0.191 HD
BRANCH  22  24
ATOM     24  C12 33R d   1      -4.871   2.373   1.818  0.00  0.00     0.187 A 
ATOM     25  N13 33R d   1      -3.579   2.485   2.158  0.00  0.00    -0.222 NA
ATOM     26  C14 33R d   1      -3.237   1.942   3.347  0.00  0.00     0.076 A 
ATOM     27  C23 33R d   1      -4.263   1.350   4.065  0.00  0.00    -0.013 A 
ATOM     28  S24 33R d   1      -5.668   1.547   3.076  0.00  0.00    -0.060 SA
ATOM     29  H   33R d   1      -4.199   0.867   5.039  0.00  0.00     0.098 H 
BRANCH  26  30
ATOM     30  C15 33R d   1      -1.885   2.019   3.816  0.00  0.00    -0.005 A 
ATOM     31  C22 33R d   1      -1.609   2.057   5.183  0.00  0.00    -0.048 A 
ATOM     32  C20 33R d   1      -0.300   2.149   5.615  0.00  0.00     0.056 A 
ATOM     33  H   33R d   1      -2.418   2.014   5.903  0.00  0.00     0.087 H 
ATOM     34 CL21 33R d   1       0.016   2.197   7.292  0.00  0.00    -0.083 Cl
ATOM     35  C18 33R d   1       0.748   2.194   4.685  0.00  0.00     0.055 A 
ATOM     36  C17 33R d   1       0.463   2.163   3.327  0.00  0.00    -0.059 A 
ATOM     37 CL19 33R d   1       2.413   2.306   5.209  0.00  0.00    -0.083 Cl
ATOM     38  C16 33R d   1      -0.842   2.074   2.896  0.00  0.00    -0.069 A 
ATOM     39  H   33R d   1       1.269   2.209   2.604  0.00  0.00     0.086 H 
ATOM     40  H   33R d   1      -1.058   2.047   1.834  0.00  0.00     0.085 H 
ENDBRANCH  26  30
ENDBRANCH  22  24
ENDBRANCH   2  22
TORSDOF 7
