REMARK  8 active torsions:
REMARK  status: ('A' for Active; 'I' for Inactive)
REMARK    1  A    between atoms: C16_2  and  C15_4 
REMARK    2  A    between atoms: C11_9  and  C10_10 
REMARK       I    between atoms: C10_10  and  N_12 
REMARK    3  A    between atoms: N_12  and  C9_13 
REMARK    4  A    between atoms: C5_15  and  C6_16 
REMARK    5  A    between atoms: C6_16  and  C7_18 
REMARK    6  A    between atoms: C2_21  and  O_22 
REMARK    7  A    between atoms: O_22  and  C1_23 
REMARK    8  A    between atoms: C1_23  and  C_24 
ROOT
ATOM      1  C9  UL4 d   1     -14.230  -2.060  -1.760  0.00  0.00     0.069 A 
ATOM      2  C8  UL4 d   1     -13.202  -1.173  -2.047  0.00  0.00    -0.041 A 
ATOM      3  C5  UL4 d   1     -12.179  -0.970  -1.122  0.00  0.00     0.012 A 
ATOM      4  C4  UL4 d   1     -12.169  -1.632   0.098  0.00  0.00    -0.067 A 
ATOM      5  C3  UL4 d   1     -13.210  -2.512   0.384  0.00  0.00    -0.048 A 
ATOM      6  C2  UL4 d   1     -14.226  -2.706  -0.538  0.00  0.00     0.095 A 
ATOM      7  H6  UL4 d   1     -13.194  -0.638  -2.990  0.00  0.00     0.088 H 
ATOM      8  H10 UL4 d   1     -11.370  -1.468   0.811  0.00  0.00     0.085 H 
ATOM      9  H11 UL4 d   1     -13.225  -3.045   1.328  0.00  0.00     0.087 H 
ENDROOT
BRANCH   1  10
ATOM     10  N   UL4 d   1     -15.250  -2.265  -2.636  0.00  0.00    -0.320 N 
ATOM     11  C10 UL4 d   1     -15.453  -3.444  -3.236  0.00  0.00     0.256 C 
ATOM     12  O2  UL4 d   1     -14.761  -4.420  -3.043  0.00  0.00    -0.267 OA
ATOM     13  H5  UL4 d   1     -15.871  -1.508  -2.839  0.00  0.00     0.169 HD
BRANCH  11  14
ATOM     14  C11 UL4 d   1     -16.576  -3.596  -4.213  0.00  0.00     0.033 A 
ATOM     15  C12 UL4 d   1     -17.600  -2.662  -4.288  0.00  0.00    -0.068 A 
ATOM     16  C13 UL4 d   1     -18.625  -2.851  -5.210  0.00  0.00    -0.081 A 
ATOM     17  H3  UL4 d   1     -17.601  -1.796  -3.636  0.00  0.00     0.085 H 
ATOM     18  C14 UL4 d   1     -18.634  -3.956  -6.053  0.00  0.00    -0.066 A 
ATOM     19  H2  UL4 d   1     -19.428  -2.126  -5.272  0.00  0.00     0.083 H 
ATOM     20  C15 UL4 d   1     -17.603  -4.885  -5.963  0.00  0.00     0.041 A 
ATOM     21  H1  UL4 d   1     -19.434  -4.092  -6.771  0.00  0.00     0.085 H 
ATOM     22  C17 UL4 d   1     -16.571  -4.705  -5.049  0.00  0.00    -0.051 A 
ATOM     23  H4  UL4 d   1     -15.765  -5.428  -4.989  0.00  0.00     0.086 H 
BRANCH  20  24
ATOM     24  C16 UL4 d   1     -17.595  -6.083  -6.862  0.00  0.00     0.209 C 
ATOM     25  O4  UL4 d   1     -16.623  -6.818  -6.904  0.00  0.00    -0.644 OA
ATOM     26  O3  UL4 d   1     -18.647  -6.337  -7.631  0.00  0.00    -0.644 OA
ENDBRANCH  20  24
ENDBRANCH  11  14
ENDBRANCH   1  10
BRANCH   6  27
ATOM     27  O   UL4 d   1     -15.242  -3.570  -0.266  0.00  0.00    -0.349 OA
BRANCH  27  28
ATOM     28  C1  UL4 d   1     -15.158  -4.461   0.843  0.00  0.00     0.023 C 
ATOM     29  H12 UL4 d   1     -15.115  -3.895   1.785  0.00  0.00     0.074 H 
ATOM     30  H13 UL4 d   1     -14.264  -5.096   0.755  0.00  0.00     0.074 H 
BRANCH  28  31
ATOM     31  C   UL4 d   1     -16.407  -5.307   0.798  0.00  0.00    -0.056 C 
ATOM     32  H14 UL4 d   1     -16.398  -6.019   1.636  0.00  0.00     0.030 H 
ATOM     33  H15 UL4 d   1     -16.441  -5.860  -0.152  0.00  0.00     0.030 H 
ATOM     34  H16 UL4 d   1     -17.292  -4.659   0.877  0.00  0.00     0.030 H 
ENDBRANCH  28  31
ENDBRANCH  27  28
ENDBRANCH   6  27
BRANCH   3  35
ATOM     35  C6  UL4 d   1     -11.070  -0.040  -1.445  0.00  0.00     0.155 C 
ATOM     36  O1  UL4 d   1     -10.206   0.149  -0.601  0.00  0.00    -0.293 OA
BRANCH  35  37
ATOM     37  C7  UL4 d   1     -11.031   0.588  -2.803  0.00  0.00    -0.017 C 
ATOM     38  H7  UL4 d   1     -10.152   1.245  -2.878  0.00  0.00     0.038 H 
ATOM     39  H8  UL4 d   1     -11.945   1.179  -2.960  0.00  0.00     0.038 H 
ATOM     40  H9  UL4 d   1     -10.967  -0.199  -3.569  0.00  0.00     0.038 H 
ENDBRANCH  35  37
ENDBRANCH   3  35
TORSDOF 8
