REMARK  5 active torsions:
REMARK  status: ('A' for Active; 'I' for Inactive)
REMARK    1  A    between atoms: CA_2  and  N_1 
REMARK    2  A    between atoms: CA_2  and  C_3 
REMARK    3  A    between atoms: CA_2  and  CB_5 
REMARK    4  A    between atoms: CB_5  and  CG_6 
REMARK    5  A    between atoms: CZ_11  and  OH_12 
ROOT
ATOM      1  CG  TYR d   1      13.861   5.095  27.801  0.00  0.00    -0.056 A 
ATOM      2  CD1 TYR d   1      14.516   5.932  28.780  0.00  0.00    -0.074 A 
ATOM      3  CD2 TYR d   1      13.771   5.563  26.526  0.00  0.00    -0.074 A 
ATOM      4  CE1 TYR d   1      15.049   7.146  28.403  0.00  0.00    -0.051 A 
ATOM      5  CE2 TYR d   1      14.277   6.815  26.129  0.00  0.00    -0.051 A 
ATOM      6  CZ  TYR d   1      14.927   7.577  27.080  0.00  0.00     0.065 A 
ATOM      7  H7  TYR d   1      14.588   5.605  29.811  0.00  0.00     0.084 H 
ATOM      8  H8  TYR d   1      13.287   4.942  25.781  0.00  0.00     0.084 H 
ATOM      9  H9  TYR d   1      15.561   7.764  29.131  0.00  0.00     0.087 H 
ATOM     10  H10 TYR d   1      14.161   7.169  25.111  0.00  0.00     0.087 H 
ENDROOT
BRANCH   1  11
ATOM     11  CB  TYR d   1      13.286   3.766  28.184  0.00  0.00    -0.005 C 
ATOM     12  H5  TYR d   1      12.559   3.920  28.995  0.00  0.00     0.044 H 
ATOM     13  H6  TYR d   1      12.774   3.340  27.308  0.00  0.00     0.044 H 
BRANCH  11  14
ATOM     14  CA  TYR d   1      14.370   2.747  28.672  0.00  0.00     0.186 C 
ATOM     15  H4  TYR d   1      14.804   3.146  29.601  0.00  0.00     0.101 H 
BRANCH  14  16
ATOM     16  C   TYR d   1      13.696   1.403  29.005  0.00  0.00     0.204 C 
ATOM     17  OXT TYR d   1      13.916   0.408  28.303  0.00  0.00    -0.646 OA
ATOM     18  O   TYR d   1      12.901   1.409  29.976  0.00  0.00    -0.646 OA
ENDBRANCH  14  16
BRANCH  14  19
ATOM     19  N   TYR d   1      15.472   2.571  27.722  0.00  0.00    -0.065 N 
ATOM     20  H1  TYR d   1      15.892   3.466  27.525  0.00  0.00     0.275 HD
ATOM     21  H2  TYR d   1      15.118   2.170  26.867  0.00  0.00     0.275 HD
ATOM     22  H3  TYR d   1      16.164   1.956  28.120  0.00  0.00     0.275 HD
ENDBRANCH  14  19
ENDBRANCH  11  14
ENDBRANCH   1  11
BRANCH   6  23
ATOM     23  OH  TYR d   1      15.414   8.793  26.657  0.00  0.00    -0.361 OA
ATOM     24  H11 TYR d   1      15.234   8.900  25.730  0.00  0.00     0.217 HD
ENDBRANCH   6  23
TORSDOF 5
