REMARK  7 active torsions:
REMARK  status: ('A' for Active; 'I' for Inactive)
REMARK    1  A    between atoms: CAF_1  and  CAE_2 
REMARK    2  A    between atoms: CAC_5  and  CAG_6 
REMARK    3  A    between atoms: CAD_7  and  CAH_8 
REMARK    4  A    between atoms: CAJ_11  and  NAR_12 
REMARK    5  A    between atoms: CAL_14  and  CAN_15 
REMARK    6  A    between atoms: CAN_15  and  OAP_17 
REMARK    7  A    between atoms: OAP_17  and  CAQ_18 
ROOT
ATOM      1  CAH 36Z d   1     -13.004  23.166   9.586  0.00  0.00    -0.018 A 
ATOM      2  CAM 36Z d   1     -13.596  22.195   8.770  0.00  0.00    -0.056 A 
ATOM      3  CAI 36Z d   1     -11.657  23.500   9.375  0.00  0.00    -0.047 A 
ATOM      4  CAJ 36Z d   1     -10.907  22.850   8.395  0.00  0.00     0.027 A 
ATOM      5  CAK 36Z d   1     -11.495  21.872   7.599  0.00  0.00    -0.042 A 
ATOM      6  CAL 36Z d   1     -12.847  21.537   7.783  0.00  0.00     0.042 A 
ATOM      7  H   36Z d   1     -14.643  21.949   8.902  0.00  0.00     0.086 H 
ATOM      8  H   36Z d   1     -11.195  24.271   9.980  0.00  0.00     0.088 H 
ATOM      9  H   36Z d   1     -10.910  21.369   6.837  0.00  0.00     0.088 H 
ENDROOT
BRANCH   1  10
ATOM     10  CAD 36Z d   1     -13.715  23.835  10.509  0.00  0.00     0.032 A 
ATOM     11  CAE 36Z d   1     -13.411  24.159  11.758  0.00  0.00     0.088 A 
ATOM     12  OAA 36Z d   1     -14.470  24.911  12.262  0.00  0.00    -0.217 OA
ATOM     13  NAB 36Z d   1     -15.283  25.030  11.402  0.00  0.00    -0.133 NA
ATOM     14  CAC 36Z d   1     -14.891  24.403  10.305  0.00  0.00     0.071 A 
BRANCH  11  15
ATOM     15  CAF 36Z d   1     -12.150  23.804  12.560  0.00  0.00    -0.028 C 
ATOM     16  H   36Z d   1     -11.473  23.206  11.933  0.00  0.00     0.036 H 
ATOM     17  H   36Z d   1     -12.433  23.224  13.451  0.00  0.00     0.036 H 
ATOM     18  H   36Z d   1     -11.641  24.728  12.871  0.00  0.00     0.036 H 
ENDBRANCH  11  15
BRANCH  14  19
ATOM     19  CAG 36Z d   1     -15.722  24.360   9.005  0.00  0.00    -0.033 C 
ATOM     20  H   36Z d   1     -15.181  23.779   8.243  0.00  0.00     0.035 H 
ATOM     21  H   36Z d   1     -15.883  25.385   8.639  0.00  0.00     0.035 H 
ATOM     22  H   36Z d   1     -16.694  23.885   9.206  0.00  0.00     0.035 H 
ENDBRANCH  14  19
ENDBRANCH   1  10
BRANCH   6  23
ATOM     23  CAN 36Z d   1     -13.440  20.565   6.964  0.00  0.00     0.293 C 
ATOM     24  OAO 36Z d   1     -12.784  20.043   6.056  0.00  0.00    -0.259 OA
BRANCH  23  25
ATOM     25  OAP 36Z d   1     -14.781  20.345   7.184  0.00  0.00    -0.323 OA
BRANCH  25  26
ATOM     26  CAQ 36Z d   1     -15.289  19.065   6.783  0.00  0.00     0.013 C 
ATOM     27  H   36Z d   1     -16.364  19.010   7.009  0.00  0.00     0.067 H 
ATOM     28  H   36Z d   1     -14.759  18.272   7.331  0.00  0.00     0.067 H 
ATOM     29  H   36Z d   1     -15.134  18.931   5.702  0.00  0.00     0.067 H 
ENDBRANCH  25  26
ENDBRANCH  23  25
ENDBRANCH   6  23
BRANCH   4  30
ATOM     30  NAR 36Z d   1      -9.632  23.167   8.219  0.00  0.00    -0.399 N 
ATOM     31  H   36Z d   1      -9.077  22.688   7.496  0.00  0.00     0.156 HD
ATOM     32  H   36Z d   1      -9.196  23.893   8.806  0.00  0.00     0.156 HD
ENDBRANCH   4  30
TORSDOF 7
