REMARK  7 active torsions:
REMARK  status: ('A' for Active; 'I' for Inactive)
REMARK    1  A    between atoms: CAP_1  and  CAK_2 
REMARK    2  A    between atoms: CAJ_3  and  CAB_4 
REMARK    3  A    between atoms: CAD_6  and  NAQ_7 
REMARK    4  A    between atoms: NAQ_7  and  SAR_8 
REMARK    5  A    between atoms: SAR_8  and  CAS_9 
REMARK    6  A    between atoms: CAF_18  and  CAG_19 
REMARK    7  A    between atoms: CAN_23  and  CAO_24 
ROOT
ATOM      1  CAB 37N d   1     -12.420  22.513   9.578  0.00  0.00    -0.018 A 
ATOM      2  CAC 37N d   1     -12.525  21.127   9.497  0.00  0.00    -0.046 A 
ATOM      3  CAD 37N d   1     -11.617  20.410   8.708  0.00  0.00     0.044 A 
ATOM      4  CAE 37N d   1     -10.621  21.084   8.018  0.00  0.00    -0.040 A 
ATOM      5  CAF 37N d   1     -10.518  22.469   8.109  0.00  0.00     0.043 A 
ATOM      6  CAA 37N d   1     -11.416  23.177   8.884  0.00  0.00    -0.055 A 
ATOM      7  H   37N d   1     -13.305  20.606  10.041  0.00  0.00     0.088 H 
ATOM      8  H   37N d   1      -9.919  20.530   7.405  0.00  0.00     0.088 H 
ATOM      9  H   37N d   1     -11.337  24.256   8.951  0.00  0.00     0.086 H 
ENDROOT
BRANCH   3  10
ATOM     10  NAQ 37N d   1     -11.666  18.993   8.590  0.00  0.00    -0.281 N 
ATOM     11  H   37N d   1     -10.828  18.476   8.764  0.00  0.00     0.179 HD
BRANCH  10  12
ATOM     12  SAR 37N d   1     -13.034  18.151   8.180  0.00  0.00     0.263 S 
ATOM     13  OAY 37N d   1     -14.087  18.358   9.136  0.00  0.00    -0.200 OA
ATOM     14  OAZ 37N d   1     -12.828  16.734   8.364  0.00  0.00    -0.200 OA
BRANCH  12  15
ATOM     15  CAS 37N d   1     -13.554  18.506   6.512  0.00  0.00     0.079 A 
ATOM     16  CAT 37N d   1     -12.708  18.205   5.441  0.00  0.00    -0.060 A 
ATOM     17  CAU 37N d   1     -13.101  18.469   4.130  0.00  0.00    -0.082 A 
ATOM     18  H   37N d   1     -11.737  17.762   5.632  0.00  0.00     0.085 H 
ATOM     19  CAV 37N d   1     -14.342  19.033   3.885  0.00  0.00    -0.083 A 
ATOM     20  H   37N d   1     -12.438  18.234   3.305  0.00  0.00     0.083 H 
ATOM     21  CAW 37N d   1     -15.193  19.338   4.952  0.00  0.00    -0.082 A 
ATOM     22  H   37N d   1     -14.653  19.238   2.867  0.00  0.00     0.083 H 
ATOM     23  CAX 37N d   1     -14.804  19.074   6.264  0.00  0.00    -0.060 A 
ATOM     24  H   37N d   1     -16.162  19.783   4.757  0.00  0.00     0.083 H 
ATOM     25  H   37N d   1     -15.469  19.309   7.087  0.00  0.00     0.085 H 
ENDBRANCH  12  15
ENDBRANCH  10  12
ENDBRANCH   3  10
BRANCH   1  26
ATOM     26  CAJ 37N d   1     -13.361  23.360  10.396  0.00  0.00     0.032 A 
ATOM     27  CAK 37N d   1     -13.159  23.881  11.707  0.00  0.00     0.088 A 
ATOM     28  OAL 37N d   1     -14.233  24.602  12.025  0.00  0.00    -0.217 OA
ATOM     29  NAM 37N d   1     -15.102  24.609  11.047  0.00  0.00    -0.133 NA
ATOM     30  CAN 37N d   1     -14.663  23.884  10.034  0.00  0.00     0.071 A 
BRANCH  27  31
ATOM     31  CAP 37N d   1     -11.922  23.662  12.564  0.00  0.00    -0.028 C 
ATOM     32  H   37N d   1     -12.046  24.182  13.526  0.00  0.00     0.036 H 
ATOM     33  H   37N d   1     -11.039  24.061  12.043  0.00  0.00     0.036 H 
ATOM     34  H   37N d   1     -11.787  22.585  12.744  0.00  0.00     0.036 H 
ENDBRANCH  27  31
BRANCH  30  35
ATOM     35  CAO 37N d   1     -15.403  23.659   8.735  0.00  0.00    -0.033 C 
ATOM     36  H   37N d   1     -16.366  24.189   8.765  0.00  0.00     0.035 H 
ATOM     37  H   37N d   1     -15.581  22.582   8.596  0.00  0.00     0.035 H 
ATOM     38  H   37N d   1     -14.800  24.042   7.898  0.00  0.00     0.035 H 
ENDBRANCH  30  35
ENDBRANCH   1  26
BRANCH   5  39
ATOM     39  CAG 37N d   1      -9.454  23.203   7.339  0.00  0.00     0.209 C 
ATOM     40  OAH 37N d   1      -9.311  24.455   7.406  0.00  0.00    -0.644 OA
ATOM     41  OAI 37N d   1      -8.736  22.540   6.564  0.00  0.00    -0.644 OA
ENDBRANCH   5  39
TORSDOF 7
