REMARK  8 active torsions:
REMARK  status: ('A' for Active; 'I' for Inactive)
REMARK    1  A    between atoms: PAN_2  and  OAJ_3 
REMARK    2  A    between atoms: PAN_2  and  OAK_6 
REMARK    3  A    between atoms: OAJ_3  and  CAC_4 
REMARK    4  A    between atoms: OAK_6  and  CAM_7 
REMARK    5  A    between atoms: CAM_7  and  CAD_8 
REMARK    6  A    between atoms: CAM_7  and  CAG_9 
REMARK    7  A    between atoms: CAG_9  and  CAL_10 
REMARK       I    between atoms: CAL_10  and  NAH_12 
REMARK    8  A    between atoms: NAH_12  and  CAA_13 
ROOT
ATOM      1  CAM MVH d   1      -6.062  15.289   2.899  0.00  0.00     0.055 C 
ATOM      2  H   MVH d   1      -5.336  15.198   2.078  0.00  0.00     0.084 H 
ENDROOT
BRANCH   1   3
ATOM      3  OAK MVH d   1      -5.501  15.942   4.022  0.00  0.00    -0.284 OA
BRANCH   3   4
ATOM      4  PAN MVH d   1      -3.950  16.045   4.251  0.00  0.00     0.408 P 
ATOM      5  OAI MVH d   1      -4.305  14.532   4.626  0.00  0.00    -0.624 OA
ATOM      6  OAF MVH d   1      -3.968  16.493   2.817  0.00  0.00    -0.624 OA
BRANCH   4   7
ATOM      7  OAJ MVH d   1      -4.497  17.165   5.378  0.00  0.00    -0.295 OA
BRANCH   7   8
ATOM      8  CAC MVH d   1      -3.614  17.626   6.384  0.00  0.00     0.016 C 
ATOM      9  H   MVH d   1      -4.137  18.349   7.028  0.00  0.00     0.067 H 
ATOM     10  H   MVH d   1      -2.747  18.113   5.915  0.00  0.00     0.067 H 
ATOM     11  H   MVH d   1      -3.273  16.774   6.991  0.00  0.00     0.067 H 
ENDBRANCH   7   8
ENDBRANCH   4   7
ENDBRANCH   3   4
ENDBRANCH   1   3
BRANCH   1  12
ATOM     12  CAD MVH d   1      -6.513  13.894   3.375  0.00  0.00    -0.051 C 
ATOM     13  H   MVH d   1      -6.958  13.345   2.532  0.00  0.00     0.030 H 
ATOM     14  H   MVH d   1      -7.259  14.003   4.176  0.00  0.00     0.030 H 
ATOM     15  H   MVH d   1      -5.644  13.338   3.756  0.00  0.00     0.030 H 
ENDBRANCH   1  12
BRANCH   1  16
ATOM     16  CAG MVH d   1      -7.260  16.159   2.470  0.00  0.00     0.033 C 
ATOM     17  H   MVH d   1      -6.941  17.211   2.509  0.00  0.00     0.051 H 
ATOM     18  H   MVH d   1      -8.070  15.995   3.196  0.00  0.00     0.051 H 
BRANCH  16  19
ATOM     19  CAL MVH d   1      -7.828  15.893   1.065  0.00  0.00     0.219 C 
ATOM     20  OAE MVH d   1      -7.564  14.848   0.509  0.00  0.00    -0.274 OA
ATOM     21  NAH MVH d   1      -8.628  16.876   0.555  0.00  0.00    -0.365 N 
ATOM     22  H   MVH d   1      -8.789  17.698   1.101  0.00  0.00     0.161 HD
BRANCH  21  23
ATOM     23  CAA MVH d   1      -9.256  16.768  -0.759  0.00  0.00    -0.018 C 
ATOM     24  H   MVH d   1      -9.850  17.672  -0.957  0.00  0.00     0.056 H 
ATOM     25  H   MVH d   1      -9.913  15.886  -0.780  0.00  0.00     0.056 H 
ATOM     26  H   MVH d   1      -8.478  16.665  -1.530  0.00  0.00     0.056 H 
ENDBRANCH  21  23
ENDBRANCH  16  19
ENDBRANCH   1  16
TORSDOF 8
