REMARK  6 active torsions:
REMARK  status: ('A' for Active; 'I' for Inactive)
REMARK       I    between atoms: C80_2  and  N82_3 
REMARK    1  A    between atoms: C80_2  and  C23_5 
REMARK    2  A    between atoms: N82_3  and  C88_4 
REMARK    3  A    between atoms: C18_9  and  S24_11 
REMARK    4  A    between atoms: S24_11  and  C07_12 
REMARK    5  A    between atoms: C13_19  and  C16_21 
REMARK    6  A    between atoms: C17_22  and  C02_23 
ROOT
ATOM      1  C07 AXI d   1      59.391  15.714  48.741  0.00  0.00     0.008 A 
ATOM      2  C08 AXI d   1      59.311  15.750  50.141  0.00  0.00    -0.065 A 
ATOM      3  C09 AXI d   1      58.537  14.794  50.828  0.00  0.00    -0.067 A 
ATOM      4  C12 AXI d   1      58.710  14.733  48.028  0.00  0.00    -0.036 A 
ATOM      5  C11 AXI d   1      57.916  13.758  48.730  0.00  0.00     0.090 A 
ATOM      6  N15 AXI d   1      57.146  12.691  48.298  0.00  0.00    -0.174 NA
ATOM      7  N14 AXI d   1      56.592  12.068  49.393  0.00  0.00    -0.277 N 
ATOM      8  C13 AXI d   1      56.988  12.712  50.507  0.00  0.00     0.062 A 
ATOM      9  C10 AXI d   1      57.836  13.794  50.100  0.00  0.00     0.022 A 
ATOM     10  H9  AXI d   1      59.845  16.514  50.695  0.00  0.00     0.085 H 
ATOM     11  H10 AXI d   1      58.476  14.821  51.910  0.00  0.00     0.085 H 
ATOM     12  H11 AXI d   1      58.777  14.702  46.947  0.00  0.00     0.089 H 
ATOM     13  H12 AXI d   1      55.975  11.244  49.365  0.00  0.00     0.189 HD
ENDROOT
BRANCH   1  14
ATOM     14  S24 AXI d   1      60.388  16.932  47.884  0.00  0.00    -0.089 SA
BRANCH  14  15
ATOM     15  C18 AXI d   1      62.046  16.831  48.545  0.00  0.00     0.021 A 
ATOM     16  C23 AXI d   1      62.900  17.942  48.502  0.00  0.00     0.049 A 
ATOM     17  C22 AXI d   1      64.185  17.849  49.022  0.00  0.00    -0.066 A 
ATOM     18  C21 AXI d   1      64.624  16.661  49.586  0.00  0.00    -0.082 A 
ATOM     19  H5  AXI d   1      64.846  18.707  48.987  0.00  0.00     0.085 H 
ATOM     20  C20 AXI d   1      63.775  15.555  49.632  0.00  0.00    -0.082 A 
ATOM     21  H6  AXI d   1      65.627  16.591  49.991  0.00  0.00     0.083 H 
ATOM     22  C19 AXI d   1      62.485  15.648  49.108  0.00  0.00    -0.065 A 
ATOM     23  H7  AXI d   1      64.117  14.626  50.074  0.00  0.00     0.083 H 
ATOM     24  H8  AXI d   1      61.825  14.789  49.143  0.00  0.00     0.085 H 
BRANCH  16  25
ATOM     25  C80 AXI d   1      62.441  19.224  47.899  0.00  0.00     0.252 C 
ATOM     26  O81 AXI d   1      62.022  19.247  46.758  0.00  0.00    -0.268 OA
ATOM     27  N82 AXI d   1      62.498  20.429  48.662  0.00  0.00    -0.361 N 
ATOM     28  H1  AXI d   1      62.844  20.414  49.600  0.00  0.00     0.162 HD
BRANCH  27  29
ATOM     29  C88 AXI d   1      62.052  21.674  48.070  0.00  0.00    -0.018 C 
ATOM     30  H2  AXI d   1      62.169  22.489  48.799  0.00  0.00     0.056 H 
ATOM     31  H3  AXI d   1      60.993  21.586  47.785  0.00  0.00     0.056 H 
ATOM     32  H4  AXI d   1      62.656  21.892  47.177  0.00  0.00     0.056 H 
ENDBRANCH  27  29
ENDBRANCH  16  25
ENDBRANCH  14  15
ENDBRANCH   1  14
BRANCH   8  33
ATOM     33  C16 AXI d   1      56.609  12.355  51.918  0.00  0.00    -0.053 C 
ATOM     34  C17 AXI d   1      57.313  12.863  52.977  0.00  0.00    -0.053 C 
ATOM     35  H14 AXI d   1      58.042  13.657  52.824  0.00  0.00     0.087 H 
ATOM     36  H13 AXI d   1      55.768  11.687  52.099  0.00  0.00     0.087 H 
BRANCH  34  37
ATOM     37  C02 AXI d   1      57.067  12.311  54.354  0.00  0.00     0.056 A 
ATOM     38  N03 AXI d   1      57.691  12.856  55.408  0.00  0.00    -0.261 NA
ATOM     39  C04 AXI d   1      57.501  12.394  56.656  0.00  0.00     0.003 A 
ATOM     40  C05 AXI d   1      56.641  11.329  56.863  0.00  0.00    -0.066 A 
ATOM     41  H15 AXI d   1      58.017  12.851  57.493  0.00  0.00     0.114 H 
ATOM     42  C06 AXI d   1      55.983  10.748  55.790  0.00  0.00    -0.079 A 
ATOM     43  H16 AXI d   1      56.482  10.949  57.866  0.00  0.00     0.085 H 
ATOM     44  C01 AXI d   1      56.198  11.245  54.513  0.00  0.00    -0.055 A 
ATOM     45  H17 AXI d   1      55.308   9.915  55.947  0.00  0.00     0.083 H 
ATOM     46  H18 AXI d   1      55.696  10.808  53.657  0.00  0.00     0.087 H 
ENDBRANCH  34  37
ENDBRANCH   8  33
TORSDOF 6
