REMARK  9 active torsions:
REMARK  status: ('A' for Active; 'I' for Inactive)
REMARK    1  A    between atoms: C15_3  and  C17_2 
REMARK       I    between atoms: N13_22  and  C15_3 
REMARK    2  A    between atoms: C20_5  and  C23_8 
REMARK    3  A    between atoms: C23_8  and  N24_25 
REMARK    4  A    between atoms: C11_9  and  C12_10 
REMARK    5  A    between atoms: C12_10  and  N13_22 
REMARK    6  A    between atoms: C12_10  and  C14_23 
REMARK    7  A    between atoms: C14_23  and  C1_12 
REMARK    8  A    between atoms: C25_26  and  C8_19 
REMARK    9  A    between atoms: C28_28  and  C31_31 
REMARK       I    between atoms: C31_31  and  N33_33 
ROOT
ATOM      1  C12 39D d   1      39.943 -20.914  28.915  0.00  0.00     0.073 C 
ATOM      2  H   39D d   1      39.624 -21.061  29.957  0.00  0.00     0.085 H 
ENDROOT
BRANCH   1   3
ATOM      3  C11 39D d   1      41.432 -20.760  28.920  0.00  0.00     0.128 A 
ATOM      4  N7  39D d   1      42.229 -21.020  29.943  0.00  0.00    -0.231 NA
ATOM      5  C8  39D d   1      43.509 -20.847  29.451  0.00  0.00     0.084 A 
ATOM      6  C9  39D d   1      43.450 -20.485  28.135  0.00  0.00     0.007 A 
ATOM      7  N10 39D d   1      42.129 -20.418  27.814  0.00  0.00    -0.350 N 
ATOM      8  H   39D d   1      44.293 -20.289  27.474  0.00  0.00     0.115 H 
ATOM      9  H   39D d   1      41.734 -20.156  26.899  0.00  0.00     0.166 HD
BRANCH   5  10
ATOM     10  C25 39D d   1      44.684 -21.056  30.313  0.00  0.00    -0.006 A 
ATOM     11  C26 39D d   1      45.924 -20.530  29.958  0.00  0.00    -0.070 A 
ATOM     12  C27 39D d   1      47.060 -20.833  30.692  0.00  0.00    -0.067 A 
ATOM     13  H   39D d   1      46.002 -19.876  29.097  0.00  0.00     0.084 H 
ATOM     14  C28 39D d   1      46.984 -21.632  31.831  0.00  0.00     0.031 A 
ATOM     15  H   39D d   1      48.021 -20.443  30.376  0.00  0.00     0.085 H 
ATOM     16  C29 39D d   1      45.734 -22.127  32.207  0.00  0.00    -0.067 A 
ATOM     17  C30 39D d   1      44.605 -21.852  31.453  0.00  0.00    -0.070 A 
ATOM     18  H   39D d   1      45.646 -22.734  33.100  0.00  0.00     0.085 H 
ATOM     19  H   39D d   1      43.648 -22.262  31.754  0.00  0.00     0.084 H 
BRANCH  14  20
ATOM     20  C31 39D d   1      48.282 -21.958  32.561  0.00  0.00     0.249 C 
ATOM     21  O32 39D d   1      49.375 -21.559  32.088  0.00  0.00    -0.268 OA
ATOM     22  N33 39D d   1      48.221 -22.669  33.679  0.00  0.00    -0.366 N 
ATOM     23  H   39D d   1      49.060 -22.895  34.175  0.00  0.00     0.159 HD
ATOM     24  H   39D d   1      47.336 -22.979  34.026  0.00  0.00     0.159 HD
ENDBRANCH  14  20
ENDBRANCH   5  10
ENDBRANCH   1   3
BRANCH   1  25
ATOM     25  N13 39D d   1      39.259 -19.735  28.412  0.00  0.00    -0.349 N 
ATOM     26  C15 39D d   1      39.169 -18.617  29.136  0.00  0.00     0.222 C 
ATOM     27  O16 39D d   1      39.752 -18.466  30.214  0.00  0.00    -0.273 OA
ATOM     28  H   39D d   1      38.846 -19.762  27.502  0.00  0.00     0.163 HD
BRANCH  26  29
ATOM     29  C17 39D d   1      38.234 -17.560  28.566  0.00  0.00     0.024 C 
ATOM     30  C18 39D d   1      39.022 -16.439  27.859  0.00  0.00    -0.053 C 
ATOM     31  C19 39D d   1      38.084 -15.334  27.336  0.00  0.00    -0.059 C 
ATOM     32  H   39D d   1      39.574 -16.870  27.011  0.00  0.00     0.034 H 
ATOM     33  H   39D d   1      39.733 -15.997  28.573  0.00  0.00     0.034 H 
ATOM     34  C20 39D d   1      37.208 -14.753  28.441  0.00  0.00    -0.031 C 
ATOM     35  H   39D d   1      37.435 -15.759  26.556  0.00  0.00     0.033 H 
ATOM     36  H   39D d   1      38.694 -14.526  26.905  0.00  0.00     0.033 H 
ATOM     37  C21 39D d   1      36.421 -15.883  29.087  0.00  0.00    -0.059 C 
ATOM     38  H   39D d   1      37.867 -14.314  29.204  0.00  0.00     0.042 H 
ATOM     39  C22 39D d   1      37.343 -16.966  29.663  0.00  0.00    -0.053 C 
ATOM     40  H   39D d   1      35.767 -16.339  28.329  0.00  0.00     0.033 H 
ATOM     41  H   39D d   1      35.807 -15.469  29.901  0.00  0.00     0.033 H 
ATOM     42  H   39D d   1      37.979 -16.521  30.443  0.00  0.00     0.034 H 
ATOM     43  H   39D d   1      36.729 -17.766  30.102  0.00  0.00     0.034 H 
ATOM     44  H   39D d   1      37.586 -18.046  27.822  0.00  0.00     0.054 H 
BRANCH  34  45
ATOM     45  C23 39D d   1      36.291 -13.638  27.929  0.00  0.00     0.083 C 
ATOM     46  H   39D d   1      35.647 -13.311  28.758  0.00  0.00     0.075 H 
ATOM     47  H   39D d   1      35.668 -14.046  27.119  0.00  0.00     0.075 H 
BRANCH  45  48
ATOM     48  N24 39D d   1      37.010 -12.468  27.414  0.00  0.00    -0.079 N 
ATOM     49  H   39D d   1      36.346 -11.779  27.096  0.00  0.00     0.274 HD
ATOM     50  H   39D d   1      37.599 -12.747  26.645  0.00  0.00     0.274 HD
ATOM     51  H   39D d   1      37.579 -12.074  28.147  0.00  0.00     0.274 HD
ENDBRANCH  45  48
ENDBRANCH  34  45
ENDBRANCH  26  29
ENDBRANCH   1  25
BRANCH   1  52
ATOM     52  C14 39D d   1      39.527 -22.161  28.115  0.00  0.00    -0.015 C 
ATOM     53  H   39D d   1      39.765 -21.998  27.053  0.00  0.00     0.043 H 
ATOM     54  H   39D d   1      38.443 -22.312  28.229  0.00  0.00     0.043 H 
BRANCH  52  55
ATOM     55  C1  39D d   1      40.246 -23.401  28.592  0.00  0.00    -0.056 A 
ATOM     56  C2  39D d   1      40.022 -23.904  29.867  0.00  0.00    -0.077 A 
ATOM     57  C3  39D d   1      40.759 -24.977  30.347  0.00  0.00    -0.082 A 
ATOM     58  H   39D d   1      39.262 -23.453  30.495  0.00  0.00     0.084 H 
ATOM     59  C4  39D d   1      41.731 -25.559  29.559  0.00  0.00    -0.083 A 
ATOM     60  H   39D d   1      40.571 -25.359  31.344  0.00  0.00     0.083 H 
ATOM     61  C5  39D d   1      41.976 -25.059  28.294  0.00  0.00    -0.082 A 
ATOM     62  H   39D d   1      42.300 -26.404  29.930  0.00  0.00     0.083 H 
ATOM     63  C6  39D d   1      41.235 -23.987  27.814  0.00  0.00    -0.077 A 
ATOM     64  H   39D d   1      42.747 -25.504  27.676  0.00  0.00     0.083 H 
ATOM     65  H   39D d   1      41.431 -23.603  26.819  0.00  0.00     0.084 H 
ENDBRANCH  52  55
ENDBRANCH   1  52
TORSDOF 9
