REMARK  9 active torsions:
REMARK  status: ('A' for Active; 'I' for Inactive)
REMARK    1  A    between atoms: C13_1  and  C10_23 
REMARK    2  A    between atoms: C17_3  and  C22_9 
REMARK       I    between atoms: N33_33  and  C17_3 
REMARK    3  A    between atoms: C26_26  and  C16_4 
REMARK    4  A    between atoms: C23_10  and  C25_25 
REMARK    5  A    between atoms: C24_11  and  C11_12 
REMARK    6  A    between atoms: C26_26  and  C24_11 
REMARK    7  A    between atoms: C14_24  and  N31_31 
REMARK    8  A    between atoms: C25_25  and  N32_32 
REMARK    9  A    between atoms: C26_26  and  N33_33 
ROOT
ATOM      1  C26 39F d   1      39.720 -20.810  28.762  0.00  0.00     0.073 C 
ATOM      2  H   39F d   1      39.477 -20.927  29.828  0.00  0.00     0.085 H 
ENDROOT
BRANCH   1   3
ATOM      3  C16 39F d   1      41.226 -20.624  28.666  0.00  0.00     0.129 A 
ATOM      4  N28 39F d   1      41.916 -20.362  27.582  0.00  0.00    -0.331 N 
ATOM      5  C15 39F d   1      43.227 -20.472  27.946  0.00  0.00     0.134 A 
ATOM      6  H   39F d   1      41.546 -20.123  26.651  0.00  0.00     0.168 HD
ATOM      7  C13 39F d   1      43.318 -20.768  29.295  0.00  0.00     0.107 A 
ATOM      8 CL1  39F d   1      44.478 -20.168  26.793  0.00  0.00    -0.062 Cl
ATOM      9  N30 39F d   1      42.035 -20.946  29.709  0.00  0.00    -0.229 NA
BRANCH   7  10
ATOM     10  C10 39F d   1      44.428 -21.058  30.158  0.00  0.00    -0.002 A 
ATOM     11  C5  39F d   1      44.246 -21.941  31.240  0.00  0.00    -0.070 A 
ATOM     12  C4  39F d   1      45.325 -22.317  32.062  0.00  0.00    -0.066 A 
ATOM     13  H   39F d   1      43.258 -22.338  31.443  0.00  0.00     0.084 H 
ATOM     14  C9  39F d   1      46.605 -21.796  31.755  0.00  0.00     0.039 A 
ATOM     15  H   39F d   1      45.180 -22.985  32.904  0.00  0.00     0.085 H 
ATOM     16  C12 39F d   1      46.753 -20.913  30.675  0.00  0.00     0.091 A 
ATOM     17  C14 39F d   1      47.921 -21.925  32.279  0.00  0.00     0.128 A 
ATOM     18  C8  39F d   1      45.684 -20.492  29.872  0.00  0.00    -0.040 A 
ATOM     19  N29 39F d   1      48.088 -20.606  30.631  0.00  0.00    -0.172 NA
ATOM     20  H   39F d   1      45.818 -19.770  29.075  0.00  0.00     0.088 H 
ATOM     21  N27 39F d   1      48.815 -21.225  31.582  0.00  0.00    -0.262 N 
ATOM     22  H   39F d   1      49.832 -21.169  31.735  0.00  0.00     0.191 HD
BRANCH  17  23
ATOM     23  N31 39F d   1      48.208 -22.705  33.354  0.00  0.00    -0.384 N 
ATOM     24  H   39F d   1      47.454 -23.214  33.837  0.00  0.00     0.157 HD
ATOM     25  H   39F d   1      49.180 -22.787  33.686  0.00  0.00     0.157 HD
ENDBRANCH  17  23
ENDBRANCH   7  10
ENDBRANCH   1   3
BRANCH   1  26
ATOM     26  C24 39F d   1      39.274 -22.115  28.039  0.00  0.00    -0.015 C 
ATOM     27  H   39F d   1      38.211 -22.301  28.254  0.00  0.00     0.043 H 
ATOM     28  H   39F d   1      39.413 -21.992  26.955  0.00  0.00     0.043 H 
BRANCH  26  29
ATOM     29  C11 39F d   1      40.095 -23.303  28.516  0.00  0.00    -0.056 A 
ATOM     30  C6  39F d   1      41.130 -23.812  27.714  0.00  0.00    -0.077 A 
ATOM     31  C2  39F d   1      41.932 -24.862  28.182  0.00  0.00    -0.082 A 
ATOM     32  H   39F d   1      41.309 -23.392  26.731  0.00  0.00     0.084 H 
ATOM     33  C1  39F d   1      41.700 -25.396  29.466  0.00  0.00    -0.083 A 
ATOM     34  H   39F d   1      42.726 -25.261  27.561  0.00  0.00     0.083 H 
ATOM     35  C3  39F d   1      40.680 -24.874  30.266  0.00  0.00    -0.082 A 
ATOM     36  H   39F d   1      42.313 -26.212  29.833  0.00  0.00     0.083 H 
ATOM     37  C7  39F d   1      39.903 -23.809  29.810  0.00  0.00    -0.077 A 
ATOM     38  H   39F d   1      40.492 -25.299  31.245  0.00  0.00     0.083 H 
ATOM     39  H   39F d   1      39.150 -23.372  30.456  0.00  0.00     0.084 H 
ENDBRANCH  26  29
ENDBRANCH   1  26
BRANCH   1  40
ATOM     40  N33 39F d   1      38.981 -19.662  28.284  0.00  0.00    -0.349 N 
ATOM     41  C17 39F d   1      38.984 -18.488  28.991  0.00  0.00     0.222 C 
ATOM     42  O34 39F d   1      39.596 -18.325  30.053  0.00  0.00    -0.273 OA
ATOM     43  H   39F d   1      38.464 -19.726  27.431  0.00  0.00     0.163 HD
BRANCH  41  44
ATOM     44  C22 39F d   1      38.124 -17.413  28.380  0.00  0.00     0.024 C 
ATOM     45  C18 39F d   1      37.079 -16.945  29.405  0.00  0.00    -0.053 C 
ATOM     46  C20 39F d   1      36.208 -15.774  28.914  0.00  0.00    -0.059 C 
ATOM     47  H   39F d   1      36.419 -17.793  29.640  0.00  0.00     0.034 H 
ATOM     48  H   39F d   1      37.606 -16.627  30.317  0.00  0.00     0.034 H 
ATOM     49  C23 39F d   1      37.082 -14.619  28.354  0.00  0.00    -0.031 C 
ATOM     50  H   39F d   1      35.609 -15.395  29.755  0.00  0.00     0.033 H 
ATOM     51  H   39F d   1      35.538 -16.134  28.120  0.00  0.00     0.033 H 
ATOM     52  C21 39F d   1      38.023 -15.131  27.239  0.00  0.00    -0.059 C 
ATOM     53  H   39F d   1      37.711 -14.243  29.175  0.00  0.00     0.042 H 
ATOM     54  C19 39F d   1      38.944 -16.256  27.761  0.00  0.00    -0.053 C 
ATOM     55  H   39F d   1      37.417 -15.520  26.408  0.00  0.00     0.033 H 
ATOM     56  H   39F d   1      38.643 -14.296  26.881  0.00  0.00     0.033 H 
ATOM     57  H   39F d   1      39.615 -15.842  28.528  0.00  0.00     0.034 H 
ATOM     58  H   39F d   1      39.541 -16.648  26.924  0.00  0.00     0.034 H 
ATOM     59  H   39F d   1      37.572 -17.877  27.549  0.00  0.00     0.054 H 
BRANCH  49  60
ATOM     60  C25 39F d   1      36.200 -13.451  27.868  0.00  0.00     0.083 C 
ATOM     61  H   39F d   1      35.543 -13.129  28.689  0.00  0.00     0.075 H 
ATOM     62  H   39F d   1      35.587 -13.790  27.020  0.00  0.00     0.075 H 
BRANCH  60  63
ATOM     63  N32 39F d   1      37.011 -12.338  27.449  0.00  0.00    -0.079 N 
ATOM     64  H   39F d   1      36.416 -11.587  27.136  0.00  0.00     0.274 HD
ATOM     65  H   39F d   1      37.613 -12.626  26.694  0.00  0.00     0.274 HD
ATOM     66  H   39F d   1      37.572 -12.021  28.224  0.00  0.00     0.274 HD
ENDBRANCH  60  63
ENDBRANCH  49  60
ENDBRANCH  41  44
ENDBRANCH   1  40
TORSDOF 9
