REMARK  3 active torsions:
REMARK  status: ('A' for Active; 'I' for Inactive)
REMARK    1  A    between atoms: CAN_2  and  NAA_3 
REMARK    2  A    between atoms: CAP_7  and  CAQ_8 
REMARK    3  A    between atoms: CAR_12  and  CAO_13 
ROOT
ATOM      1  CAQ 39R d   1      24.271 -44.167  10.392  0.00  0.00     0.156 A 
ATOM      2  NAL 39R d   1      25.405 -44.835  10.125  0.00  0.00    -0.207 NA
ATOM      3  NAK 39R d   1      24.513 -43.208  11.373  0.00  0.00    -0.258 N 
ATOM      4  NAM 39R d   1      25.810 -43.319  11.675  0.00  0.00    -0.152 NA
ATOM      5  CAR 39R d   1      26.377 -44.317  10.945  0.00  0.00     0.181 A 
ATOM      6  H   39R d   1      23.834 -42.550  11.781  0.00  0.00     0.191 HD
ENDROOT
BRANCH   1   7
ATOM      7  CAP 39R d   1      22.915 -44.389   9.760  0.00  0.00     0.013 A 
ATOM      8  CAJ 39R d   1      21.896 -43.525  10.135  0.00  0.00    -0.044 A 
ATOM      9  CAN 39R d   1      20.630 -43.701   9.591  0.00  0.00     0.026 A 
ATOM     10  H   39R d   1      22.085 -42.725  10.842  0.00  0.00     0.088 H 
ATOM     11  CAF 39R d   1      20.309 -44.714   8.630  0.00  0.00    -0.058 A 
ATOM     12  CAE 39R d   1      21.327 -45.578   8.264  0.00  0.00    -0.080 A 
ATOM     13  H   39R d   1      19.314 -44.800   8.209  0.00  0.00     0.086 H 
ATOM     14  CAI 39R d   1      22.605 -45.397   8.820  0.00  0.00    -0.069 A 
ATOM     15  H   39R d   1      21.141 -46.381   7.560  0.00  0.00     0.083 H 
ATOM     16  H   39R d   1      23.397 -46.069   8.510  0.00  0.00     0.085 H 
BRANCH   9  17
ATOM     17  NAA 39R d   1      19.711 -42.771  10.058  0.00  0.00    -0.399 N 
ATOM     18  H   39R d   1      18.736 -42.799   9.727  0.00  0.00     0.156 HD
ATOM     19  H   39R d   1      20.004 -42.053  10.736  0.00  0.00     0.156 HD
ENDBRANCH   9  17
ENDBRANCH   1   7
BRANCH   5  20
ATOM     20  CAO 39R d   1      27.852 -44.681  11.001  0.00  0.00     0.013 A 
ATOM     21  CAG 39R d   1      28.592 -44.411  12.148  0.00  0.00    -0.069 A 
ATOM     22  CAC 39R d   1      29.949 -44.718  12.168  0.00  0.00    -0.082 A 
ATOM     23  H   39R d   1      28.117 -43.967  13.015  0.00  0.00     0.085 H 
ATOM     24  CAB 39R d   1      30.566 -45.270  11.052  0.00  0.00    -0.083 A 
ATOM     25  H   39R d   1      30.530 -44.525  13.062  0.00  0.00     0.083 H 
ATOM     26  CAD 39R d   1      29.826 -45.520   9.902  0.00  0.00    -0.082 A 
ATOM     27  H   39R d   1      31.624 -45.506  11.078  0.00  0.00     0.083 H 
ATOM     28  CAH 39R d   1      28.470 -45.215   9.871  0.00  0.00    -0.069 A 
ATOM     29  H   39R d   1      30.305 -45.952   9.031  0.00  0.00     0.083 H 
ATOM     30  H   39R d   1      27.894 -45.392   8.970  0.00  0.00     0.085 H 
ENDBRANCH   5  20
TORSDOF 3
