REMARK  3 active torsions:
REMARK  status: ('A' for Active; 'I' for Inactive)
REMARK    1  A    between atoms: CAP_3  and  OAB_4 
REMARK    2  A    between atoms: CAR_7  and  CAV_8 
REMARK    3  A    between atoms: CAS_16  and  CAQ_17 
ROOT
ATOM      1  CAV 3A8 d   1     -14.926  82.470   5.507  0.00  0.00     0.068 A 
ATOM      2  CAU 3A8 d   1     -15.827  81.687   4.754  0.00  0.00     0.034 A 
ATOM      3  NAM 3A8 d   1     -14.555  81.580   6.631  0.00  0.00    -0.343 N 
ATOM      4  CAO 3A8 d   1     -15.206  80.444   6.443  0.00  0.00     0.273 A 
ATOM      5  OAA 3A8 d   1     -15.117  79.459   7.177  0.00  0.00    -0.266 OA
ATOM      6  CAT 3A8 d   1     -15.972  80.500   5.358  0.00  0.00     0.155 A 
ATOM      7  NAN 3A8 d   1     -16.842  79.791   4.646  0.00  0.00    -0.168 NA
ATOM      8  NAL 3A8 d   1     -17.231  80.426   3.699  0.00  0.00    -0.276 N 
ATOM      9  CAS 3A8 d   1     -16.652  81.630   3.698  0.00  0.00     0.071 A 
ATOM     10  H   3A8 d   1     -15.434  83.380   5.859  0.00  0.00     0.088 H 
ATOM     11  H   3A8 d   1     -13.934  81.796   7.385  0.00  0.00     0.163 HD
ATOM     12  H   3A8 d   1     -17.907  80.092   2.997  0.00  0.00     0.189 HD
ENDROOT
BRANCH   1  13
ATOM     13  CAR 3A8 d   1     -13.718  82.834   4.874  0.00  0.00    -0.031 A 
ATOM     14  CAJ 3A8 d   1     -13.291  84.170   4.902  0.00  0.00    -0.072 A 
ATOM     15  CAH 3A8 d   1     -12.082  84.541   4.309  0.00  0.00    -0.050 A 
ATOM     16  H   3A8 d   1     -13.904  84.920   5.388  0.00  0.00     0.084 H 
ATOM     17  CAP 3A8 d   1     -11.282  83.578   3.698  0.00  0.00     0.065 A 
ATOM     18  H   3A8 d   1     -11.766  85.578   4.324  0.00  0.00     0.087 H 
ATOM     19  CAI 3A8 d   1     -11.688  82.248   3.680  0.00  0.00    -0.050 A 
ATOM     20  CAK 3A8 d   1     -12.896  81.874   4.270  0.00  0.00    -0.072 A 
ATOM     21  H   3A8 d   1     -11.064  81.499   3.206  0.00  0.00     0.087 H 
ATOM     22  H   3A8 d   1     -13.200  80.834   4.261  0.00  0.00     0.084 H 
BRANCH  17  23
ATOM     23  OAB 3A8 d   1     -10.102  83.929   3.122  0.00  0.00    -0.361 OA
ATOM     24  H   3A8 d   1      -9.533  84.314   3.778  0.00  0.00     0.217 HD
ENDBRANCH  17  23
ENDBRANCH   1  13
BRANCH   9  25
ATOM     25  CAQ 3A8 d   1     -16.870  82.573   2.753  0.00  0.00    -0.007 A 
ATOM     26  CAF 3A8 d   1     -16.645  83.933   2.994  0.00  0.00    -0.071 A 
ATOM     27  CAD 3A8 d   1     -16.871  84.874   1.990  0.00  0.00    -0.082 A 
ATOM     28  H   3A8 d   1     -16.293  84.257   3.967  0.00  0.00     0.084 H 
ATOM     29  CAC 3A8 d   1     -17.325  84.482   0.732  0.00  0.00    -0.083 A 
ATOM     30  H   3A8 d   1     -16.691  85.924   2.191  0.00  0.00     0.083 H 
ATOM     31  CAE 3A8 d   1     -17.552  83.137   0.476  0.00  0.00    -0.082 A 
ATOM     32  H   3A8 d   1     -17.500  85.222  -0.041  0.00  0.00     0.083 H 
ATOM     33  CAG 3A8 d   1     -17.323  82.198   1.481  0.00  0.00    -0.071 A 
ATOM     34  H   3A8 d   1     -17.905  82.819  -0.498  0.00  0.00     0.083 H 
ATOM     35  H   3A8 d   1     -17.500  81.149   1.273  0.00  0.00     0.084 H 
ENDBRANCH   9  25
TORSDOF 3
