REMARK  8 active torsions:
REMARK  status: ('A' for Active; 'I' for Inactive)
REMARK    1  A    between atoms: C1_1  and  O1_10 
REMARK    2  A    between atoms: N2_9  and  C2_2 
REMARK    3  A    between atoms: C3_3  and  O3_11 
REMARK    4  A    between atoms: C4_4  and  O4_12 
REMARK    5  A    between atoms: C5_5  and  C6_6 
REMARK    6  A    between atoms: C6_6  and  O6_14 
REMARK    7  A    between atoms: C7_7  and  C8_8 
REMARK       I    between atoms: C7_7  and  N2_9 
REMARK    8  A    between atoms: O6_14  and  P_16 
ROOT
ATOM      1  C1  16G d   1     -41.949  -8.646  25.399  0.00  0.00     0.151 C 
ATOM      2  C2  16G d   1     -41.317  -7.867  24.254  0.00  0.00     0.086 C 
ATOM      3  C3  16G d   1     -42.214  -7.747  23.066  0.00  0.00     0.086 C 
ATOM      4  C4  16G d   1     -42.745  -9.084  22.682  0.00  0.00     0.089 C 
ATOM      5  C5  16G d   1     -43.568  -9.575  23.849  0.00  0.00     0.089 C 
ATOM      6  O5  16G d   1     -42.657  -9.867  24.946  0.00  0.00    -0.349 OA
ATOM      7  H1  16G d   1     -41.160  -8.925  26.112  0.00  0.00     0.132 H 
ATOM      8  H2  16G d   1     -40.412  -8.399  23.925  0.00  0.00     0.084 H 
ATOM      9  H3  16G d   1     -43.046  -7.072  23.314  0.00  0.00     0.090 H 
ATOM     10  H4  16G d   1     -41.911  -9.776  22.493  0.00  0.00     0.091 H 
ATOM     11  H5  16G d   1     -44.275  -8.787  24.148  0.00  0.00     0.090 H 
ENDROOT
BRANCH   2  12
ATOM     12  N2  16G d   1     -40.920  -6.578  24.813  0.00  0.00    -0.349 N 
ATOM     13  C7  16G d   1     -40.180  -5.556  24.131  0.00  0.00     0.214 C 
ATOM     14  O7  16G d   1     -39.820  -5.679  22.977  0.00  0.00    -0.274 OA
ATOM     15  H11 16G d   1     -41.189  -6.391  25.758  0.00  0.00     0.163 HD
BRANCH  13  16
ATOM     16  C8  16G d   1     -39.846  -4.287  24.901  0.00  0.00    -0.003 C 
ATOM     17  H8  16G d   1     -39.281  -3.602  24.252  0.00  0.00     0.040 H 
ATOM     18  H9  16G d   1     -39.239  -4.542  25.782  0.00  0.00     0.040 H 
ATOM     19  H10 16G d   1     -40.777  -3.799  25.226  0.00  0.00     0.040 H 
ENDBRANCH  13  16
ENDBRANCH   2  12
BRANCH   1  20
ATOM     20  O1  16G d   1     -42.896  -7.866  26.025  0.00  0.00    -0.369 OA
ATOM     21  H12 16G d   1     -43.587  -7.653  25.409  0.00  0.00     0.212 HD
ENDBRANCH   1  20
BRANCH   3  22
ATOM     22  O3  16G d   1     -41.504  -7.239  21.918  0.00  0.00    -0.391 OA
ATOM     23  H13 16G d   1     -41.147  -6.383  22.121  0.00  0.00     0.210 HD
ENDBRANCH   3  22
BRANCH   4  24
ATOM     24  O4  16G d   1     -43.555  -8.993  21.504  0.00  0.00    -0.390 OA
ATOM     25  H14 16G d   1     -43.024  -8.683  20.779  0.00  0.00     0.210 HD
ENDBRANCH   4  24
BRANCH   5  26
ATOM     26  C6  16G d   1     -44.334 -10.823  23.528  0.00  0.00     0.059 C 
ATOM     27  H6  16G d   1     -43.647 -11.646  23.281  0.00  0.00     0.079 H 
ATOM     28  H7  16G d   1     -45.019 -10.651  22.684  0.00  0.00     0.079 H 
BRANCH  26  29
ATOM     29  O6  16G d   1     -45.067 -11.120  24.718  0.00  0.00    -0.280 OA
BRANCH  29  30
ATOM     30  P   16G d   1     -46.197 -12.246  24.706  0.00  0.00     0.422 P 
ATOM     31  O1P 16G d   1     -47.257 -11.952  23.664  0.00  0.00    -0.617 OA
ATOM     32  O2P 16G d   1     -45.509 -13.558  24.393  0.00  0.00    -0.617 OA
ATOM     33  O3P 16G d   1     -46.816 -12.240  26.088  0.00  0.00    -0.617 OA
ENDBRANCH  29  30
ENDBRANCH  26  29
ENDBRANCH   5  26
TORSDOF 8
