REMARK  9 active torsions:
REMARK  status: ('A' for Active; 'I' for Inactive)
REMARK    1  A    between atoms: P_2  and  C7_5 
REMARK    2  A    between atoms: C7_5  and  N_6 
REMARK    3  A    between atoms: C7_5  and  C3_7 
REMARK    4  A    between atoms: C3_7  and  C4_8 
REMARK    5  A    between atoms: C3_7  and  C2_11 
REMARK    6  A    between atoms: C4_8  and  C5_9 
REMARK    7  A    between atoms: C5_9  and  C6_10 
REMARK    8  A    between atoms: C2_11  and  C1_12 
REMARK    9  A    between atoms: C1_12  and  C_13 
ROOT
ATOM      1  C3  Q08 d   1      22.289  -5.183  10.480  0.00  0.00    -0.014 C 
ATOM      2  H5  Q08 d   1      21.358  -5.597  10.065  0.00  0.00     0.044 H 
ENDROOT
BRANCH   1   3
ATOM      3  C7  Q08 d   1      22.308  -3.734   9.860  0.00  0.00     0.209 C 
ATOM      4  H1  Q08 d   1      21.780  -3.872   8.905  0.00  0.00     0.106 H 
BRANCH   3   5
ATOM      5  P   Q08 d   1      21.233  -2.655  10.892  0.00  0.00     0.291 P 
ATOM      6  O2  Q08 d   1      21.814  -2.207  12.146  0.00  0.00    -0.638 OA
ATOM      7  O   Q08 d   1      19.699  -3.112  10.874  0.00  0.00    -0.638 OA
ATOM      8  O1  Q08 d   1      21.316  -1.296  10.101  0.00  0.00    -0.638 OA
ENDBRANCH   3   5
BRANCH   3   9
ATOM      9  N   Q08 d   1      23.580  -2.923   9.433  0.00  0.00    -0.062 N 
ATOM     10  H2  Q08 d   1      24.176  -3.506   8.867  0.00  0.00     0.275 HD
ATOM     11  H3  Q08 d   1      24.082  -2.628  10.256  0.00  0.00     0.275 HD
ATOM     12  H4  Q08 d   1      23.300  -2.113   8.902  0.00  0.00     0.275 HD
ENDBRANCH   3   9
ENDBRANCH   1   3
BRANCH   1  13
ATOM     13  C4  Q08 d   1      23.392  -6.154   9.967  0.00  0.00    -0.059 C 
ATOM     14  H6  Q08 d   1      24.377  -5.733  10.218  0.00  0.00     0.033 H 
ATOM     15  H7  Q08 d   1      23.300  -6.246   8.875  0.00  0.00     0.033 H 
BRANCH  13  16
ATOM     16  C5  Q08 d   1      23.283  -7.525  10.578  0.00  0.00    -0.068 C 
ATOM     17  H8  Q08 d   1      22.227  -7.695  10.833  0.00  0.00     0.032 H 
ATOM     18  H9  Q08 d   1      23.888  -7.531  11.497  0.00  0.00     0.032 H 
BRANCH  16  19
ATOM     19  C6  Q08 d   1      23.739  -8.679   9.721  0.00  0.00    -0.077 C 
ATOM     20  H10 Q08 d   1      23.610  -9.620  10.275  0.00  0.00     0.027 H 
ATOM     21  H11 Q08 d   1      24.800  -8.547   9.463  0.00  0.00     0.027 H 
ATOM     22  H12 Q08 d   1      23.139  -8.711   8.800  0.00  0.00     0.027 H 
ENDBRANCH  16  19
ENDBRANCH  13  16
ENDBRANCH   1  13
BRANCH   1  23
ATOM     23  C2  Q08 d   1      22.102  -5.368  12.033  0.00  0.00    -0.059 C 
ATOM     24  H13 Q08 d   1      21.327  -4.650  12.338  0.00  0.00     0.033 H 
ATOM     25  H14 Q08 d   1      23.061  -5.091  12.495  0.00  0.00     0.033 H 
BRANCH  23  26
ATOM     26  C1  Q08 d   1      21.695  -6.747  12.658  0.00  0.00    -0.068 C 
ATOM     27  H15 Q08 d   1      22.631  -7.274  12.895  0.00  0.00     0.032 H 
ATOM     28  H16 Q08 d   1      21.152  -7.299  11.877  0.00  0.00     0.032 H 
BRANCH  26  29
ATOM     29  C   Q08 d   1      20.811  -6.806  13.943  0.00  0.00    -0.077 C 
ATOM     30  H17 Q08 d   1      20.637  -7.856  14.221  0.00  0.00     0.027 H 
ATOM     31  H18 Q08 d   1      19.847  -6.314  13.748  0.00  0.00     0.027 H 
ATOM     32  H19 Q08 d   1      21.326  -6.289  14.766  0.00  0.00     0.027 H 
ENDBRANCH  26  29
ENDBRANCH  23  26
ENDBRANCH   1  23
TORSDOF 9
