REMARK  2 active torsions:
REMARK  status: ('A' for Active; 'I' for Inactive)
REMARK    1  A    between atoms: N7_12  and  C8_4 
REMARK    2  A    between atoms: C3_8  and  N7_12 
ROOT
ATOM      1  C11 3D8 d   1      25.887  27.462  -4.466  0.00  0.00    -0.064 A 
ATOM      2  C8  3D8 d   1      26.903  25.384  -7.359  0.00  0.00     0.158 A 
ATOM      3  C9  3D8 d   1      26.649  26.264  -6.276  0.00  0.00     0.103 A 
ATOM      4  C10 3D8 d   1      25.612  26.383  -5.358  0.00  0.00    -0.050 A 
ATOM      5  C12 3D8 d   1      27.143  27.956  -4.922  0.00  0.00     0.004 A 
ATOM      6  N13 3D8 d   1      27.591  27.288  -5.952  0.00  0.00    -0.240 N 
ATOM      7  N14 3D8 d   1      28.794  27.470  -6.694  0.00  0.00    -0.161 NA
ATOM      8  C15 3D8 d   1      29.072  26.679  -7.751  0.00  0.00     0.108 A 
ATOM      9  N16 3D8 d   1      28.159  25.610  -8.046  0.00  0.00    -0.220 NA
ATOM     10  H   3D8 d   1      25.282  27.822  -3.635  0.00  0.00     0.085 H 
ATOM     11  H   3D8 d   1      24.726  25.750  -5.325  0.00  0.00     0.087 H 
ATOM     12  H   3D8 d   1      27.669  28.793  -4.465  0.00  0.00     0.114 H 
ATOM     13  H   3D8 d   1      29.959  26.845  -8.360  0.00  0.00     0.149 H 
ENDROOT
BRANCH   2  14
ATOM     14  N7  3D8 d   1      25.960  24.393  -7.803  0.00  0.00    -0.338 N 
ATOM     15  H   3D8 d   1      25.055  24.341  -7.314  0.00  0.00     0.167 HD
BRANCH  14  16
ATOM     16  C3  3D8 d   1      26.191  23.466  -8.886  0.00  0.00     0.051 A 
ATOM     17  C4  3D8 d   1      25.071  22.607  -9.196  0.00  0.00     0.027 A 
ATOM     18  N5  3D8 d   1      25.256  21.672 -10.257  0.00  0.00    -0.271 NA
ATOM     19  H   3D8 d   1      24.137  22.670  -8.649  0.00  0.00     0.118 H 
ATOM     20  C6  3D8 d   1      26.466  21.485 -11.003  0.00  0.00     0.002 A 
ATOM     21  C1  3D8 d   1      27.605  22.282 -10.717  0.00  0.00    -0.064 A 
ATOM     22  H   3D8 d   1      26.511  20.735 -11.785  0.00  0.00     0.114 H 
ATOM     23  C2  3D8 d   1      27.466  23.280  -9.681  0.00  0.00    -0.054 A 
ATOM     24  H   3D8 d   1      28.538  22.148 -11.252  0.00  0.00     0.085 H 
ATOM     25  H   3D8 d   1      28.311  23.923  -9.464  0.00  0.00     0.087 H 
ENDBRANCH  14  16
ENDBRANCH   2  14
TORSDOF 2
