REMARK  4 active torsions:
REMARK  status: ('A' for Active; 'I' for Inactive)
REMARK    1  A    between atoms: C08_7  and  C10_1 
REMARK    2  A    between atoms: N02_3  and  C01_2 
REMARK    3  A    between atoms: C03_4  and  N02_3 
REMARK    4  A    between atoms: C04_5  and  C03_4 
ROOT
ATOM      1  C04 3C5 d   1      -1.721 127.763 -12.189  0.00  0.00    -0.032 A 
ATOM      2  C09 3C5 d   1      -1.275 126.497 -12.566  0.00  0.00    -0.065 A 
ATOM      3  C08 3C5 d   1      -0.656 125.661 -11.646  0.00  0.00    -0.024 A 
ATOM      4  C07 3C5 d   1      -0.481 126.096 -10.334  0.00  0.00    -0.072 A 
ATOM      5  C06 3C5 d   1      -0.923 127.361  -9.951  0.00  0.00    -0.082 A 
ATOM      6  C05 3C5 d   1      -1.542 128.201 -10.875  0.00  0.00    -0.075 A 
ATOM      7  H8  3C5 d   1      -1.413 126.162 -13.588  0.00  0.00     0.085 H 
ATOM      8  H9  3C5 d   1       0.000 125.449  -9.609  0.00  0.00     0.084 H 
ATOM      9  H10 3C5 d   1      -0.785 127.694  -8.929  0.00  0.00     0.083 H 
ATOM     10  H11 3C5 d   1      -1.882 129.186 -10.576  0.00  0.00     0.084 H 
ENDROOT
BRANCH   1  11
ATOM     11  C03 3C5 d   1      -2.388 128.660 -13.237  0.00  0.00     0.105 C 
ATOM     12  H6  3C5 d   1      -1.705 129.487 -13.479  0.00  0.00     0.083 H 
ATOM     13  H7  3C5 d   1      -2.577 128.064 -14.142  0.00  0.00     0.083 H 
BRANCH  11  14
ATOM     14  N02 3C5 d   1      -3.653 129.219 -12.773  0.00  0.00    -0.075 N 
ATOM     15  H4  3C5 d   1      -4.246 128.471 -12.448  0.00  0.00     0.277 HD
ATOM     16  H5  3C5 d   1      -3.474 129.859 -12.015  0.00  0.00     0.277 HD
BRANCH  14  17
ATOM     17  C01 3C5 d   1      -4.329 129.932 -13.854  0.00  0.00     0.065 C 
ATOM     18  H1  3C5 d   1      -5.279 130.345 -13.483  0.00  0.00     0.067 H 
ATOM     19  H2  3C5 d   1      -4.530 129.237 -14.682  0.00  0.00     0.067 H 
ATOM     20  H3  3C5 d   1      -3.687 130.751 -14.210  0.00  0.00     0.067 H 
ENDBRANCH  14  17
ENDBRANCH  11  14
ENDBRANCH   1  11
BRANCH   3  21
ATOM     21  C10 3C5 d   1      -0.195 124.266 -12.083  0.00  0.00    -0.008 A 
ATOM     22  C15 3C5 d   1       0.989 123.702 -11.612  0.00  0.00     0.012 A 
ATOM     23  N14 3C5 d   1       1.369 122.487 -11.994  0.00  0.00    -0.272 NA
ATOM     24  H12 3C5 d   1       1.610 124.263 -10.923  0.00  0.00     0.116 H 
ATOM     25  C13 3C5 d   1       0.642 121.768 -12.832  0.00  0.00     0.002 A 
ATOM     26  C12 3C5 d   1      -0.553 122.256 -13.341  0.00  0.00    -0.065 A 
ATOM     27  H13 3C5 d   1       0.985 120.782 -13.126  0.00  0.00     0.114 H 
ATOM     28  C11 3C5 d   1      -0.986 123.526 -12.963  0.00  0.00    -0.070 A 
ATOM     29  H14 3C5 d   1      -1.143 121.657 -14.025  0.00  0.00     0.085 H 
ATOM     30  H15 3C5 d   1      -1.917 123.930 -13.344  0.00  0.00     0.085 H 
ENDBRANCH   3  21
TORSDOF 4
