REMARK  23 active torsions:
REMARK  status: ('A' for Active; 'I' for Inactive)
REMARK    1  A    between atoms: CA_2  and  N_1 
REMARK    2  A    between atoms: N_1  and  CBA_26 
REMARK    3  A    between atoms: C_18  and  CA_2 
REMARK    4  A    between atoms: CA_2  and  CB_25 
REMARK    5  A    between atoms: CBP_35  and  CAA_3 
REMARK    6  A    between atoms: CBI_29  and  CAZ_17 
REMARK    7  A    between atoms: CAZ_17  and  NBD_39 
REMARK       I    between atoms: NBD_39  and  C_18 
REMARK       I    between atoms: CBH_28  and  NAC_20 
REMARK    8  A    between atoms: CBK_30  and  OAG_23 
REMARK    9  A    between atoms: CBP_35  and  OAH_24 
REMARK   10  A    between atoms: CB_25  and  CG_42 
REMARK   11  A    between atoms: CBA_26  and  CBL_31 
REMARK   12  A    between atoms: CBB_27  and  CBM_32 
REMARK   13  A    between atoms: CBR_36  and  CBB_27 
REMARK   14  A    between atoms: CBR_36  and  CBH_28 
REMARK       I    between atoms: NBF_40  and  CBI_29 
REMARK   15  A    between atoms: CBS_37  and  CBK_30 
REMARK   16  A    between atoms: CBK_30  and  NBG_41 
REMARK   17  A    between atoms: CBN_33  and  CBO_34 
REMARK   18  A    between atoms: CBS_37  and  CBP_35 
REMARK   19  A    between atoms: NBG_41  and  CBR_36 
REMARK   20  A    between atoms: CBS_37  and  NBF_40 
REMARK   21  A    between atoms: CG_42  and  CD_43 
REMARK   22  A    between atoms: CD_43  and  CE_44 
REMARK   23  A    between atoms: CE_44  and  NZ_45 
ROOT
ATOM      1  C   3D4 d   1       2.892  35.061   8.183  0.00  0.00     0.248 C 
ATOM      2  O   3D4 d   1       3.810  34.823   8.897  0.00  0.00    -0.271 OA
ATOM      3  NBD 3D4 d   1       2.146  33.991   7.528  0.00  0.00    -0.351 N 
ATOM      4  H36 3D4 d   1       1.371  34.240   6.947  0.00  0.00     0.163 HD
ENDROOT
BRANCH   3   5
ATOM      5  CAZ 3D4 d   1       2.472  32.581   7.678  0.00  0.00     0.069 C 
ATOM      6  H20 3D4 d   1       3.070  32.270   6.809  0.00  0.00     0.078 H 
ATOM      7  H21 3D4 d   1       3.067  32.459   8.595  0.00  0.00     0.078 H 
BRANCH   5   8
ATOM      8  CBI 3D4 d   1       1.244  31.662   7.774  0.00  0.00     0.235 C 
ATOM      9  OAE 3D4 d   1       0.170  32.117   7.562  0.00  0.00    -0.272 OA
ATOM     10  NBF 3D4 d   1       1.292  30.252   8.133  0.00  0.00    -0.348 N 
ATOM     11  H37 3D4 d   1       0.408  29.786   8.179  0.00  0.00     0.163 HD
BRANCH  10  12
ATOM     12  CBS 3D4 d   1       2.452  29.432   8.433  0.00  0.00     0.086 C 
ATOM     13  H35 3D4 d   1       3.179  29.451   7.607  0.00  0.00     0.083 H 
BRANCH  12  14
ATOM     14  CBK 3D4 d   1       1.761  28.074   8.530  0.00  0.00     0.213 C 
ATOM     15  H32 3D4 d   1       2.382  27.327   9.046  0.00  0.00     0.132 H 
BRANCH  14  16
ATOM     16  OAG 3D4 d   1       0.601  28.352   9.268  0.00  0.00    -0.368 OA
ATOM     17  H24 3D4 d   1       0.843  28.624  10.146  0.00  0.00     0.212 HD
ENDBRANCH  14  16
BRANCH  14  18
ATOM     18  NBG 3D4 d   1       1.491  27.643   7.152  0.00  0.00    -0.034 N 
ATOM     19  H38 3D4 d   1       2.349  27.244   6.804  0.00  0.00     0.281 HD
ATOM     20  H39 3D4 d   1       1.272  28.477   6.630  0.00  0.00     0.281 HD
BRANCH  18  21
ATOM     21  CBR 3D4 d   1       0.426  26.670   6.850  0.00  0.00     0.184 C 
ATOM     22  H34 3D4 d   1      -0.410  27.236   6.415  0.00  0.00     0.100 H 
BRANCH  21  23
ATOM     23  CBB 3D4 d   1      -0.137  25.863   8.030  0.00  0.00    -0.006 C 
ATOM     24  H30 3D4 d   1       0.437  24.929   8.122  0.00  0.00     0.043 H 
ATOM     25  H31 3D4 d   1      -0.020  26.457   8.948  0.00  0.00     0.043 H 
BRANCH  23  26
ATOM     26  CBM 3D4 d   1      -1.624  25.510   7.860  0.00  0.00    -0.056 A 
ATOM     27  CAN 3D4 d   1      -2.229  25.558   6.605  0.00  0.00    -0.077 A 
ATOM     28  CAJ 3D4 d   1      -3.561  25.230   6.449  0.00  0.00    -0.082 A 
ATOM     29  H12 3D4 d   1      -1.646  25.857   5.741  0.00  0.00     0.084 H 
ATOM     30  CAI 3D4 d   1      -4.302  24.858   7.559  0.00  0.00    -0.083 A 
ATOM     31  H8  3D4 d   1      -4.022  25.263   5.468  0.00  0.00     0.083 H 
ATOM     32  CAK 3D4 d   1      -3.718  24.812   8.813  0.00  0.00    -0.082 A 
ATOM     33  H7  3D4 d   1      -5.349  24.601   7.444  0.00  0.00     0.083 H 
ATOM     34  CAO 3D4 d   1      -2.378  25.140   8.965  0.00  0.00    -0.077 A 
ATOM     35  H9  3D4 d   1      -4.306  24.520   9.675  0.00  0.00     0.083 H 
ATOM     36  H13 3D4 d   1      -1.920  25.107   9.947  0.00  0.00     0.084 H 
ENDBRANCH  23  26
ENDBRANCH  21  23
BRANCH  21  37
ATOM     37  CBH 3D4 d   1       0.939  25.669   5.809  0.00  0.00     0.246 C 
ATOM     38  NAC 3D4 d   1       2.181  25.912   5.083  0.00  0.00    -0.368 N 
ATOM     39  H22 3D4 d   1       2.708  26.744   5.258  0.00  0.00     0.159 HD
ATOM     40  H23 3D4 d   1       2.505  25.247   4.410  0.00  0.00     0.159 HD
ATOM     41  OAD 3D4 d   1       0.317  24.680   5.597  0.00  0.00    -0.271 OA
ENDBRANCH  21  37
ENDBRANCH  18  21
ENDBRANCH  14  18
ENDBRANCH  12  14
BRANCH  12  42
ATOM     42  CBP 3D4 d   1       3.177  29.853   9.731  0.00  0.00     0.056 C 
ATOM     43  H33 3D4 d   1       2.577  30.636  10.218  0.00  0.00     0.085 H 
BRANCH  42  44
ATOM     44  CAA 3D4 d   1       3.250  28.756  10.544  0.00  0.00    -0.050 C 
ATOM     45  H4  3D4 d   1       2.241  28.345  10.696  0.00  0.00     0.031 H 
ATOM     46  H5  3D4 d   1       3.678  29.047  11.515  0.00  0.00     0.031 H 
ATOM     47  H6  3D4 d   1       3.890  27.994  10.075  0.00  0.00     0.031 H 
ENDBRANCH  42  44
BRANCH  42  48
ATOM     48  OAH 3D4 d   1       4.598  30.387   9.550  0.00  0.00    -0.394 OA
ATOM     49  H25 3D4 d   1       4.578  31.152   8.987  0.00  0.00     0.210 HD
ENDBRANCH  42  48
ENDBRANCH  12  42
ENDBRANCH  10  12
ENDBRANCH   5   8
ENDBRANCH   3   5
BRANCH   1  50
ATOM     50  CA  3D4 d   1       2.416  36.502   7.950  0.00  0.00     0.178 C 
ATOM     51  H3  3D4 d   1       1.318  36.474   7.888  0.00  0.00     0.099 H 
BRANCH  50  52
ATOM     52  N   3D4 d   1       2.745  37.356   9.104  0.00  0.00    -0.059 N 
ATOM     53  H1  3D4 d   1       3.000  38.271   8.766  0.00  0.00     0.278 HD
ATOM     54  H2  3D4 d   1       3.526  36.949   9.594  0.00  0.00     0.278 HD
BRANCH  52  55
ATOM     55  CBA 3D4 d   1       1.615  37.498  10.049  0.00  0.00     0.106 C 
ATOM     56  H28 3D4 d   1       0.806  38.056   9.555  0.00  0.00     0.083 H 
ATOM     57  H29 3D4 d   1       1.958  38.055  10.933  0.00  0.00     0.083 H 
BRANCH  55  58
ATOM     58  CBL 3D4 d   1       1.075  36.133  10.500  0.00  0.00    -0.033 A 
ATOM     59  CAQ 3D4 d   1       0.041  35.505   9.799  0.00  0.00    -0.074 A 
ATOM     60  CAS 3D4 d   1      -0.433  34.261  10.184  0.00  0.00    -0.072 A 
ATOM     61  H15 3D4 d   1      -0.397  36.000   8.940  0.00  0.00     0.084 H 
ATOM     62  CBN 3D4 d   1       0.130  33.662  11.300  0.00  0.00    -0.025 A 
ATOM     63  H17 3D4 d   1      -1.223  33.770   9.627  0.00  0.00     0.084 H 
ATOM     64  CAT 3D4 d   1       1.158  34.273  12.011  0.00  0.00    -0.072 A 
ATOM     65  CAR 3D4 d   1       1.634  35.517  11.612  0.00  0.00    -0.074 A 
ATOM     66  H18 3D4 d   1       1.587  33.780  12.875  0.00  0.00     0.084 H 
ATOM     67  H16 3D4 d   1       2.433  36.001  12.163  0.00  0.00     0.084 H 
BRANCH  62  68
ATOM     68  CBO 3D4 d   1      -0.380  32.294  11.722  0.00  0.00    -0.008 A 
ATOM     69  CAP 3D4 d   1       0.394  31.495  12.546  0.00  0.00    -0.070 A 
ATOM     70  CAL 3D4 d   1      -0.089  30.244  12.903  0.00  0.00    -0.065 A 
ATOM     71  H14 3D4 d   1       1.357  31.839  12.905  0.00  0.00     0.085 H 
ATOM     72  CAM 3D4 d   1      -1.317  29.846  12.405  0.00  0.00     0.002 A 
ATOM     73  H10 3D4 d   1       0.482  29.594  13.556  0.00  0.00     0.085 H 
ATOM     74  NBC 3D4 d   1      -2.032  30.628  11.616  0.00  0.00    -0.272 NA
ATOM     75  H11 3D4 d   1      -1.702  28.868  12.669  0.00  0.00     0.114 H 
ATOM     76  CAU 3D4 d   1      -1.597  31.819  11.256  0.00  0.00     0.012 A 
ATOM     77  H19 3D4 d   1      -2.195  32.432  10.591  0.00  0.00     0.116 H 
ENDBRANCH  62  68
ENDBRANCH  55  58
ENDBRANCH  52  55
ENDBRANCH  50  52
BRANCH  50  78
ATOM     78  CB  3D4 d   1       2.908  37.030   6.605  0.00  0.00    -0.030 C 
ATOM     79  H26 3D4 d   1       2.751  36.262   5.833  0.00  0.00     0.036 H 
ATOM     80  H27 3D4 d   1       3.980  37.265   6.676  0.00  0.00     0.036 H 
BRANCH  78  81
ATOM     81  CG  3D4 d   1       2.138  38.292   6.226  0.00  0.00    -0.061 C 
ATOM     82  H40 3D4 d   1       2.858  39.102   6.034  0.00  0.00     0.033 H 
ATOM     83  H41 3D4 d   1       1.485  38.573   7.065  0.00  0.00     0.033 H 
BRANCH  81  84
ATOM     84  CD  3D4 d   1       1.283  38.095   4.986  0.00  0.00    -0.043 C 
ATOM     85  H42 3D4 d   1       0.389  37.518   5.265  0.00  0.00     0.035 H 
ATOM     86  H43 3D4 d   1       1.867  37.531   4.244  0.00  0.00     0.035 H 
BRANCH  84  87
ATOM     87  CE  3D4 d   1       0.835  39.414   4.354  0.00  0.00     0.080 C 
ATOM     88  H44 3D4 d   1       1.629  39.790   3.692  0.00  0.00     0.075 H 
ATOM     89  H45 3D4 d   1       0.639  40.151   5.147  0.00  0.00     0.075 H 
BRANCH  87  90
ATOM     90  NZ  3D4 d   1      -0.379  39.203   3.580  0.00  0.00    -0.079 N 
ATOM     91  H46 3D4 d   1      -0.669  40.075   3.166  0.00  0.00     0.274 HD
ATOM     92  H47 3D4 d   1      -1.108  38.859   4.185  0.00  0.00     0.274 HD
ATOM     93  H48 3D4 d   1      -0.201  38.529   2.852  0.00  0.00     0.274 HD
ENDBRANCH  87  90
ENDBRANCH  84  87
ENDBRANCH  81  84
ENDBRANCH  78  81
ENDBRANCH  50  78
ENDBRANCH   1  50
TORSDOF 23
