REMARK  10 active torsions:
REMARK  status: ('A' for Active; 'I' for Inactive)
REMARK    1  A    between atoms: C17_6  and  C16_7 
REMARK    2  A    between atoms: C11_12  and  C10_13 
REMARK    3  A    between atoms: C10_13  and  N09_14 
REMARK    4  A    between atoms: N09_14  and  C03_15 
REMARK    5  A    between atoms: C03_15  and  C02_16 
REMARK    6  A    between atoms: C03_15  and  C04_19 
REMARK       I    between atoms: C02_16  and  N01_18 
REMARK    7  A    between atoms: C04_19  and  C05_20 
REMARK    8  A    between atoms: C05_20  and  C06_21 
REMARK    9  A    between atoms: C06_21  and  C07_22 
REMARK   10  A    between atoms: C07_22  and  N08_23 
ROOT
ATOM      1  N09 3D5 d   1       2.791  37.015   9.797  0.00  0.00    -0.059 N 
ATOM      2  H11 3D5 d   1       2.375  36.644   8.957  0.00  0.00     0.278 HD
ATOM      3  H12 3D5 d   1       3.567  36.434  10.072  0.00  0.00     0.278 HD
ENDROOT
BRANCH   1   4
ATOM      4  C10 3D5 d   1       1.796  37.097  10.876  0.00  0.00     0.106 C 
ATOM      5  H9  3D5 d   1       2.267  37.556  11.758  0.00  0.00     0.083 H 
ATOM      6  H10 3D5 d   1       0.959  37.725  10.538  0.00  0.00     0.083 H 
BRANCH   4   7
ATOM      7  C11 3D5 d   1       1.306  35.858  11.230  0.00  0.00    -0.033 A 
ATOM      8  C14 3D5 d   1       0.353  35.222  10.441  0.00  0.00    -0.074 A 
ATOM      9  C15 3D5 d   1      -0.133  33.976  10.832  0.00  0.00    -0.072 A 
ATOM     10  H6  3D5 d   1      -0.007  35.690   9.532  0.00  0.00     0.084 H 
ATOM     11  C16 3D5 d   1       0.323  33.396  12.012  0.00  0.00    -0.025 A 
ATOM     12  H5  3D5 d   1      -0.864  33.460  10.219  0.00  0.00     0.084 H 
ATOM     13  C13 3D5 d   1       1.311  34.015  12.762  0.00  0.00    -0.072 A 
ATOM     14  C12 3D5 d   1       1.777  35.267  12.395  0.00  0.00    -0.074 A 
ATOM     15  H7  3D5 d   1       1.719  33.519  13.636  0.00  0.00     0.084 H 
ATOM     16  H8  3D5 d   1       2.504  35.782  13.013  0.00  0.00     0.084 H 
BRANCH  11  17
ATOM     17  C17 3D5 d   1      -0.118  32.137  12.387  0.00  0.00    -0.008 A 
ATOM     18  C18 3D5 d   1       0.523  31.468  13.424  0.00  0.00    -0.070 A 
ATOM     19  C19 3D5 d   1       0.098  30.215  13.841  0.00  0.00    -0.065 A 
ATOM     20  H1  3D5 d   1       1.370  31.934  13.915  0.00  0.00     0.085 H 
ATOM     21  C20 3D5 d   1      -1.032  29.653  13.260  0.00  0.00     0.002 A 
ATOM     22  H2  3D5 d   1       0.641  29.680  14.612  0.00  0.00     0.085 H 
ATOM     23  N21 3D5 d   1      -1.703  30.351  12.245  0.00  0.00    -0.272 NA
ATOM     24  H3  3D5 d   1      -1.392  28.684  13.588  0.00  0.00     0.114 H 
ATOM     25  C22 3D5 d   1      -1.263  31.601  11.810  0.00  0.00     0.012 A 
ATOM     26  H4  3D5 d   1      -1.801  32.142  11.040  0.00  0.00     0.116 H 
ENDBRANCH  11  17
ENDBRANCH   4   7
ENDBRANCH   1   4
BRANCH   1  27
ATOM     27  C03 3D5 d   1       3.230  38.403   9.589  0.00  0.00     0.178 C 
ATOM     28  H13 3D5 d   1       2.356  39.010   9.309  0.00  0.00     0.099 H 
BRANCH  27  29
ATOM     29  C02 3D5 d   1       3.798  38.951  10.920  0.00  0.00     0.246 C 
ATOM     30  O23 3D5 d   1       3.242  39.880  11.511  0.00  0.00    -0.271 OA
ATOM     31  N01 3D5 d   1       4.885  38.324  11.382  0.00  0.00    -0.368 N 
ATOM     32  H14 3D5 d   1       5.309  38.622  12.237  0.00  0.00     0.159 HD
ATOM     33  H15 3D5 d   1       5.274  37.557  10.872  0.00  0.00     0.159 HD
ENDBRANCH  27  29
BRANCH  27  34
ATOM     34  C04 3D5 d   1       4.248  38.489   8.450  0.00  0.00    -0.030 C 
ATOM     35  H16 3D5 d   1       5.126  37.873   8.692  0.00  0.00     0.036 H 
ATOM     36  H17 3D5 d   1       4.561  39.535   8.312  0.00  0.00     0.036 H 
BRANCH  34  37
ATOM     37  C05 3D5 d   1       3.593  37.970   7.155  0.00  0.00    -0.061 C 
ATOM     38  H18 3D5 d   1       3.284  36.926   7.311  0.00  0.00     0.033 H 
ATOM     39  H19 3D5 d   1       4.334  38.016   6.343  0.00  0.00     0.033 H 
BRANCH  37  40
ATOM     40  C06 3D5 d   1       2.356  38.793   6.741  0.00  0.00    -0.043 C 
ATOM     41  H20 3D5 d   1       2.643  39.842   6.577  0.00  0.00     0.035 H 
ATOM     42  H21 3D5 d   1       1.592  38.742   7.531  0.00  0.00     0.035 H 
BRANCH  40  43
ATOM     43  C07 3D5 d   1       1.800  38.192   5.435  0.00  0.00     0.080 C 
ATOM     44  H22 3D5 d   1       1.520  37.146   5.627  0.00  0.00     0.075 H 
ATOM     45  H23 3D5 d   1       2.593  38.225   4.674  0.00  0.00     0.075 H 
BRANCH  43  46
ATOM     46  N08 3D5 d   1       0.615  38.900   4.903  0.00  0.00    -0.079 N 
ATOM     47  H24 3D5 d   1       0.310  38.452   4.053  0.00  0.00     0.274 HD
ATOM     48  H25 3D5 d   1       0.856  39.860   4.710  0.00  0.00     0.274 HD
ATOM     49  H26 3D5 d   1      -0.128  38.870   5.584  0.00  0.00     0.274 HD
ENDBRANCH  43  46
ENDBRANCH  40  43
ENDBRANCH  37  40
ENDBRANCH  34  37
ENDBRANCH  27  34
ENDBRANCH   1  27
TORSDOF 10
