REMARK  24 active torsions:
REMARK  status: ('A' for Active; 'I' for Inactive)
REMARK    1  A    between atoms: CBL_6  and  CBK_7 
REMARK    2  A    between atoms: CBK_7  and  CBG_8 
REMARK    3  A    between atoms: CBG_8  and  CBH_9 
REMARK    4  A    between atoms: CBG_8  and  NBE_12 
REMARK       I    between atoms: CBH_9  and  NBI_11 
REMARK       I    between atoms: NBE_12  and  CBD_13 
REMARK    5  A    between atoms: CBD_13  and  CAZ_15 
REMARK    6  A    between atoms: CAZ_15  and  CBA_16 
REMARK    7  A    between atoms: CAZ_15  and  NAY_19 
REMARK    8  A    between atoms: CBA_16  and  CBB_17 
REMARK    9  A    between atoms: CBA_16  and  OBC_18 
REMARK   10  A    between atoms: NAY_19  and  CAX_20 
REMARK   11  A    between atoms: CAX_20  and  CAG_21 
REMARK   12  A    between atoms: CAG_21  and  NAF_22 
REMARK   13  A    between atoms: CAG_21  and  CAH_35 
REMARK       I    between atoms: NAF_22  and  C_23 
REMARK   14  A    between atoms: C_23  and  CA_25 
REMARK   15  A    between atoms: CA_25  and  N_26 
REMARK   16  A    between atoms: CA_25  and  CB_30 
REMARK       I    between atoms: N_26  and  CAB_27 
REMARK   17  A    between atoms: CAB_27  and  CAA_29 
REMARK   18  A    between atoms: CB_30  and  CG_31 
REMARK   19  A    between atoms: CG_31  and  CD_32 
REMARK   20  A    between atoms: CD_32  and  CE_33 
REMARK   21  A    between atoms: CE_33  and  NZ_34 
REMARK   22  A    between atoms: CAH_35  and  OAI_36 
REMARK   23  A    between atoms: OAI_36  and  CAJ_37 
REMARK   24  A    between atoms: CAJ_37  and  CAK_38 
ROOT
ATOM      1  CAG 3D0 d   1       1.209  32.257   9.471  0.00  0.00     0.056 C 
ATOM      2  H22 3D0 d   1       0.112  32.214   9.537  0.00  0.00     0.078 H 
ENDROOT
BRANCH   1   3
ATOM      3  CAX 3D0 d   1       1.634  31.348   8.305  0.00  0.00     0.103 C 
ATOM      4  H20 3D0 d   1       0.744  30.864   7.875  0.00  0.00     0.079 H 
ATOM      5  H21 3D0 d   1       2.132  31.953   7.533  0.00  0.00     0.079 H 
BRANCH   3   6
ATOM      6  NAY 3D0 d   1       2.566  30.314   8.794  0.00  0.00    -0.058 N 
ATOM      7  H18 3D0 d   1       3.332  30.748   9.285  0.00  0.00     0.278 HD
ATOM      8  H19 3D0 d   1       2.083  29.684   9.415  0.00  0.00     0.278 HD
BRANCH   6   9
ATOM      9  CAZ 3D0 d   1       3.072  29.580   7.637  0.00  0.00     0.201 C 
ATOM     10  H12 3D0 d   1       2.823  30.157   6.734  0.00  0.00     0.103 H 
BRANCH   9  11
ATOM     11  CBD 3D0 d   1       2.402  28.199   7.525  0.00  0.00     0.251 C 
ATOM     12  NBE 3D0 d   1       2.706  27.495   6.266  0.00  0.00    -0.346 N 
ATOM     13  H11 3D0 d   1       3.287  28.010   5.636  0.00  0.00     0.163 HD
ATOM     14  OBF 3D0 d   1       1.698  27.766   8.391  0.00  0.00    -0.271 OA
BRANCH  12  15
ATOM     15  CBG 3D0 d   1       2.309  26.181   5.778  0.00  0.00     0.093 C 
ATOM     16  H8  3D0 d   1       3.093  25.451   6.026  0.00  0.00     0.088 H 
BRANCH  15  17
ATOM     17  CBK 3D0 d   1       2.243  26.358   4.239  0.00  0.00    -0.014 C 
ATOM     18  H6  3D0 d   1       2.509  25.403   3.761  0.00  0.00     0.043 H 
ATOM     19  H7  3D0 d   1       1.216  26.635   3.959  0.00  0.00     0.043 H 
BRANCH  17  20
ATOM     20  CBL 3D0 d   1       3.226  27.473   3.723  0.00  0.00    -0.056 A 
ATOM     21  CBM 3D0 d   1       2.703  28.560   3.022  0.00  0.00    -0.077 A 
ATOM     22  CBN 3D0 d   1       3.532  29.577   2.535  0.00  0.00    -0.082 A 
ATOM     23  H1  3D0 d   1       1.634  28.618   2.851  0.00  0.00     0.084 H 
ATOM     24  CBO 3D0 d   1       4.923  29.520   2.769  0.00  0.00    -0.083 A 
ATOM     25  H2  3D0 d   1       3.107  30.406   1.980  0.00  0.00     0.083 H 
ATOM     26  CBP 3D0 d   1       5.467  28.431   3.482  0.00  0.00    -0.082 A 
ATOM     27  H3  3D0 d   1       5.570  30.309   2.403  0.00  0.00     0.083 H 
ATOM     28  CBQ 3D0 d   1       4.616  27.426   3.952  0.00  0.00    -0.077 A 
ATOM     29  H4  3D0 d   1       6.534  28.374   3.664  0.00  0.00     0.083 H 
ATOM     30  H5  3D0 d   1       5.034  26.593   4.505  0.00  0.00     0.084 H 
ENDBRANCH  17  20
ENDBRANCH  15  17
BRANCH  15  31
ATOM     31  CBH 3D0 d   1       1.010  25.676   6.384  0.00  0.00     0.238 C 
ATOM     32  OBJ 3D0 d   1       1.010  25.242   7.487  0.00  0.00    -0.271 OA
ATOM     33  NBI 3D0 d   1      -0.234  25.722   5.612  0.00  0.00    -0.368 N 
ATOM     34  H9  3D0 d   1      -1.086  25.388   6.016  0.00  0.00     0.159 HD
ATOM     35  H10 3D0 d   1      -0.232  26.087   4.681  0.00  0.00     0.159 HD
ENDBRANCH  15  31
ENDBRANCH  12  15
ENDBRANCH   9  11
BRANCH   9  36
ATOM     36  CBA 3D0 d   1       4.601  29.425   7.700  0.00  0.00     0.068 C 
ATOM     37  H13 3D0 d   1       4.997  29.490   6.676  0.00  0.00     0.086 H 
BRANCH  36  38
ATOM     38  CBB 3D0 d   1       5.019  28.070   8.301  0.00  0.00    -0.050 C 
ATOM     39  H14 3D0 d   1       6.117  28.003   8.326  0.00  0.00     0.031 H 
ATOM     40  H15 3D0 d   1       4.616  27.255   7.682  0.00  0.00     0.031 H 
ATOM     41  H16 3D0 d   1       4.623  27.985   9.323  0.00  0.00     0.031 H 
ENDBRANCH  36  38
BRANCH  36  42
ATOM     42  OBC 3D0 d   1       5.162  30.455   8.470  0.00  0.00    -0.393 OA
ATOM     43  H17 3D0 d   1       4.909  31.295   8.106  0.00  0.00     0.210 HD
ENDBRANCH  36  42
ENDBRANCH   9  36
ENDBRANCH   6   9
ENDBRANCH   3   6
ENDBRANCH   1   3
BRANCH   1  44
ATOM     44  NAF 3D0 d   1       1.588  33.652   9.251  0.00  0.00    -0.351 N 
ATOM     45  C   3D0 d   1       2.951  34.233   9.193  0.00  0.00     0.240 C 
ATOM     46  O   3D0 d   1       3.953  33.605   9.331  0.00  0.00    -0.271 OA
ATOM     47  H23 3D0 d   1       0.833  34.295   9.124  0.00  0.00     0.163 HD
BRANCH  45  48
ATOM     48  CA  3D0 d   1       2.979  35.744   8.974  0.00  0.00     0.089 C 
ATOM     49  H24 3D0 d   1       3.974  36.185   9.133  0.00  0.00     0.087 H 
BRANCH  48  50
ATOM     50  N   3D0 d   1       2.032  36.153   9.997  0.00  0.00    -0.348 N 
ATOM     51  CAB 3D0 d   1       2.413  37.057  11.082  0.00  0.00     0.214 C 
ATOM     52  OAQ 3D0 d   1       3.507  37.519  11.105  0.00  0.00    -0.274 OA
ATOM     53  H25 3D0 d   1       1.095  35.807   9.958  0.00  0.00     0.163 HD
BRANCH  51  54
ATOM     54  CAA 3D0 d   1       1.391  37.423  12.174  0.00  0.00    -0.003 C 
ATOM     55  H26 3D0 d   1       1.857  38.108  12.898  0.00  0.00     0.040 H 
ATOM     56  H27 3D0 d   1       1.065  36.509  12.692  0.00  0.00     0.040 H 
ATOM     57  H28 3D0 d   1       0.521  37.913  11.713  0.00  0.00     0.040 H 
ENDBRANCH  51  54
ENDBRANCH  48  50
BRANCH  48  58
ATOM     58  CB  3D0 d   1       2.491  36.029   7.548  0.00  0.00    -0.038 C 
ATOM     59  H29 3D0 d   1       1.653  35.351   7.328  0.00  0.00     0.036 H 
ATOM     60  H30 3D0 d   1       3.319  35.827   6.853  0.00  0.00     0.036 H 
BRANCH  58  61
ATOM     61  CG  3D0 d   1       2.009  37.490   7.321  0.00  0.00    -0.061 C 
ATOM     62  H31 3D0 d   1       2.829  38.178   7.572  0.00  0.00     0.033 H 
ATOM     63  H32 3D0 d   1       1.150  37.688   7.979  0.00  0.00     0.033 H 
BRANCH  61  64
ATOM     64  CD  3D0 d   1       1.580  37.736   5.846  0.00  0.00    -0.043 C 
ATOM     65  H33 3D0 d   1       0.966  36.887   5.510  0.00  0.00     0.035 H 
ATOM     66  H34 3D0 d   1       2.483  37.805   5.222  0.00  0.00     0.035 H 
BRANCH  64  67
ATOM     67  CE  3D0 d   1       0.758  39.043   5.679  0.00  0.00     0.080 C 
ATOM     68  H35 3D0 d   1       1.448  39.900   5.678  0.00  0.00     0.075 H 
ATOM     69  H36 3D0 d   1       0.060  39.135   6.524  0.00  0.00     0.075 H 
BRANCH  67  70
ATOM     70  NZ  3D0 d   1      -0.010  39.050   4.425  0.00  0.00    -0.079 N 
ATOM     71  H37 3D0 d   1      -0.528  39.911   4.353  0.00  0.00     0.274 HD
ATOM     72  H38 3D0 d   1      -0.650  38.271   4.419  0.00  0.00     0.274 HD
ATOM     73  H39 3D0 d   1       0.622  38.972   3.643  0.00  0.00     0.274 HD
ENDBRANCH  67  70
ENDBRANCH  64  67
ENDBRANCH  61  64
ENDBRANCH  58  61
ENDBRANCH  48  58
ENDBRANCH  45  48
ENDBRANCH   1  44
BRANCH   1  74
ATOM     74  CAH 3D0 d   1       1.780  31.771  10.811  0.00  0.00     0.040 C 
ATOM     75  H40 3D0 d   1       2.879  31.772  10.766  0.00  0.00     0.077 H 
ATOM     76  H41 3D0 d   1       1.422  30.751  11.016  0.00  0.00     0.077 H 
BRANCH  74  77
ATOM     77  OAI 3D0 d   1       1.343  32.649  11.848  0.00  0.00    -0.385 OA
BRANCH  77  78
ATOM     78  CAJ 3D0 d   1      -0.057  32.624  12.124  0.00  0.00     0.045 C 
ATOM     79  H42 3D0 d   1      -0.622  32.697  11.183  0.00  0.00     0.081 H 
ATOM     80  H43 3D0 d   1      -0.321  33.469  12.777  0.00  0.00     0.081 H 
BRANCH  78  81
ATOM     81  CAK 3D0 d   1      -0.399  31.287  12.836  0.00  0.00    -0.017 A 
ATOM     82  CAL 3D0 d   1       0.470  30.750  13.798  0.00  0.00    -0.072 A 
ATOM     83  CAM 3D0 d   1       0.116  29.544  14.403  0.00  0.00    -0.065 A 
ATOM     84  H44 3D0 d   1       1.390  31.258  14.063  0.00  0.00     0.084 H 
ATOM     85  CAN 3D0 d   1      -1.081  28.925  14.033  0.00  0.00     0.002 A 
ATOM     86  H45 3D0 d   1       0.760  29.093  15.149  0.00  0.00     0.085 H 
ATOM     87  NAO 3D0 d   1      -1.886  29.461  13.115  0.00  0.00    -0.273 NA
ATOM     88  H46 3D0 d   1      -1.361  27.989  14.502  0.00  0.00     0.114 H 
ATOM     89  CAP 3D0 d   1      -1.580  30.610  12.520  0.00  0.00     0.010 A 
ATOM     90  H47 3D0 d   1      -2.255  31.027  11.781  0.00  0.00     0.115 H 
ENDBRANCH  78  81
ENDBRANCH  77  78
ENDBRANCH  74  77
ENDBRANCH   1  74
TORSDOF 24
