REMARK  7 active torsions:
REMARK  status: ('A' for Active; 'I' for Inactive)
REMARK    1  A    between atoms: P_2  and  C5_5 
REMARK    2  A    between atoms: C5_5  and  N_6 
REMARK    3  A    between atoms: C5_5  and  C3_7 
REMARK    4  A    between atoms: C3_7  and  C4_8 
REMARK    5  A    between atoms: C3_7  and  C2_9 
REMARK    6  A    between atoms: C2_9  and  C1_10 
REMARK    7  A    between atoms: C1_10  and  C_11 
ROOT
ATOM      1  C3  Q07 d   1      23.298  -4.978  11.200  0.00  0.00    -0.018 C 
ATOM      2  H5  Q07 d   1      24.103  -4.641  11.870  0.00  0.00     0.043 H 
ENDROOT
BRANCH   1   3
ATOM      3  C5  Q07 d   1      22.868  -3.747  10.392  0.00  0.00     0.209 C 
ATOM      4  H1  Q07 d   1      22.323  -4.125   9.514  0.00  0.00     0.106 H 
BRANCH   3   5
ATOM      5  P   Q07 d   1      21.736  -2.627  11.290  0.00  0.00     0.291 P 
ATOM      6  O2  Q07 d   1      22.334  -2.257  12.601  0.00  0.00    -0.638 OA
ATOM      7  O   Q07 d   1      20.292  -3.147  11.305  0.00  0.00    -0.638 OA
ATOM      8  O1  Q07 d   1      21.820  -1.271  10.466  0.00  0.00    -0.638 OA
ENDBRANCH   3   5
BRANCH   3   9
ATOM      9  N   Q07 d   1      24.017  -2.966   9.898  0.00  0.00    -0.062 N 
ATOM     10  H2  Q07 d   1      24.648  -3.575   9.401  0.00  0.00     0.275 HD
ATOM     11  H3  Q07 d   1      24.499  -2.547  10.678  0.00  0.00     0.275 HD
ATOM     12  H4  Q07 d   1      23.689  -2.242   9.277  0.00  0.00     0.275 HD
ENDBRANCH   3   9
ENDBRANCH   1   3
BRANCH   1  13
ATOM     13  C4  Q07 d   1      22.182  -5.570  12.133  0.00  0.00    -0.070 C 
ATOM     14  H6  Q07 d   1      22.579  -6.445  12.670  0.00  0.00     0.028 H 
ATOM     15  H7  Q07 d   1      21.318  -5.874  11.524  0.00  0.00     0.028 H 
ATOM     16  H8  Q07 d   1      21.868  -4.806  12.859  0.00  0.00     0.028 H 
ENDBRANCH   1  13
BRANCH   1  17
ATOM     17  C2  Q07 d   1      23.902  -6.021  10.286  0.00  0.00    -0.060 C 
ATOM     18  H9  Q07 d   1      24.604  -5.518   9.605  0.00  0.00     0.033 H 
ATOM     19  H10 Q07 d   1      23.090  -6.480   9.703  0.00  0.00     0.033 H 
BRANCH  17  20
ATOM     20  C1  Q07 d   1      24.670  -7.153  11.028  0.00  0.00    -0.068 C 
ATOM     21  H11 Q07 d   1      24.553  -7.021  12.114  0.00  0.00     0.032 H 
ATOM     22  H12 Q07 d   1      25.737  -7.101  10.765  0.00  0.00     0.032 H 
BRANCH  20  23
ATOM     23  C   Q07 d   1      24.127  -8.490  10.631  0.00  0.00    -0.077 C 
ATOM     24  H13 Q07 d   1      24.677  -9.281  11.161  0.00  0.00     0.027 H 
ATOM     25  H14 Q07 d   1      24.244  -8.626   9.546  0.00  0.00     0.027 H 
ATOM     26  H15 Q07 d   1      23.060  -8.546  10.894  0.00  0.00     0.027 H 
ENDBRANCH  20  23
ENDBRANCH  17  20
ENDBRANCH   1  17
TORSDOF 7
