REMARK  5 active torsions:
REMARK  status: ('A' for Active; 'I' for Inactive)
REMARK    1  A    between atoms: P_2  and  C_5 
REMARK    2  A    between atoms: C_5  and  N_6 
REMARK    3  A    between atoms: C_5  and  C1_7 
REMARK    4  A    between atoms: C1_7  and  C2_8 
REMARK    5  A    between atoms: C2_8  and  C3_9 
ROOT
ATOM      1  C2  Q06 d   1      23.341  -5.249  11.348  0.00  0.00    -0.059 C 
ATOM      2  H7  Q06 d   1      23.354  -5.534  12.410  0.00  0.00     0.033 H 
ATOM      3  H8  Q06 d   1      24.200  -4.596  11.133  0.00  0.00     0.033 H 
ENDROOT
BRANCH   1   4
ATOM      4  C1  Q06 d   1      22.115  -4.589  11.021  0.00  0.00    -0.026 C 
ATOM      5  H5  Q06 d   1      21.383  -5.343  10.697  0.00  0.00     0.037 H 
ATOM      6  H6  Q06 d   1      21.739  -4.075  11.918  0.00  0.00     0.037 H 
BRANCH   4   7
ATOM      7  C   Q06 d   1      22.287  -3.593   9.937  0.00  0.00     0.206 C 
ATOM      8  H1  Q06 d   1      21.724  -3.857   9.030  0.00  0.00     0.106 H 
BRANCH   7   9
ATOM      9  P   Q06 d   1      21.425  -2.461  11.031  0.00  0.00     0.290 P 
ATOM     10  O2  Q06 d   1      22.140  -2.230  12.416  0.00  0.00    -0.638 OA
ATOM     11  O   Q06 d   1      21.272  -1.207  10.349  0.00  0.00    -0.638 OA
ATOM     12  O1  Q06 d   1      20.003  -3.049  11.197  0.00  0.00    -0.638 OA
ENDBRANCH   7   9
BRANCH   7  13
ATOM     13  N   Q06 d   1      23.613  -3.145   9.508  0.00  0.00    -0.062 N 
ATOM     14  H2  Q06 d   1      24.021  -3.838   8.900  0.00  0.00     0.275 HD
ATOM     15  H3  Q06 d   1      24.202  -3.018  10.316  0.00  0.00     0.275 HD
ATOM     16  H4  Q06 d   1      23.529  -2.271   9.013  0.00  0.00     0.275 HD
ENDBRANCH   7  13
ENDBRANCH   4   7
ENDBRANCH   1   4
BRANCH   1  17
ATOM     17  C3  Q06 d   1      23.374  -6.438  10.497  0.00  0.00    -0.054 C 
ATOM     18  C7  Q06 d   1      22.058  -7.120  10.153  0.00  0.00    -0.062 C 
ATOM     19  C6  Q06 d   1      22.469  -8.552   9.886  0.00  0.00    -0.065 C 
ATOM     20  H10 Q06 d   1      21.601  -6.668   9.260  0.00  0.00     0.033 H 
ATOM     21  H11 Q06 d   1      21.352  -7.063  10.995  0.00  0.00     0.033 H 
ATOM     22  C5  Q06 d   1      23.725  -8.755  10.715  0.00  0.00    -0.065 C 
ATOM     23  H12 Q06 d   1      22.682  -8.701   8.817  0.00  0.00     0.033 H 
ATOM     24  H13 Q06 d   1      21.678  -9.248  10.203  0.00  0.00     0.033 H 
ATOM     25  C4  Q06 d   1      24.050  -7.446  11.390  0.00  0.00    -0.062 C 
ATOM     26  H14 Q06 d   1      24.558  -9.057  10.063  0.00  0.00     0.033 H 
ATOM     27  H15 Q06 d   1      23.551  -9.533  11.473  0.00  0.00     0.033 H 
ATOM     28  H16 Q06 d   1      23.638  -7.412  12.409  0.00  0.00     0.033 H 
ATOM     29  H17 Q06 d   1      25.136  -7.278  11.427  0.00  0.00     0.033 H 
ATOM     30  H9  Q06 d   1      23.937  -6.226   9.576  0.00  0.00     0.040 H 
ENDBRANCH   1  17
TORSDOF 5
