REMARK  9 active torsions:
REMARK  status: ('A' for Active; 'I' for Inactive)
REMARK    1  A    between atoms: P_2  and  C7_5 
REMARK    2  A    between atoms: C7_5  and  N_6 
REMARK    3  A    between atoms: C7_5  and  C3_7 
REMARK    4  A    between atoms: C3_7  and  C4_8 
REMARK    5  A    between atoms: C3_7  and  C2_11 
REMARK    6  A    between atoms: C4_8  and  C5_9 
REMARK    7  A    between atoms: C5_9  and  C6_10 
REMARK    8  A    between atoms: C2_11  and  C1_12 
REMARK    9  A    between atoms: C1_12  and  C_13 
ROOT
ATOM      1  C3  Q08 d   1      23.480  -4.801  11.186  0.00  0.00    -0.014 C 
ATOM      2  H5  Q08 d   1      23.549  -4.361  12.192  0.00  0.00     0.044 H 
ENDROOT
BRANCH   1   3
ATOM      3  C7  Q08 d   1      22.807  -3.773  10.250  0.00  0.00     0.209 C 
ATOM      4  H1  Q08 d   1      22.207  -4.364   9.543  0.00  0.00     0.106 H 
BRANCH   3   5
ATOM      5  P   Q08 d   1      21.635  -2.657  11.112  0.00  0.00     0.291 P 
ATOM      6  O2  Q08 d   1      22.022  -2.203  12.443  0.00  0.00    -0.638 OA
ATOM      7  O   Q08 d   1      20.182  -3.331  11.044  0.00  0.00    -0.638 OA
ATOM      8  O1  Q08 d   1      21.664  -1.330  10.285  0.00  0.00    -0.638 OA
ENDBRANCH   3   5
BRANCH   3   9
ATOM      9  N   Q08 d   1      23.765  -2.988   9.427  0.00  0.00    -0.062 N 
ATOM     10  H2  Q08 d   1      24.401  -3.616   8.961  0.00  0.00     0.275 HD
ATOM     11  H3  Q08 d   1      24.286  -2.363  10.022  0.00  0.00     0.275 HD
ATOM     12  H4  Q08 d   1      23.258  -2.453   8.740  0.00  0.00     0.275 HD
ENDBRANCH   3   9
ENDBRANCH   1   3
BRANCH   1  13
ATOM     13  C4  Q08 d   1      24.879  -5.042  10.653  0.00  0.00    -0.059 C 
ATOM     14  H6  Q08 d   1      25.466  -4.121  10.784  0.00  0.00     0.033 H 
ATOM     15  H7  Q08 d   1      24.808  -5.282   9.582  0.00  0.00     0.033 H 
BRANCH  13  16
ATOM     16  C5  Q08 d   1      25.598  -6.173  11.351  0.00  0.00    -0.068 C 
ATOM     17  H8  Q08 d   1      25.716  -7.009  10.646  0.00  0.00     0.032 H 
ATOM     18  H9  Q08 d   1      24.997  -6.501  12.212  0.00  0.00     0.032 H 
BRANCH  16  19
ATOM     19  C6  Q08 d   1      26.940  -5.756  11.832  0.00  0.00    -0.077 C 
ATOM     20  H10 Q08 d   1      27.430  -6.604  12.333  0.00  0.00     0.027 H 
ATOM     21  H11 Q08 d   1      26.832  -4.923  12.543  0.00  0.00     0.027 H 
ATOM     22  H12 Q08 d   1      27.552  -5.432  10.977  0.00  0.00     0.027 H 
ENDBRANCH  16  19
ENDBRANCH  13  16
ENDBRANCH   1  13
BRANCH   1  23
ATOM     23  C2  Q08 d   1      22.720  -6.125  11.306  0.00  0.00    -0.059 C 
ATOM     24  H13 Q08 d   1      21.754  -5.989  10.797  0.00  0.00     0.033 H 
ATOM     25  H14 Q08 d   1      22.548  -6.301  12.378  0.00  0.00     0.033 H 
BRANCH  23  26
ATOM     26  C1  Q08 d   1      23.358  -7.417  10.730  0.00  0.00    -0.068 C 
ATOM     27  H15 Q08 d   1      23.980  -7.873  11.514  0.00  0.00     0.032 H 
ATOM     28  H16 Q08 d   1      23.992  -7.137   9.876  0.00  0.00     0.032 H 
BRANCH  26  29
ATOM     29  C   Q08 d   1      22.371  -8.436  10.264  0.00  0.00    -0.077 C 
ATOM     30  H17 Q08 d   1      22.907  -9.314   9.873  0.00  0.00     0.027 H 
ATOM     31  H18 Q08 d   1      21.746  -8.004   9.469  0.00  0.00     0.027 H 
ATOM     32  H19 Q08 d   1      21.733  -8.741  11.107  0.00  0.00     0.027 H 
ENDBRANCH  26  29
ENDBRANCH  23  26
ENDBRANCH   1  23
TORSDOF 9
