REMARK  7 active torsions:
REMARK  status: ('A' for Active; 'I' for Inactive)
REMARK    1  A    between atoms: P_2  and  C5_5 
REMARK    2  A    between atoms: C5_5  and  N_6 
REMARK    3  A    between atoms: C5_5  and  C3_7 
REMARK    4  A    between atoms: C3_7  and  C4_8 
REMARK    5  A    between atoms: C3_7  and  C2_9 
REMARK    6  A    between atoms: C2_9  and  C1_10 
REMARK    7  A    between atoms: C1_10  and  C_11 
ROOT
ATOM      1  C3  Q07 d   1      22.721  -4.804  10.745  0.00  0.00    -0.018 C 
ATOM      2  H5  Q07 d   1      21.794  -5.058  11.280  0.00  0.00     0.043 H 
ENDROOT
BRANCH   1   3
ATOM      3  C5  Q07 d   1      22.377  -3.627   9.866  0.00  0.00     0.209 C 
ATOM      4  H1  Q07 d   1      21.844  -4.010   8.983  0.00  0.00     0.106 H 
BRANCH   3   5
ATOM      5  P   Q07 d   1      21.238  -2.493  10.731  0.00  0.00     0.291 P 
ATOM      6  O2  Q07 d   1      21.829  -2.216  12.095  0.00  0.00    -0.638 OA
ATOM      7  O   Q07 d   1      19.890  -3.245  10.922  0.00  0.00    -0.638 OA
ATOM      8  O1  Q07 d   1      21.029  -1.393   9.960  0.00  0.00    -0.638 OA
ENDBRANCH   3   5
BRANCH   3   9
ATOM      9  N   Q07 d   1      23.577  -2.996   9.398  0.00  0.00    -0.062 N 
ATOM     10  H2  Q07 d   1      24.156  -3.678   8.933  0.00  0.00     0.275 HD
ATOM     11  H3  Q07 d   1      24.079  -2.607  10.181  0.00  0.00     0.275 HD
ATOM     12  H4  Q07 d   1      23.340  -2.260   8.752  0.00  0.00     0.275 HD
ENDBRANCH   3   9
ENDBRANCH   1   3
BRANCH   1  13
ATOM     13  C4  Q07 d   1      23.730  -4.459  11.799  0.00  0.00    -0.070 C 
ATOM     14  H6  Q07 d   1      23.943  -5.350  12.408  0.00  0.00     0.028 H 
ATOM     15  H7  Q07 d   1      23.330  -3.662  12.443  0.00  0.00     0.028 H 
ATOM     16  H8  Q07 d   1      24.657  -4.112  11.319  0.00  0.00     0.028 H 
ENDBRANCH   1  13
BRANCH   1  17
ATOM     17  C2  Q07 d   1      23.110  -6.040   9.986  0.00  0.00    -0.060 C 
ATOM     18  H9  Q07 d   1      24.142  -5.925   9.621  0.00  0.00     0.033 H 
ATOM     19  H10 Q07 d   1      22.430  -6.162   9.130  0.00  0.00     0.033 H 
BRANCH  17  20
ATOM     20  C1  Q07 d   1      23.031  -7.279  10.858  0.00  0.00    -0.068 C 
ATOM     21  H11 Q07 d   1      22.088  -7.243  11.423  0.00  0.00     0.032 H 
ATOM     22  H12 Q07 d   1      23.879  -7.262  11.558  0.00  0.00     0.032 H 
BRANCH  20  23
ATOM     23  C   Q07 d   1      23.075  -8.575  10.095  0.00  0.00    -0.077 C 
ATOM     24  H13 Q07 d   1      23.013  -9.418  10.800  0.00  0.00     0.027 H 
ATOM     25  H14 Q07 d   1      24.018  -8.637   9.532  0.00  0.00     0.027 H 
ATOM     26  H15 Q07 d   1      22.227  -8.618   9.396  0.00  0.00     0.027 H 
ENDBRANCH  20  23
ENDBRANCH  17  20
ENDBRANCH   1  17
TORSDOF 7
