REMARK  4 active torsions:
REMARK  status: ('A' for Active; 'I' for Inactive)
REMARK    1  A    between atoms: P_2  and  C_5 
REMARK    2  A    between atoms: C_5  and  N_6 
REMARK    3  A    between atoms: C_5  and  C1_7 
REMARK    4  A    between atoms: C1_7  and  C2_8 
ROOT
ATOM      1  C2  Q04 d   1      23.874  -6.047  11.040  0.00  0.00    -0.052 C 
ATOM      2  C7  Q04 d   1      24.461  -6.609  12.346  0.00  0.00    -0.062 C 
ATOM      3  C6  Q04 d   1      25.439  -7.623  11.756  0.00  0.00    -0.065 C 
ATOM      4  C5  Q04 d   1      24.621  -8.784  11.202  0.00  0.00    -0.065 C 
ATOM      5  C4  Q04 d   1      23.664  -8.358  10.137  0.00  0.00    -0.065 C 
ATOM      6  C3  Q04 d   1      22.908  -7.074  10.570  0.00  0.00    -0.062 C 
ATOM      7  H7  Q04 d   1      24.628  -5.914  10.250  0.00  0.00     0.040 H 
ATOM      8  H8  Q04 d   1      23.693  -7.091  12.969  0.00  0.00     0.033 H 
ATOM      9  H9  Q04 d   1      24.976  -5.834  12.933  0.00  0.00     0.033 H 
ATOM     10  H10 Q04 d   1      26.122  -7.985  12.539  0.00  0.00     0.033 H 
ATOM     11  H11 Q04 d   1      26.022  -7.156  10.948  0.00  0.00     0.033 H 
ATOM     12  H12 Q04 d   1      24.051  -9.238  12.026  0.00  0.00     0.033 H 
ATOM     13  H13 Q04 d   1      25.310  -9.530  10.778  0.00  0.00     0.033 H 
ATOM     14  H14 Q04 d   1      22.937  -9.164   9.960  0.00  0.00     0.033 H 
ATOM     15  H15 Q04 d   1      24.220  -8.156   9.210  0.00  0.00     0.033 H 
ATOM     16  H16 Q04 d   1      22.344  -6.678   9.713  0.00  0.00     0.033 H 
ATOM     17  H17 Q04 d   1      22.212  -7.319  11.386  0.00  0.00     0.033 H 
ENDROOT
BRANCH   1  18
ATOM     18  C1  Q04 d   1      23.478  -4.695  11.573  0.00  0.00    -0.023 C 
ATOM     19  H5  Q04 d   1      22.632  -4.851  12.258  0.00  0.00     0.037 H 
ATOM     20  H6  Q04 d   1      24.338  -4.303  12.136  0.00  0.00     0.037 H 
BRANCH  18  21
ATOM     21  C   Q04 d   1      23.056  -3.605  10.572  0.00  0.00     0.206 C 
ATOM     22  H1  Q04 d   1      22.537  -4.085   9.730  0.00  0.00     0.106 H 
BRANCH  21  23
ATOM     23  P   Q04 d   1      21.905  -2.574  11.395  0.00  0.00     0.290 P 
ATOM     24  O   Q04 d   1      20.545  -3.099  11.482  0.00  0.00    -0.638 OA
ATOM     25  O1  Q04 d   1      22.560  -2.142  12.766  0.00  0.00    -0.638 OA
ATOM     26  O2  Q04 d   1      21.901  -1.267  10.475  0.00  0.00    -0.638 OA
ENDBRANCH  21  23
BRANCH  21  27
ATOM     27  N   Q04 d   1      24.181  -2.931  10.035  0.00  0.00    -0.062 N 
ATOM     28  H2  Q04 d   1      24.787  -3.597   9.582  0.00  0.00     0.275 HD
ATOM     29  H3  Q04 d   1      24.683  -2.471  10.778  0.00  0.00     0.275 HD
ATOM     30  H4  Q04 d   1      23.873  -2.246   9.363  0.00  0.00     0.275 HD
ENDBRANCH  21  27
ENDBRANCH  18  21
ENDBRANCH   1  18
TORSDOF 4
