REMARK  3 active torsions:
REMARK  status: ('A' for Active; 'I' for Inactive)
REMARK    1  A    between atoms: P_2  and  C_5 
REMARK    2  A    between atoms: C_5  and  N_6 
REMARK    3  A    between atoms: C_5  and  C1_7 
ROOT
ATOM      1  C1  Q03 d   1      -0.244  -5.034  13.354  0.00  0.00    -0.014 C 
ATOM      2  C6  Q03 d   1      -1.595  -4.963  12.678  0.00  0.00    -0.059 C 
ATOM      3  C5  Q03 d   1      -1.917  -6.264  12.005  0.00  0.00    -0.065 C 
ATOM      4  C4  Q03 d   1      -1.416  -7.506  12.688  0.00  0.00    -0.065 C 
ATOM      5  C3  Q03 d   1      -0.104  -7.443  13.360  0.00  0.00    -0.065 C 
ATOM      6  C2  Q03 d   1      -0.122  -6.194  14.199  0.00  0.00    -0.059 C 
ATOM      7  H5  Q03 d   1       0.475  -5.216  12.542  0.00  0.00     0.044 H 
ATOM      8  H6  Q03 d   1      -1.581  -4.160  11.926  0.00  0.00     0.033 H 
ATOM      9  H7  Q03 d   1      -2.366  -4.746  13.432  0.00  0.00     0.033 H 
ATOM     10  H8  Q03 d   1      -1.481  -6.237  10.996  0.00  0.00     0.033 H 
ATOM     11  H9  Q03 d   1      -3.012  -6.341  11.929  0.00  0.00     0.033 H 
ATOM     12  H10 Q03 d   1      -1.356  -8.297  11.926  0.00  0.00     0.033 H 
ATOM     13  H11 Q03 d   1      -2.160  -7.785  13.448  0.00  0.00     0.033 H 
ATOM     14  H12 Q03 d   1       0.704  -7.391  12.615  0.00  0.00     0.033 H 
ATOM     15  H13 Q03 d   1       0.041  -8.328  13.997  0.00  0.00     0.033 H 
ATOM     16  H14 Q03 d   1      -0.977  -6.232  14.891  0.00  0.00     0.033 H 
ATOM     17  H15 Q03 d   1       0.813  -6.128  14.775  0.00  0.00     0.033 H 
ENDROOT
BRANCH   1  18
ATOM     18  C   Q03 d   1       0.192  -3.672  13.946  0.00  0.00     0.209 C 
ATOM     19  H1  Q03 d   1       0.813  -3.936  14.815  0.00  0.00     0.106 H 
BRANCH  18  20
ATOM     20  P   Q03 d   1       1.263  -2.688  12.835  0.00  0.00     0.291 P 
ATOM     21  O2  Q03 d   1       2.596  -3.334  12.775  0.00  0.00    -0.638 OA
ATOM     22  O   Q03 d   1       1.375  -1.278  13.639  0.00  0.00    -0.638 OA
ATOM     23  O1  Q03 d   1       0.562  -2.418  11.436  0.00  0.00    -0.638 OA
ENDBRANCH  18  20
BRANCH  18  24
ATOM     24  N   Q03 d   1      -0.850  -2.814  14.461  0.00  0.00    -0.062 N 
ATOM     25  H2  Q03 d   1      -1.448  -3.344  15.075  0.00  0.00     0.275 HD
ATOM     26  H3  Q03 d   1      -1.394  -2.449  13.695  0.00  0.00     0.275 HD
ATOM     27  H4  Q03 d   1      -0.435  -2.051  14.972  0.00  0.00     0.275 HD
ENDBRANCH  18  24
ENDBRANCH   1  18
TORSDOF 3
