REMARK  3 active torsions:
REMARK  status: ('A' for Active; 'I' for Inactive)
REMARK    1  A    between atoms: P_2  and  C_5 
REMARK    2  A    between atoms: C_5  and  N_6 
REMARK    3  A    between atoms: C_5  and  C1_7 
ROOT
ATOM      1  C1  Q02 d   1      23.457  -4.994  10.891  0.00  0.00    -0.015 A 
ATOM      2  C6  Q02 d   1      24.516  -5.678  10.345  0.00  0.00    -0.074 A 
ATOM      3  C5  Q02 d   1      24.765  -6.997  10.674  0.00  0.00    -0.082 A 
ATOM      4  C4  Q02 d   1      23.943  -7.691  11.513  0.00  0.00    -0.083 A 
ATOM      5  C3  Q02 d   1      22.891  -7.008  12.065  0.00  0.00    -0.082 A 
ATOM      6  C2  Q02 d   1      22.633  -5.682  11.743  0.00  0.00    -0.074 A 
ATOM      7  H5  Q02 d   1      25.169  -5.173   9.642  0.00  0.00     0.084 H 
ATOM      8  H6  Q02 d   1      25.634  -7.492  10.255  0.00  0.00     0.083 H 
ATOM      9  H7  Q02 d   1      24.115  -8.738  11.734  0.00  0.00     0.083 H 
ATOM     10  H8  Q02 d   1      22.244  -7.516  12.771  0.00  0.00     0.083 H 
ATOM     11  H9  Q02 d   1      21.770  -5.185  12.171  0.00  0.00     0.084 H 
ENDROOT
BRANCH   1  12
ATOM     12  C   Q02 d   1      23.194  -3.602  10.492  0.00  0.00     0.231 C 
ATOM     13  H1  Q02 d   1      22.578  -3.872   9.622  0.00  0.00     0.114 H 
BRANCH  12  14
ATOM     14  P   Q02 d   1      21.867  -2.616  11.302  0.00  0.00     0.295 P 
ATOM     15  O   Q02 d   1      22.329  -2.331  12.725  0.00  0.00    -0.638 OA
ATOM     16  O1  Q02 d   1      21.766  -1.469  10.608  0.00  0.00    -0.638 OA
ATOM     17  O2  Q02 d   1      20.538  -3.328  11.242  0.00  0.00    -0.638 OA
ENDBRANCH  12  14
BRANCH  12  18
ATOM     18  N   Q02 d   1      24.197  -2.939   9.735  0.00  0.00    -0.058 N 
ATOM     19  H2  Q02 d   1      24.841  -3.619   9.363  0.00  0.00     0.275 HD
ATOM     20  H3  Q02 d   1      24.695  -2.294  10.329  0.00  0.00     0.275 HD
ATOM     21  H4  Q02 d   1      23.767  -2.433   8.977  0.00  0.00     0.275 HD
ENDBRANCH  12  18
ENDBRANCH   1  12
TORSDOF 3
