REMARK  16 active torsions:
REMARK  status: ('A' for Active; 'I' for Inactive)
REMARK    1  A    between atoms: C2_2  and  N1_1 
REMARK    2  A    between atoms: S8_8  and  C5_5 
REMARK    3  A    between atoms: N11_11  and  S8_8 
REMARK    4  A    between atoms: N11_11  and  C12_12 
REMARK    5  A    between atoms: C16_16  and  N11_11 
REMARK    6  A    between atoms: C12_12  and  C13_13 
REMARK    7  A    between atoms: C13_13  and  C14_14 
REMARK    8  A    between atoms: C13_13  and  C15_15 
REMARK    9  A    between atoms: C17_17  and  C16_16 
REMARK   10  A    between atoms: C17_17  and  O18_18 
REMARK   11  A    between atoms: C19_19  and  C17_17 
REMARK   12  A    between atoms: C19_19  and  N20_20 
REMARK   13  A    between atoms: C32_32  and  C19_19 
REMARK       I    between atoms: N20_20  and  C21_21 
REMARK   14  A    between atoms: C21_21  and  O23_23 
REMARK   15  A    between atoms: O23_23  and  C24_24 
REMARK   16  A    between atoms: C38_38  and  C32_32 
ROOT
ATOM      1  C19 G10 d   1      14.142  20.246  17.146  0.00  0.00     0.044 C 
ATOM      2  H   G10 d   1      13.245  20.788  16.812  0.00  0.00     0.077 H 
ENDROOT
BRANCH   1   3
ATOM      3  C17 G10 d   1      13.716  19.114  18.082  0.00  0.00     0.071 C 
ATOM      4  H   G10 d   1      13.354  19.584  19.009  0.00  0.00     0.088 H 
BRANCH   3   5
ATOM      5  C16 G10 d   1      12.578  18.244  17.541  0.00  0.00     0.031 C 
ATOM      6  H   G10 d   1      12.812  17.965  16.503  0.00  0.00     0.069 H 
ATOM      7  H   G10 d   1      12.506  17.336  18.157  0.00  0.00     0.069 H 
BRANCH   5   8
ATOM      8  N11 G10 d   1      11.309  18.914  17.562  0.00  0.00    -0.304 N 
BRANCH   8   9
ATOM      9  S8  G10 d   1      10.636  19.281  16.111  0.00  0.00     0.260 S 
ATOM     10  O9  G10 d   1      11.729  19.589  15.173  0.00  0.00    -0.200 OA
ATOM     11  O10 G10 d   1       9.670  20.368  16.365  0.00  0.00    -0.200 OA
BRANCH   9  12
ATOM     12  C5  G10 d   1       9.759  17.881  15.528  0.00  0.00     0.079 A 
ATOM     13  C4  G10 d   1      10.438  16.977  14.770  0.00  0.00    -0.058 A 
ATOM     14  C3  G10 d   1       9.958  15.791  14.276  0.00  0.00    -0.056 A 
ATOM     15  H   G10 d   1      11.467  17.220  14.531  0.00  0.00     0.086 H 
ATOM     16  C2  G10 d   1       8.616  15.527  14.498  0.00  0.00     0.025 A 
ATOM     17  H   G10 d   1      10.595  15.097  13.740  0.00  0.00     0.086 H 
ATOM     18  C7  G10 d   1       7.882  16.407  15.272  0.00  0.00    -0.056 A 
ATOM     19  C6  G10 d   1       8.436  17.595  15.800  0.00  0.00    -0.058 A 
ATOM     20  H   G10 d   1       6.844  16.177  15.481  0.00  0.00     0.086 H 
ATOM     21  H   G10 d   1       7.836  18.266  16.404  0.00  0.00     0.086 H 
BRANCH  16  22
ATOM     22  N1  G10 d   1       8.120  14.364  14.040  0.00  0.00    -0.399 N 
ATOM     23  H   G10 d   1       8.709  13.743  13.467  0.00  0.00     0.156 HD
ATOM     24  H   G10 d   1       7.151  14.094  14.263  0.00  0.00     0.156 HD
ENDBRANCH  16  22
ENDBRANCH   9  12
ENDBRANCH   8   9
BRANCH   8  25
ATOM     25  C12 G10 d   1      10.387  18.623  18.611  0.00  0.00     0.008 C 
ATOM     26  H   G10 d   1      10.389  17.535  18.776  0.00  0.00     0.066 H 
ATOM     27  H   G10 d   1       9.386  18.943  18.285  0.00  0.00     0.066 H 
BRANCH  25  28
ATOM     28  C13 G10 d   1      10.696  19.311  19.955  0.00  0.00    -0.045 C 
ATOM     29  H   G10 d   1      11.724  19.062  20.256  0.00  0.00     0.041 H 
BRANCH  28  30
ATOM     30  C14 G10 d   1      10.580  20.828  19.795  0.00  0.00    -0.072 C 
ATOM     31  H   G10 d   1      10.801  21.316  20.756  0.00  0.00     0.028 H 
ATOM     32  H   G10 d   1       9.559  21.086  19.479  0.00  0.00     0.028 H 
ATOM     33  H   G10 d   1      11.297  21.172  19.035  0.00  0.00     0.028 H 
ENDBRANCH  28  30
BRANCH  28  34
ATOM     34  C15 G10 d   1       9.731  18.815  21.034  0.00  0.00    -0.072 C 
ATOM     35  H   G10 d   1       9.826  17.724  21.137  0.00  0.00     0.028 H 
ATOM     36  H   G10 d   1       8.700  19.068  20.748  0.00  0.00     0.028 H 
ATOM     37  H   G10 d   1       9.974  19.297  21.993  0.00  0.00     0.028 H 
ENDBRANCH  28  34
ENDBRANCH  25  28
ENDBRANCH   8  25
ENDBRANCH   5   8
ENDBRANCH   3   5
BRANCH   3  38
ATOM     38  O18 G10 d   1      14.834  18.281  18.418  0.00  0.00    -0.392 OA
ATOM     39  H   G10 d   1      15.128  17.820  17.642  0.00  0.00     0.210 HD
ENDBRANCH   3  38
ENDBRANCH   1   3
BRANCH   1  40
ATOM     40  N20 G10 d   1      15.023  21.171  17.850  0.00  0.00    -0.329 N 
ATOM     41  C21 G10 d   1      14.709  22.415  18.209  0.00  0.00     0.361 C 
ATOM     42  O22 G10 d   1      13.623  22.995  18.024  0.00  0.00    -0.238 OA
ATOM     43  H   G10 d   1      15.939  20.844  18.083  0.00  0.00     0.165 HD
BRANCH  41  44
ATOM     44  O23 G10 d   1      15.735  23.014  18.863  0.00  0.00    -0.296 OA
BRANCH  44  45
ATOM     45  C24 G10 d   1      15.547  24.412  19.132  0.00  0.00     0.084 C 
ATOM     46  C25 G10 d   1      16.142  24.635  20.526  0.00  0.00     0.048 C 
ATOM     47  O26 G10 d   1      17.559  24.686  20.333  0.00  0.00    -0.358 OA
ATOM     48  H   G10 d   1      15.875  23.804  21.195  0.00  0.00     0.078 H 
ATOM     49  H   G10 d   1      15.778  25.581  20.953  0.00  0.00     0.078 H 
ATOM     50  C27 G10 d   1      17.834  25.179  19.021  0.00  0.00     0.142 C 
ATOM     51  O28 G10 d   1      18.648  24.223  18.339  0.00  0.00    -0.355 OA
ATOM     52  C31 G10 d   1      16.517  25.251  18.283  0.00  0.00     0.086 C 
ATOM     53  H   G10 d   1      18.326  26.162  19.062  0.00  0.00     0.130 H 
ATOM     54  C29 G10 d   1      18.017  23.751  17.164  0.00  0.00     0.084 C 
ATOM     55  C30 G10 d   1      16.866  24.683  16.919  0.00  0.00     0.275 C 
ATOM     56  H   G10 d   1      17.654  22.723  17.310  0.00  0.00     0.083 H 
ATOM     57  H   G10 d   1      18.717  23.775  16.316  0.00  0.00     0.083 H 
ATOM     58  F39 G10 d   1      15.816  24.123  16.317  0.00  0.00    -0.203 F 
ATOM     59  F40 G10 d   1      17.335  25.628  16.103  0.00  0.00    -0.203 F 
ATOM     60  H   G10 d   1      16.140  26.279  18.185  0.00  0.00     0.060 H 
ATOM     61  H   G10 d   1      14.496  24.722  19.030  0.00  0.00     0.088 H 
ENDBRANCH  44  45
ENDBRANCH  41  44
ENDBRANCH   1  40
BRANCH   1  62
ATOM     62  C32 G10 d   1      14.867  19.686  15.925  0.00  0.00    -0.020 C 
ATOM     63  H   G10 d   1      14.193  18.998  15.393  0.00  0.00     0.043 H 
ATOM     64  H   G10 d   1      15.761  19.139  16.259  0.00  0.00     0.043 H 
BRANCH  62  65
ATOM     65  C38 G10 d   1      15.295  20.802  14.970  0.00  0.00    -0.056 A 
ATOM     66  C33 G10 d   1      16.638  21.115  14.807  0.00  0.00    -0.077 A 
ATOM     67  C34 G10 d   1      17.034  22.165  13.985  0.00  0.00    -0.082 A 
ATOM     68  H   G10 d   1      17.389  20.532  15.328  0.00  0.00     0.084 H 
ATOM     69  C35 G10 d   1      16.078  22.924  13.308  0.00  0.00    -0.083 A 
ATOM     70  H   G10 d   1      18.087  22.394  13.870  0.00  0.00     0.083 H 
ATOM     71  C36 G10 d   1      14.766  22.539  13.427  0.00  0.00    -0.082 A 
ATOM     72  H   G10 d   1      16.361  23.784  12.712  0.00  0.00     0.083 H 
ATOM     73  C37 G10 d   1      14.336  21.519  14.262  0.00  0.00    -0.077 A 
ATOM     74  H   G10 d   1      14.024  23.062  12.835  0.00  0.00     0.083 H 
ATOM     75  H   G10 d   1      13.282  21.287  14.360  0.00  0.00     0.084 H 
ENDBRANCH  62  65
ENDBRANCH   1  62
TORSDOF 16
