REMARK  18 active torsions:
REMARK  status: ('A' for Active; 'I' for Inactive)
REMARK    1  A    between atoms: C1A_1  and  O1X_7 
REMARK    2  A    between atoms: C2A_2  and  O2A_8 
REMARK    3  A    between atoms: C3A_3  and  O3A_9 
REMARK    4  A    between atoms: C4A_4  and  O4A_10 
REMARK    5  A    between atoms: C5A_5  and  C6A_6 
REMARK    6  A    between atoms: C6A_6  and  O6A_12 
REMARK    7  A    between atoms: O4A_10  and  C1B_13 
REMARK    8  A    between atoms: C2B_14  and  O2B_19 
REMARK    9  A    between atoms: C3B_15  and  O3B_20 
REMARK   10  A    between atoms: C4B_16  and  O4B_21 
REMARK   11  A    between atoms: C5B_17  and  C6B_18 
REMARK   12  A    between atoms: C6B_18  and  O6B_23 
REMARK   13  A    between atoms: O4B_21  and  C1C_24 
REMARK   14  A    between atoms: C2C_25  and  O2C_30 
REMARK   15  A    between atoms: C3C_26  and  O3C_31 
REMARK   16  A    between atoms: C4C_27  and  O4C_32 
REMARK   17  A    between atoms: C5C_28  and  C6C_29 
REMARK   18  A    between atoms: C6C_29  and  O6C_34 
ROOT
ATOM      1  C1B MLR d   1     -30.130   8.621  -3.180  0.00  0.00     0.159 C 
ATOM      2  C2B MLR d   1     -29.494   9.797  -2.545  0.00  0.00     0.110 C 
ATOM      3  C3B MLR d   1     -28.440  10.363  -3.431  0.00  0.00     0.092 C 
ATOM      4  C4B MLR d   1     -27.420   9.339  -3.831  0.00  0.00     0.096 C 
ATOM      5  C5B MLR d   1     -28.092   8.117  -4.399  0.00  0.00     0.089 C 
ATOM      6  O5B MLR d   1     -29.123   7.624  -3.518  0.00  0.00    -0.348 OA
ATOM      7  H   MLR d   1     -30.859   8.183  -2.482  0.00  0.00     0.133 H 
ATOM      8  H   MLR d   1     -29.018   9.476  -1.607  0.00  0.00     0.094 H 
ATOM      9  H   MLR d   1     -28.930  10.732  -4.344  0.00  0.00     0.091 H 
ATOM     10  H   MLR d   1     -26.852   9.046  -2.936  0.00  0.00     0.091 H 
ATOM     11  H   MLR d   1     -28.522   8.364  -5.381  0.00  0.00     0.090 H 
ENDROOT
BRANCH   1  12
ATOM     12  O4A MLR d   1     -30.793   9.020  -4.370  0.00  0.00    -0.348 OA
BRANCH  12  13
ATOM     13  C4A MLR d   1     -32.172   8.575  -4.466  0.00  0.00     0.096 C 
ATOM     14  C3A MLR d   1     -33.078   9.772  -4.454  0.00  0.00     0.092 C 
ATOM     15  C2A MLR d   1     -34.489   9.337  -4.569  0.00  0.00     0.110 C 
ATOM     16  H   MLR d   1     -32.816  10.449  -5.281  0.00  0.00     0.091 H 
ATOM     17  C1A MLR d   1     -34.721   8.531  -5.820  0.00  0.00     0.156 C 
ATOM     18  H   MLR d   1     -34.703   8.691  -3.705  0.00  0.00     0.094 H 
ATOM     19  O5A MLR d   1     -33.769   7.413  -5.861  0.00  0.00    -0.349 OA
ATOM     20  H   MLR d   1     -35.745   8.130  -5.792  0.00  0.00     0.133 H 
ATOM     21  C5A MLR d   1     -32.369   7.779  -5.731  0.00  0.00     0.089 C 
ATOM     22  H   MLR d   1     -32.036   8.371  -6.596  0.00  0.00     0.090 H 
ATOM     23  H   MLR d   1     -32.407   7.936  -3.602  0.00  0.00     0.091 H 
BRANCH  14  24
ATOM     24  O3A MLR d   1     -32.952  10.456  -3.174  0.00  0.00    -0.390 OA
ATOM     25  H   MLR d   1     -32.052  10.736  -3.053  0.00  0.00     0.210 HD
ENDBRANCH  14  24
BRANCH  15  26
ATOM     26  O2A MLR d   1     -35.430  10.457  -4.531  0.00  0.00    -0.388 OA
ATOM     27  H   MLR d   1     -35.247  11.047  -5.253  0.00  0.00     0.210 HD
ENDBRANCH  15  26
BRANCH  17  28
ATOM     28  O1X MLR d   1     -34.581   9.290  -6.958  0.00  0.00    -0.369 OA
ATOM     29  H   MLR d   1     -33.694   9.628  -7.005  0.00  0.00     0.212 HD
ENDBRANCH  17  28
BRANCH  21  30
ATOM     30  C6A MLR d   1     -31.629   6.468  -5.671  0.00  0.00     0.043 C 
ATOM     31  H   MLR d   1     -32.025   5.860  -4.844  0.00  0.00     0.078 H 
ATOM     32  H   MLR d   1     -30.558   6.657  -5.507  0.00  0.00     0.078 H 
BRANCH  30  33
ATOM     33  O6A MLR d   1     -31.808   5.768  -6.909  0.00  0.00    -0.398 OA
ATOM     34  H   MLR d   1     -32.733   5.606  -7.049  0.00  0.00     0.209 HD
ENDBRANCH  30  33
ENDBRANCH  21  30
ENDBRANCH  12  13
ENDBRANCH   1  12
BRANCH   2  35
ATOM     35  O2B MLR d   1     -30.516  10.782  -2.230  0.00  0.00    -0.388 OA
ATOM     36  H   MLR d   1     -30.116  11.521  -1.786  0.00  0.00     0.210 HD
ENDBRANCH   2  35
BRANCH   3  37
ATOM     37  O3B MLR d   1     -27.770  11.481  -2.785  0.00  0.00    -0.390 OA
ATOM     38  H   MLR d   1     -27.149  11.869  -3.390  0.00  0.00     0.210 HD
ENDBRANCH   3  37
BRANCH   5  39
ATOM     39  C6B MLR d   1     -27.086   6.983  -4.532  0.00  0.00     0.043 C 
ATOM     40  H   MLR d   1     -26.717   6.711  -3.532  0.00  0.00     0.078 H 
ATOM     41  H   MLR d   1     -26.244   7.321  -5.154  0.00  0.00     0.078 H 
BRANCH  39  42
ATOM     42  O6B MLR d   1     -27.681   5.839  -5.135  0.00  0.00    -0.398 OA
ATOM     43  H   MLR d   1     -27.998   6.068  -6.001  0.00  0.00     0.209 HD
ENDBRANCH  39  42
ENDBRANCH   5  39
BRANCH   4  44
ATOM     44  O4B MLR d   1     -26.488   9.886  -4.818  0.00  0.00    -0.348 OA
BRANCH  44  45
ATOM     45  C1C MLR d   1     -25.324  10.282  -4.293  0.00  0.00     0.159 C 
ATOM     46  C2C MLR d   1     -24.827  11.595  -4.781  0.00  0.00     0.110 C 
ATOM     47  C3C MLR d   1     -24.603  11.567  -6.208  0.00  0.00     0.092 C 
ATOM     48  H   MLR d   1     -23.875  11.852  -4.293  0.00  0.00     0.094 H 
ATOM     49  C4C MLR d   1     -23.592  10.668  -6.682  0.00  0.00     0.090 C 
ATOM     50  H   MLR d   1     -25.548  11.275  -6.691  0.00  0.00     0.091 H 
ATOM     51  C5C MLR d   1     -24.042   9.282  -6.261  0.00  0.00     0.089 C 
ATOM     52  H   MLR d   1     -22.627  10.927  -6.222  0.00  0.00     0.091 H 
ATOM     53  O5C MLR d   1     -24.205   9.221  -4.714  0.00  0.00    -0.348 OA
ATOM     54  H   MLR d   1     -24.996   9.059  -6.762  0.00  0.00     0.090 H 
ATOM     55  H   MLR d   1     -25.428  10.320  -3.199  0.00  0.00     0.133 H 
BRANCH  46  56
ATOM     56  O2C MLR d   1     -25.872  12.514  -4.331  0.00  0.00    -0.388 OA
ATOM     57  H   MLR d   1     -25.644  13.400  -4.587  0.00  0.00     0.210 HD
ENDBRANCH  46  56
BRANCH  47  58
ATOM     58  O3C MLR d   1     -24.245  13.027  -6.623  0.00  0.00    -0.390 OA
ATOM     59  H   MLR d   1     -24.193  13.082  -7.570  0.00  0.00     0.210 HD
ENDBRANCH  47  58
BRANCH  49  60
ATOM     60  O4C MLR d   1     -23.442  10.639  -8.136  0.00  0.00    -0.390 OA
ATOM     61  H   MLR d   1     -24.276  10.419  -8.535  0.00  0.00     0.210 HD
ENDBRANCH  49  60
BRANCH  51  62
ATOM     62  C6C MLR d   1     -23.080   8.218  -6.537  0.00  0.00     0.043 C 
ATOM     63  H   MLR d   1     -22.228   8.326  -5.849  0.00  0.00     0.078 H 
ATOM     64  H   MLR d   1     -22.729   8.321  -7.574  0.00  0.00     0.078 H 
BRANCH  62  65
ATOM     65  O6C MLR d   1     -23.649   6.888  -6.368  0.00  0.00    -0.398 OA
ATOM     66  H   MLR d   1     -24.382   6.780  -6.963  0.00  0.00     0.209 HD
ENDBRANCH  62  65
ENDBRANCH  51  62
ENDBRANCH  44  45
ENDBRANCH   4  44
TORSDOF 18
