REMARK  23 active torsions:
REMARK  status: ('A' for Active; 'I' for Inactive)
REMARK    1  A    between atoms: N4B_18  and  C1A_1 
REMARK    2  A    between atoms: C2A_2  and  O2A_8 
REMARK    3  A    between atoms: C3A_3  and  O3A_9 
REMARK    4  A    between atoms: C4A_4  and  O4A_10 
REMARK    5  A    between atoms: C5A_5  and  C6A_6 
REMARK    6  A    between atoms: C6A_6  and  O6A_11 
REMARK    7  A    between atoms: O4C_30  and  C1B_12 
REMARK    8  A    between atoms: C2B_13  and  O2B_19 
REMARK    9  A    between atoms: C3B_14  and  O3B_20 
REMARK   10  A    between atoms: C4B_15  and  N4B_18 
REMARK   11  A    between atoms: C5B_16  and  C6B_17 
REMARK   12  A    between atoms: O4D_42  and  C1C_22 
REMARK   13  A    between atoms: C2C_23  and  O2C_28 
REMARK   14  A    between atoms: C3C_24  and  O3C_29 
REMARK   15  A    between atoms: C4C_25  and  O4C_30 
REMARK   16  A    between atoms: C5C_26  and  C6C_27 
REMARK   17  A    between atoms: C6C_27  and  O6C_32 
REMARK   18  A    between atoms: C1D_33  and  O1D_39 
REMARK   19  A    between atoms: C2D_34  and  O2D_40 
REMARK   20  A    between atoms: C3D_35  and  O3D_41 
REMARK   21  A    between atoms: C4D_36  and  O4D_42 
REMARK   22  A    between atoms: C5D_37  and  C6D_38 
REMARK   23  A    between atoms: C6D_38  and  O6D_44 
ROOT
ATOM      1  C1B ACR d   1      25.435  65.463  23.429  0.00  0.00     0.159 C 
ATOM      2  C2B ACR d   1      25.079  66.842  23.906  0.00  0.00     0.110 C 
ATOM      3  C3B ACR d   1      24.966  66.886  25.390  0.00  0.00     0.094 C 
ATOM      4  C4B ACR d   1      23.907  65.922  25.834  0.00  0.00     0.153 C 
ATOM      5  C5B ACR d   1      24.322  64.537  25.389  0.00  0.00     0.068 C 
ATOM      6  O5B ACR d   1      24.433  64.495  23.933  0.00  0.00    -0.351 OA
ATOM      7  H   ACR d   1      25.457  65.446  22.329  0.00  0.00     0.133 H 
ATOM      8  H   ACR d   1      24.113  67.136  23.470  0.00  0.00     0.094 H 
ATOM      9  H   ACR d   1      25.930  66.592  25.830  0.00  0.00     0.090 H 
ATOM     10  H   ACR d   1      22.954  66.179  25.348  0.00  0.00     0.092 H 
ATOM     11  H   ACR d   1      25.283  64.289  25.863  0.00  0.00     0.086 H 
ENDROOT
BRANCH   1  12
ATOM     12  O4C ACR d   1      26.692  65.087  23.940  0.00  0.00    -0.348 OA
BRANCH  12  13
ATOM     13  C4C ACR d   1      27.615  64.526  22.963  0.00  0.00     0.096 C 
ATOM     14  C3C ACR d   1      28.663  65.526  22.576  0.00  0.00     0.092 C 
ATOM     15  C2C ACR d   1      29.698  64.922  21.688  0.00  0.00     0.110 C 
ATOM     16  H   ACR d   1      29.157  65.880  23.493  0.00  0.00     0.091 H 
ATOM     17  C1C ACR d   1      30.336  63.730  22.333  0.00  0.00     0.159 C 
ATOM     18  H   ACR d   1      29.212  64.603  20.754  0.00  0.00     0.094 H 
ATOM     19  O5C ACR d   1      29.292  62.750  22.657  0.00  0.00    -0.348 OA
ATOM     20  H   ACR d   1      31.068  63.276  21.649  0.00  0.00     0.133 H 
ATOM     21  C5C ACR d   1      28.258  63.281  23.545  0.00  0.00     0.089 C 
ATOM     22  H   ACR d   1      28.706  63.533  24.517  0.00  0.00     0.090 H 
ATOM     23  H   ACR d   1      27.050  64.246  22.062  0.00  0.00     0.091 H 
BRANCH  14  24
ATOM     24  O3C ACR d   1      28.052  66.663  21.910  0.00  0.00    -0.390 OA
ATOM     25  H   ACR d   1      27.430  67.076  22.497  0.00  0.00     0.210 HD
ENDBRANCH  14  24
BRANCH  15  26
ATOM     26  O2C ACR d   1      30.729  65.882  21.375  0.00  0.00    -0.388 OA
ATOM     27  H   ACR d   1      31.145  66.171  22.178  0.00  0.00     0.210 HD
ENDBRANCH  15  26
BRANCH  17  28
ATOM     28  O4D ACR d   1      30.978  64.161  23.491  0.00  0.00    -0.348 OA
BRANCH  28  29
ATOM     29  C4D ACR d   1      32.333  63.722  23.620  0.00  0.00     0.096 C 
ATOM     30  C3D ACR d   1      33.259  64.893  23.607  0.00  0.00     0.092 C 
ATOM     31  C2D ACR d   1      34.675  64.464  23.770  0.00  0.00     0.110 C 
ATOM     32  H   ACR d   1      32.987  65.586  24.417  0.00  0.00     0.091 H 
ATOM     33  C1D ACR d   1      34.889  63.667  25.041  0.00  0.00     0.156 C 
ATOM     34  H   ACR d   1      34.899  63.792  22.928  0.00  0.00     0.094 H 
ATOM     35  O5D ACR d   1      33.914  62.564  25.088  0.00  0.00    -0.349 OA
ATOM     36  H   ACR d   1      35.907  63.250  25.038  0.00  0.00     0.133 H 
ATOM     37  C5D ACR d   1      32.513  62.945  24.911  0.00  0.00     0.089 C 
ATOM     38  H   ACR d   1      32.171  63.564  25.753  0.00  0.00     0.090 H 
ATOM     39  H   ACR d   1      32.575  63.066  22.771  0.00  0.00     0.091 H 
BRANCH  30  40
ATOM     40  O3D ACR d   1      33.141  65.556  22.318  0.00  0.00    -0.390 OA
ATOM     41  H   ACR d   1      32.245  65.847  22.194  0.00  0.00     0.210 HD
ENDBRANCH  30  40
BRANCH  31  42
ATOM     42  O2D ACR d   1      35.610  65.569  23.686  0.00  0.00    -0.388 OA
ATOM     43  H   ACR d   1      35.416  66.199  24.370  0.00  0.00     0.210 HD
ENDBRANCH  31  42
BRANCH  33  44
ATOM     44  O1D ACR d   1      34.740  64.482  26.152  0.00  0.00    -0.369 OA
ATOM     45  H   ACR d   1      33.861  64.842  26.163  0.00  0.00     0.212 HD
ENDBRANCH  33  44
BRANCH  37  46
ATOM     46  C6D ACR d   1      31.776  61.645  24.891  0.00  0.00     0.043 C 
ATOM     47  H   ACR d   1      32.180  61.004  24.094  0.00  0.00     0.078 H 
ATOM     48  H   ACR d   1      30.707  61.829  24.707  0.00  0.00     0.078 H 
BRANCH  46  49
ATOM     49  O6D ACR d   1      31.941  60.996  26.161  0.00  0.00    -0.398 OA
ATOM     50  H   ACR d   1      32.865  60.839  26.318  0.00  0.00     0.209 HD
ENDBRANCH  46  49
ENDBRANCH  37  46
ENDBRANCH  28  29
ENDBRANCH  17  28
BRANCH  21  51
ATOM     51  C6C ACR d   1      27.216  62.199  23.729  0.00  0.00     0.043 C 
ATOM     52  H   ACR d   1      26.812  61.914  22.746  0.00  0.00     0.078 H 
ATOM     53  H   ACR d   1      26.403  62.583  24.362  0.00  0.00     0.078 H 
BRANCH  51  54
ATOM     54  O6C ACR d   1      27.800  61.039  24.357  0.00  0.00    -0.398 OA
ATOM     55  H   ACR d   1      28.501  60.704  23.811  0.00  0.00     0.209 HD
ENDBRANCH  51  54
ENDBRANCH  21  51
ENDBRANCH  12  13
ENDBRANCH   1  12
BRANCH   2  56
ATOM     56  O2B ACR d   1      26.106  67.753  23.451  0.00  0.00    -0.388 OA
ATOM     57  H   ACR d   1      25.885  68.637  23.719  0.00  0.00     0.210 HD
ENDBRANCH   2  56
BRANCH   3  58
ATOM     58  O3B ACR d   1      24.632  68.214  25.846  0.00  0.00    -0.391 OA
ATOM     59  H   ACR d   1      23.795  68.472  25.479  0.00  0.00     0.210 HD
ENDBRANCH   3  58
BRANCH   5  60
ATOM     60  C6B ACR d   1      23.312  63.463  25.685  0.00  0.00    -0.050 C 
ATOM     61  H   ACR d   1      23.693  62.494  25.330  0.00  0.00     0.031 H 
ATOM     62  H   ACR d   1      22.368  63.696  25.172  0.00  0.00     0.031 H 
ATOM     63  H   ACR d   1      23.137  63.413  26.770  0.00  0.00     0.031 H 
ENDBRANCH   5  60
BRANCH   4  64
ATOM     64  N4B ACR d   1      23.726  66.016  27.286  0.00  0.00    -0.059 N 
ATOM     65  H   ACR d   1      24.108  65.182  27.704  0.00  0.00     0.278 HD
ATOM     66  H   ACR d   1      24.236  66.821  27.614  0.00  0.00     0.278 HD
BRANCH  64  67
ATOM     67  C1A ACR d   1      22.315  66.151  27.730  0.00  0.00     0.130 C 
ATOM     68  C2A ACR d   1      22.257  67.352  28.850  0.00  0.00     0.090 C 
ATOM     69  C3A ACR d   1      22.756  66.964  29.986  0.00  0.00     0.087 C 
ATOM     70  H   ACR d   1      21.216  67.672  29.006  0.00  0.00     0.090 H 
ATOM     71  C4A ACR d   1      21.907  65.797  30.741  0.00  0.00     0.068 C 
ATOM     72  H   ACR d   1      23.777  66.600  29.800  0.00  0.00     0.091 H 
ATOM     73  C5A ACR d   1      21.634  64.679  29.866  0.00  0.00    -0.004 C 
ATOM     74  H   ACR d   1      20.941  66.234  31.036  0.00  0.00     0.087 H 
ATOM     75  C7A ACR d   1      21.845  64.907  28.209  0.00  0.00    -0.028 C 
ATOM     76  H   ACR d   1      22.677  64.343  29.967  0.00  0.00     0.047 H 
ATOM     77  H   ACR d   1      22.560  64.143  27.870  0.00  0.00     0.036 H 
ATOM     78  H   ACR d   1      20.868  64.731  27.735  0.00  0.00     0.036 H 
ATOM     79  H   ACR d   1      21.692  66.444  26.872  0.00  0.00     0.088 H 
BRANCH  68  80
ATOM     80  O2A ACR d   1      23.060  68.471  28.280  0.00  0.00    -0.391 OA
ATOM     81  H   ACR d   1      22.681  68.741  27.452  0.00  0.00     0.210 HD
ENDBRANCH  68  80
BRANCH  69  82
ATOM     82  O3A ACR d   1      22.792  68.114  30.966  0.00  0.00    -0.390 OA
ATOM     83  H   ACR d   1      23.217  67.832  31.768  0.00  0.00     0.210 HD
ENDBRANCH  69  82
BRANCH  71  84
ATOM     84  O4A ACR d   1      22.561  65.343  31.934  0.00  0.00    -0.392 OA
ATOM     85  H   ACR d   1      22.735  66.085  32.501  0.00  0.00     0.210 HD
ENDBRANCH  71  84
BRANCH  73  86
ATOM     86  C6A ACR d   1      21.163  63.351  30.374  0.00  0.00     0.022 C 
ATOM     87  H   ACR d   1      20.690  63.465  31.361  0.00  0.00     0.074 H 
ATOM     88  H   ACR d   1      22.007  62.650  30.451  0.00  0.00     0.074 H 
BRANCH  86  89
ATOM     89  O6A ACR d   1      20.230  62.888  29.438  0.00  0.00    -0.400 OA
ATOM     90  H   ACR d   1      19.898  62.042  29.715  0.00  0.00     0.209 HD
ENDBRANCH  86  89
ENDBRANCH  73  86
ENDBRANCH  64  67
ENDBRANCH   4  64
TORSDOF 23
