REMARK  4 active torsions:
REMARK  status: ('A' for Active; 'I' for Inactive)
REMARK    1  A    between atoms: N_1  and  CA_2 
REMARK    2  A    between atoms: CA_2  and  C_3 
REMARK    3  A    between atoms: CA_2  and  CB_5 
REMARK    4  A    between atoms: CB_5  and  CG_6 
ROOT
ATOM      1  CB  PHE d   1     -20.967  -5.081 -17.744  0.00  0.00    -0.005 C 
ATOM      2  H5  PHE d   1     -20.800  -6.011 -18.308  0.00  0.00     0.044 H 
ATOM      3  H6  PHE d   1     -20.692  -5.237 -16.691  0.00  0.00     0.044 H 
ENDROOT
BRANCH   1   4
ATOM      4  CA  PHE d   1     -22.445  -4.731 -17.812  0.00  0.00     0.186 C 
ATOM      5  H4  PHE d   1     -22.736  -4.644 -18.869  0.00  0.00     0.101 H 
BRANCH   4   6
ATOM      6  N   PHE d   1     -22.700  -3.428 -17.152  0.00  0.00    -0.065 N 
ATOM      7  H1  PHE d   1     -22.143  -2.713 -17.594  0.00  0.00     0.275 HD
ATOM      8  H2  PHE d   1     -22.453  -3.491 -16.177  0.00  0.00     0.275 HD
ATOM      9  H3  PHE d   1     -23.677  -3.194 -17.237  0.00  0.00     0.275 HD
ENDBRANCH   4   6
BRANCH   4  10
ATOM     10  C   PHE d   1     -23.262  -5.842 -17.181  0.00  0.00     0.204 C 
ATOM     11  O   PHE d   1     -23.328  -6.945 -17.723  0.00  0.00    -0.646 OA
ATOM     12  OXT PHE d   1     -23.858  -5.651 -16.132  0.00  0.00    -0.646 OA
ENDBRANCH   4  10
ENDBRANCH   1   4
BRANCH   1  13
ATOM     13  CG  PHE d   1     -20.089  -4.016 -18.312  0.00  0.00    -0.056 A 
ATOM     14  CD1 PHE d   1     -19.862  -3.949 -19.669  0.00  0.00    -0.077 A 
ATOM     15  CE1 PHE d   1     -19.058  -2.957 -20.202  0.00  0.00    -0.082 A 
ATOM     16  H7  PHE d   1     -20.318  -4.681 -20.326  0.00  0.00     0.084 H 
ATOM     17  CZ  PHE d   1     -18.508  -2.007 -19.386  0.00  0.00    -0.083 A 
ATOM     18  H9  PHE d   1     -18.864  -2.933 -21.268  0.00  0.00     0.083 H 
ATOM     19  CE2 PHE d   1     -18.732  -2.061 -18.020  0.00  0.00    -0.082 A 
ATOM     20  H11 PHE d   1     -17.899  -1.215 -19.807  0.00  0.00     0.083 H 
ATOM     21  CD2 PHE d   1     -19.523  -3.058 -17.488  0.00  0.00    -0.077 A 
ATOM     22  H10 PHE d   1     -18.285  -1.319 -17.368  0.00  0.00     0.083 H 
ATOM     23  H8  PHE d   1     -19.702  -3.092 -16.419  0.00  0.00     0.084 H 
ENDBRANCH   1  13
TORSDOF 4
