REMARK  4 active torsions:
REMARK  status: ('A' for Active; 'I' for Inactive)
REMARK    1  A    between atoms: C11_2  and  C7_4 
REMARK    2  A    between atoms: C9_6  and  C10_7 
REMARK    3  A    between atoms: N_11  and  C6_12 
REMARK    4  A    between atoms: C6_12  and  C2_13 
ROOT
ATOM      1  C6  ZKW d   1     -20.095  17.443 -19.903  0.00  0.00     0.043 C 
ATOM      2  H2  ZKW d   1     -19.360  17.674 -19.118  0.00  0.00     0.074 H 
ATOM      3  H3  ZKW d   1     -19.845  18.004 -20.816  0.00  0.00     0.074 H 
ENDROOT
BRANCH   1   4
ATOM      4  N   ZKW d   1     -21.415  17.881 -19.440  0.00  0.00    -0.258 N 
ATOM      5  C7  ZKW d   1     -21.921  17.961 -18.176  0.00  0.00     0.132 A 
ATOM      6  C8  ZKW d   1     -23.227  18.374 -18.301  0.00  0.00    -0.013 A 
ATOM      7  C9  ZKW d   1     -23.445  18.534 -19.666  0.00  0.00     0.155 A 
ATOM      8  H1  ZKW d   1     -23.943  18.541 -17.497  0.00  0.00     0.091 H 
ATOM      9  N1  ZKW d   1     -22.344  18.231 -20.379  0.00  0.00    -0.165 NA
BRANCH   5  10
ATOM     10  C11 ZKW d   1     -21.186  17.673 -16.865  0.00  0.00     0.228 C 
ATOM     11  O3  ZKW d   1     -21.846  17.866 -15.812  0.00  0.00    -0.643 OA
ATOM     12  O2  ZKW d   1     -20.003  17.247 -16.913  0.00  0.00    -0.643 OA
ENDBRANCH   5  10
BRANCH   7  13
ATOM     13  C10 ZKW d   1     -24.746  19.026 -20.323  0.00  0.00     0.230 C 
ATOM     14  O1  ZKW d   1     -24.932  18.724 -21.526  0.00  0.00    -0.643 OA
ATOM     15  O   ZKW d   1     -25.526  19.699 -19.607  0.00  0.00    -0.643 OA
ENDBRANCH   7  13
ENDBRANCH   1   4
BRANCH   1  16
ATOM     16  C2  ZKW d   1     -20.009  15.966 -20.215  0.00  0.00    -0.017 A 
ATOM     17  C1  ZKW d   1     -21.143  15.150 -20.188  0.00  0.00    -0.072 A 
ATOM     18  C   ZKW d   1     -21.073  13.800 -20.480  0.00  0.00    -0.061 A 
ATOM     19  H4  ZKW d   1     -22.102  15.586 -19.932  0.00  0.00     0.084 H 
ATOM     20  C5  ZKW d   1     -19.850  13.245 -20.778  0.00  0.00     0.035 A 
ATOM     21  H6  ZKW d   1     -21.968  13.189 -20.474  0.00  0.00     0.086 H 
ATOM     22  C4  ZKW d   1     -18.699  14.008 -20.799  0.00  0.00    -0.040 A 
ATOM     23 CL   ZKW d   1     -19.754  11.552 -21.182  0.00  0.00    -0.084 Cl
ATOM     24  C3  ZKW d   1     -18.802  15.357 -20.539  0.00  0.00     0.043 A 
ATOM     25  H5  ZKW d   1     -17.738  13.556 -21.015  0.00  0.00     0.088 H 
ATOM     26 CL1  ZKW d   1     -17.363  16.314 -20.665  0.00  0.00    -0.084 Cl
ENDBRANCH   1  16
TORSDOF 4
