REMARK  4 active torsions:
REMARK  status: ('A' for Active; 'I' for Inactive)
REMARK    1  A    between atoms: C5_10  and  O_3 
REMARK    2  A    between atoms: C1_4  and  O2_7 
REMARK    3  A    between atoms: C2_6  and  O1_5 
REMARK    4  A    between atoms: C3_8  and  C5_10 
ROOT
ATOM      1  C   GIF d   1      76.030  88.904  19.516  0.00  0.00     0.107 C 
ATOM      2  N   GIF d   1      76.308  88.877  18.064  0.00  0.00    -0.072 N 
ATOM      3  C1  GIF d   1      77.249  89.074  20.387  0.00  0.00     0.084 C 
ATOM      4  C2  GIF d   1      78.368  88.210  19.987  0.00  0.00     0.069 C 
ATOM      5  C3  GIF d   1      78.698  88.299  18.542  0.00  0.00     0.017 C 
ATOM      6  C4  GIF d   1      77.482  88.086  17.671  0.00  0.00     0.089 C 
ATOM      7  H1  GIF d   1      75.543  87.956  19.789  0.00  0.00     0.079 H 
ATOM      8  H2  GIF d   1      75.345  89.740  19.718  0.00  0.00     0.079 H 
ATOM      9  H3  GIF d   1      76.453  89.826  17.756  0.00  0.00     0.277 HD
ATOM     10  H4  GIF d   1      75.501  88.492  17.598  0.00  0.00     0.277 HD
ATOM     11  H6  GIF d   1      77.584  90.119  20.314  0.00  0.00     0.089 H 
ATOM     12  H8  GIF d   1      79.260  88.480  20.572  0.00  0.00     0.087 H 
ATOM     13  H10 GIF d   1      79.064  89.320  18.358  0.00  0.00     0.049 H 
ATOM     14  H11 GIF d   1      77.748  88.354  16.638  0.00  0.00     0.076 H 
ATOM     15  H12 GIF d   1      77.210  87.021  17.715  0.00  0.00     0.076 H 
ENDROOT
BRANCH   5  16
ATOM     16  C5  GIF d   1      79.808  87.335  18.130  0.00  0.00     0.024 C 
ATOM     17  H13 GIF d   1      80.640  87.471  18.836  0.00  0.00     0.074 H 
ATOM     18  H14 GIF d   1      79.409  86.314  18.226  0.00  0.00     0.074 H 
BRANCH  16  19
ATOM     19  O   GIF d   1      80.326  87.459  16.850  0.00  0.00    -0.400 OA
ATOM     20  H5  GIF d   1      80.696  88.327  16.742  0.00  0.00     0.209 HD
ENDBRANCH  16  19
ENDBRANCH   5  16
BRANCH   4  21
ATOM     21  O1  GIF d   1      77.984  86.900  20.271  0.00  0.00    -0.392 OA
ATOM     22  H7  GIF d   1      77.808  86.817  21.201  0.00  0.00     0.210 HD
ENDBRANCH   4  21
BRANCH   3  23
ATOM     23  O2  GIF d   1      76.883  88.807  21.705  0.00  0.00    -0.391 OA
ATOM     24  H9  GIF d   1      77.623  88.971  22.277  0.00  0.00     0.210 HD
ENDBRANCH   3  23
TORSDOF 4
