REMARK  4 active torsions:
REMARK  status: ('A' for Active; 'I' for Inactive)
REMARK    1  A    between atoms: C3_3  and  O3_4 
REMARK    2  A    between atoms: C4_5  and  O2_6 
REMARK    3  A    between atoms: C5_7  and  C6_8 
REMARK    4  A    between atoms: C6_8  and  O1_9 
ROOT
ATOM      1  O   IF7 d   1      75.928  90.855  19.724  0.00  0.00    -0.271 OA
ATOM      2  C2  IF7 d   1      76.986  90.292  19.427  0.00  0.00     0.249 C 
ATOM      3  C3  IF7 d   1      78.082  90.315  20.484  0.00  0.00     0.137 C 
ATOM      4  C4  IF7 d   1      79.166  89.279  20.201  0.00  0.00     0.075 C 
ATOM      5  C5  IF7 d   1      79.599  89.338  18.736  0.00  0.00     0.009 C 
ATOM      6  C1  IF7 d   1      78.403  89.037  17.822  0.00  0.00     0.003 C 
ATOM      7  N   IF7 d   1      77.176  89.729  18.241  0.00  0.00    -0.358 N 
ATOM      8  H1  IF7 d   1      78.551  91.310  20.465  0.00  0.00     0.102 H 
ATOM      9  H3  IF7 d   1      80.039  89.501  20.832  0.00  0.00     0.088 H 
ATOM     10  H5  IF7 d   1      79.963  90.354  18.524  0.00  0.00     0.049 H 
ATOM     11  H9  IF7 d   1      78.216  87.953  17.834  0.00  0.00     0.064 H 
ATOM     12  H10 IF7 d   1      78.654  89.355  16.799  0.00  0.00     0.064 H 
ATOM     13  H11 IF7 d   1      76.426  89.779  17.581  0.00  0.00     0.162 HD
ENDROOT
BRANCH   5  14
ATOM     14  C6  IF7 d   1      80.710  88.355  18.433  0.00  0.00     0.024 C 
ATOM     15  H6  IF7 d   1      80.321  87.331  18.531  0.00  0.00     0.074 H 
ATOM     16  H7  IF7 d   1      81.530  88.506  19.150  0.00  0.00     0.074 H 
BRANCH  14  17
ATOM     17  O1  IF7 d   1      81.202  88.540  17.121  0.00  0.00    -0.400 OA
ATOM     18  H8  IF7 d   1      81.542  89.423  17.033  0.00  0.00     0.209 HD
ENDBRANCH  14  17
ENDBRANCH   5  14
BRANCH   4  19
ATOM     19  O2  IF7 d   1      78.683  87.981  20.531  0.00  0.00    -0.392 OA
ATOM     20  H4  IF7 d   1      78.453  87.955  21.452  0.00  0.00     0.210 HD
ENDBRANCH   4  19
BRANCH   3  21
ATOM     21  O3  IF7 d   1      77.527  90.109  21.773  0.00  0.00    -0.384 OA
ATOM     22  H2  IF7 d   1      78.221  90.126  22.422  0.00  0.00     0.210 HD
ENDBRANCH   3  21
TORSDOF 4
