REMARK  5 active torsions:
REMARK  status: ('A' for Active; 'I' for Inactive)
REMARK    1  A    between atoms: C2_2  and  O2_3 
REMARK    2  A    between atoms: C3_4  and  O3_5 
REMARK    3  A    between atoms: C4_6  and  O4_7 
REMARK    4  A    between atoms: C5_8  and  C6_10 
REMARK    5  A    between atoms: C6_10  and  O6_11 
ROOT
ATOM      1  C1  DGJ d   1      76.888  88.637  18.194  0.00  0.00     0.108 C 
ATOM      2  C2  DGJ d   1      76.342  89.133  19.523  0.00  0.00     0.086 C 
ATOM      3  C3  DGJ d   1      77.477  89.606  20.417  0.00  0.00     0.088 C 
ATOM      4  C4  DGJ d   1      78.717  88.749  20.214  0.00  0.00     0.092 C 
ATOM      5  C5  DGJ d   1      79.240  88.882  18.784  0.00  0.00     0.149 C 
ATOM      6  N5  DGJ d   1      78.182  89.218  17.821  0.00  0.00    -0.064 N 
ATOM      7  H1  DGJ d   1      76.159  88.884  17.408  0.00  0.00     0.079 H 
ATOM      8  H2  DGJ d   1      77.005  87.545  18.255  0.00  0.00     0.079 H 
ATOM      9  H3  DGJ d   1      75.821  88.304  20.023  0.00  0.00     0.089 H 
ATOM     10  H5  DGJ d   1      77.724  90.643  20.145  0.00  0.00     0.091 H 
ATOM     11  H7  DGJ d   1      79.499  89.103  20.901  0.00  0.00     0.090 H 
ATOM     12  H9  DGJ d   1      79.945  89.727  18.791  0.00  0.00     0.091 H 
ATOM     13  H10 DGJ d   1      78.088  90.221  17.779  0.00  0.00     0.277 HD
ATOM     14  H11 DGJ d   1      78.446  88.867  16.914  0.00  0.00     0.277 HD
ENDROOT
BRANCH   5  15
ATOM     15  C6  DGJ d   1      80.019  87.667  18.313  0.00  0.00     0.046 C 
ATOM     16  H12 DGJ d   1      79.323  86.831  18.145  0.00  0.00     0.077 H 
ATOM     17  H13 DGJ d   1      80.753  87.385  19.082  0.00  0.00     0.077 H 
BRANCH  15  18
ATOM     18  O6  DGJ d   1      80.699  87.963  17.101  0.00  0.00    -0.399 OA
ATOM     19  H14 DGJ d   1      81.301  88.684  17.245  0.00  0.00     0.209 HD
ENDBRANCH  15  18
ENDBRANCH   5  15
BRANCH   4  20
ATOM     20  O4  DGJ d   1      78.430  87.389  20.522  0.00  0.00    -0.391 OA
ATOM     21  H8  DGJ d   1      78.150  87.323  21.427  0.00  0.00     0.210 HD
ENDBRANCH   4  20
BRANCH   3  22
ATOM     22  O3  DGJ d   1      77.076  89.582  21.782  0.00  0.00    -0.390 OA
ATOM     23  H6  DGJ d   1      77.795  89.880  22.327  0.00  0.00     0.210 HD
ENDBRANCH   3  22
BRANCH   2  24
ATOM     24  O2  DGJ d   1      75.412  90.194  19.301  0.00  0.00    -0.391 OA
ATOM     25  H4  DGJ d   1      75.850  90.909  18.855  0.00  0.00     0.210 HD
ENDBRANCH   2  24
TORSDOF 5
