REMARK  6 active torsions:
REMARK  status: ('A' for Active; 'I' for Inactive)
REMARK    1  A    between atoms: O1_1  and  C10_2 
REMARK    2  A    between atoms: C10_2  and  C11_3 
REMARK    3  A    between atoms: C10_2  and  C4_13 
REMARK    4  A    between atoms: C17_8  and  C18_9 
REMARK    5  A    between atoms: C1_22  and  O_23 
REMARK    6  A    between atoms: O_23  and  C_24 
ROOT
ATOM      1  C11 QI9 d   1       5.657  -7.789 -55.160  0.00  0.00     0.133 C 
ATOM      2  N1  QI9 d   1       5.770  -9.315 -54.968  0.00  0.00    -0.063 N 
ATOM      3  C15 QI9 d   1       6.379 -10.013 -56.195  0.00  0.00     0.084 C 
ATOM      4  C14 QI9 d   1       7.779  -9.453 -56.446  0.00  0.00    -0.038 C 
ATOM      5  C16 QI9 d   1       6.750  -9.569 -53.702  0.00  0.00     0.091 C 
ATOM      6  C17 QI9 d   1       8.111  -8.930 -54.008  0.00  0.00    -0.011 C 
ATOM      7  C13 QI9 d   1       8.094  -8.344 -55.439  0.00  0.00    -0.043 C 
ATOM      8  C12 QI9 d   1       7.022  -7.266 -55.622  0.00  0.00    -0.031 C 
ATOM      9  H3  QI9 d   1       5.467  -7.349 -54.170  0.00  0.00     0.089 H 
ATOM     10  H4  QI9 d   1       4.856  -9.700 -54.786  0.00  0.00     0.280 HD
ATOM     11  H5  QI9 d   1       5.746  -9.829 -57.075  0.00  0.00     0.076 H 
ATOM     12  H6  QI9 d   1       6.443 -11.095 -56.009  0.00  0.00     0.076 H 
ATOM     13  H7  QI9 d   1       7.829  -9.043 -57.465  0.00  0.00     0.036 H 
ATOM     14  H8  QI9 d   1       8.518 -10.261 -56.339  0.00  0.00     0.036 H 
ATOM     15  H9  QI9 d   1       6.875 -10.650 -53.540  0.00  0.00     0.077 H 
ATOM     16  H10 QI9 d   1       6.319  -9.110 -52.800  0.00  0.00     0.077 H 
ATOM     17  H11 QI9 d   1       8.854  -9.741 -53.979  0.00  0.00     0.049 H 
ATOM     18  H15 QI9 d   1       9.083  -7.913 -55.655  0.00  0.00     0.041 H 
ATOM     19  H16 QI9 d   1       7.292  -6.381 -55.027  0.00  0.00     0.036 H 
ATOM     20  H17 QI9 d   1       6.964  -6.989 -56.685  0.00  0.00     0.036 H 
ENDROOT
BRANCH   1  21
ATOM     21  C10 QI9 d   1       4.446  -7.375 -56.049  0.00  0.00     0.089 C 
ATOM     22  H2  QI9 d   1       3.573  -7.969 -55.742  0.00  0.00     0.093 H 
BRANCH  21  23
ATOM     23  O1  QI9 d   1       4.718  -7.683 -57.395  0.00  0.00    -0.389 OA
ATOM     24  H1  QI9 d   1       3.977  -7.429 -57.933  0.00  0.00     0.210 HD
ENDBRANCH  21  23
BRANCH  21  25
ATOM     25  C4  QI9 d   1       4.113  -5.930 -55.822  0.00  0.00    -0.014 A 
ATOM     26  C5  QI9 d   1       4.568  -4.956 -56.742  0.00  0.00    -0.057 A 
ATOM     27  C6  QI9 d   1       4.265  -3.621 -56.535  0.00  0.00     0.004 A 
ATOM     28  H18 QI9 d   1       5.152  -5.254 -57.606  0.00  0.00     0.086 H 
ATOM     29  N   QI9 d   1       3.543  -3.153 -55.483  0.00  0.00    -0.260 NA
ATOM     30  H19 QI9 d   1       4.628  -2.901 -57.260  0.00  0.00     0.114 H 
ATOM     31  C7  QI9 d   1       3.092  -4.095 -54.567  0.00  0.00     0.067 A 
ATOM     32  C3  QI9 d   1       3.356  -5.512 -54.693  0.00  0.00     0.004 A 
ATOM     33  C8  QI9 d   1       2.341  -3.619 -53.469  0.00  0.00    -0.052 A 
ATOM     34  C2  QI9 d   1       2.855  -6.392 -53.707  0.00  0.00    -0.038 A 
ATOM     35  C1  QI9 d   1       2.111  -5.877 -52.641  0.00  0.00     0.069 A 
ATOM     36  H20 QI9 d   1       3.046  -7.457 -53.777  0.00  0.00     0.089 H 
ATOM     37  C9  QI9 d   1       1.861  -4.517 -52.519  0.00  0.00    -0.049 A 
ATOM     38  H22 QI9 d   1       1.286  -4.150 -51.676  0.00  0.00     0.087 H 
ATOM     39  H21 QI9 d   1       2.139  -2.559 -53.367  0.00  0.00     0.087 H 
BRANCH  35  40
ATOM     40  O   QI9 d   1       1.626  -6.763 -51.673  0.00  0.00    -0.356 OA
BRANCH  40  41
ATOM     41  C   QI9 d   1       1.473  -8.156 -51.877  0.00  0.00     0.010 C 
ATOM     42  H23 QI9 d   1       1.075  -8.619 -50.962  0.00  0.00     0.066 H 
ATOM     43  H24 QI9 d   1       2.450  -8.601 -52.118  0.00  0.00     0.066 H 
ATOM     44  H25 QI9 d   1       0.775  -8.330 -52.709  0.00  0.00     0.066 H 
ENDBRANCH  40  41
ENDBRANCH  35  40
ENDBRANCH  21  25
ENDBRANCH   1  21
BRANCH   6  45
ATOM     45  C18 QI9 d   1       8.589  -7.867 -53.045  0.00  0.00    -0.106 C 
ATOM     46  C19 QI9 d   1       7.986  -7.389 -51.952  0.00  0.00    -0.124 C 
ATOM     47  H13 QI9 d   1       8.469  -6.614 -51.358  0.00  0.00     0.066 H 
ATOM     48  H14 QI9 d   1       7.012  -7.774 -51.655  0.00  0.00     0.066 H 
ATOM     49  H12 QI9 d   1       9.560  -7.430 -53.274  0.00  0.00     0.076 H 
ENDBRANCH   6  45
TORSDOF 6
