REMARK  3 active torsions:
REMARK  status: ('A' for Active; 'I' for Inactive)
REMARK    1  A    between atoms: CAT_11  and  CAY_12 
REMARK    2  A    between atoms: CAX_17  and  CAQ_16 
REMARK    3  A    between atoms: CAQ_16  and  CAS_19 
ROOT
ATOM      1  CAY NVV d   1      26.351   9.305  -3.697  0.00  0.00     0.006 C 
ATOM      2  CAM NVV d   1      26.227   7.755  -3.732  0.00  0.00     0.089 C 
ATOM      3  NAN NVV d   1      24.984   7.424  -2.982  0.00  0.00    -0.074 N 
ATOM      4  CAL NVV d   1      24.320   8.721  -2.768  0.00  0.00     0.092 C 
ATOM      5  CAX NVV d   1      25.492   9.639  -2.482  0.00  0.00     0.041 C 
ATOM      6  H6  NVV d   1      25.933   9.783  -4.595  0.00  0.00     0.051 H 
ATOM      7  H7  NVV d   1      27.099   7.291  -3.249  0.00  0.00     0.076 H 
ATOM      8  H8  NVV d   1      26.152   7.401  -4.771  0.00  0.00     0.076 H 
ATOM      9  H9  NVV d   1      25.206   6.989  -2.100  0.00  0.00     0.277 HD
ATOM     10  H10 NVV d   1      24.396   6.809  -3.522  0.00  0.00     0.277 HD
ATOM     11  H11 NVV d   1      23.629   8.679  -1.913  0.00  0.00     0.076 H 
ATOM     12  H12 NVV d   1      23.773   9.042  -3.667  0.00  0.00     0.076 H 
ATOM     13  H13 NVV d   1      25.990   9.441  -1.522  0.00  0.00     0.056 H 
ENDROOT
BRANCH   1  14
ATOM     14  CAT NVV d   1      27.747   9.579  -3.631  0.00  0.00    -0.049 A 
ATOM     15  CAK NVV d   1      28.458   9.476  -2.432  0.00  0.00    -0.050 A 
ATOM     16  CAV NVV d   1      29.842   9.673  -2.393  0.00  0.00     0.049 A 
ATOM     17  H1  NVV d   1      27.928   9.239  -1.517  0.00  0.00     0.087 H 
ATOM     18  NAO NVV d   1      30.507   9.586  -1.221  0.00  0.00    -0.350 N 
ATOM     19  CAW NVV d   1      30.542   9.979  -3.569  0.00  0.00     0.060 A 
ATOM     20  CAI NVV d   1      31.895   9.794  -1.198  0.00  0.00     0.068 A 
ATOM     21  H2  NVV d   1      30.000   9.369  -0.351  0.00  0.00     0.166 HD
ATOM     22  NAP NVV d   1      32.583  10.067  -2.306  0.00  0.00    -0.205 NA
ATOM     23  H3  NVV d   1      32.424   9.730  -0.248  0.00  0.00     0.143 H 
ATOM     24  CAU NVV d   1      31.930  10.174  -3.521  0.00  0.00     0.280 A 
ATOM     25  OAB NVV d   1      32.596  10.417  -4.527  0.00  0.00    -0.265 OA
ATOM     26  CAH NVV d   1      29.841  10.075  -4.777  0.00  0.00    -0.065 A 
ATOM     27  CAG NVV d   1      28.460   9.868  -4.805  0.00  0.00    -0.075 A 
ATOM     28  H4  NVV d   1      30.371  10.310  -5.693  0.00  0.00     0.085 H 
ATOM     29  H5  NVV d   1      27.930   9.932  -5.749  0.00  0.00     0.084 H 
ENDBRANCH   1  14
BRANCH   5  30
ATOM     30  CAQ NVV d   1      25.001  11.094  -2.579  0.00  0.00     0.166 C 
ATOM     31  OAA NVV d   1      25.230  11.757  -3.585  0.00  0.00    -0.292 OA
BRANCH  30  32
ATOM     32  CAS NVV d   1      24.214  11.610  -1.536  0.00  0.00     0.011 A 
ATOM     33  CAF NVV d   1      23.699  12.911  -1.623  0.00  0.00    -0.069 A 
ATOM     34  CAD NVV d   1      22.909  13.440  -0.603  0.00  0.00    -0.081 A 
ATOM     35  H14 NVV d   1      23.918  13.515  -2.496  0.00  0.00     0.085 H 
ATOM     36  CAE NVV d   1      22.623  12.657   0.523  0.00  0.00    -0.067 A 
ATOM     37  H15 NVV d   1      22.519  14.449  -0.681  0.00  0.00     0.083 H 
ATOM     38  CAR NVV d   1      23.130  11.361   0.611  0.00  0.00     0.007 A 
ATOM     39  H16 NVV d   1      22.010  13.057   1.323  0.00  0.00     0.085 H 
ATOM     40  CAJ NVV d   1      23.919  10.835  -0.419  0.00  0.00    -0.053 A 
ATOM     41  ILA NVV d   1      22.699  10.169   2.247  0.00  0.00    -0.045 I 
ATOM     42  H17 NVV d   1      24.300   9.823  -0.346  0.00  0.00     0.086 H 
ENDBRANCH  30  32
ENDBRANCH   5  30
TORSDOF 3
