REMARK  3 active torsions:
REMARK  status: ('A' for Active; 'I' for Inactive)
REMARK    1  A    between atoms: C5_2  and  C4_1 
REMARK    2  A    between atoms: C4_1  and  C3_8 
REMARK    3  A    between atoms: C9_22  and  C8_23 
ROOT
ATOM      1  C5  4L7 d   1     -25.644   9.538   2.584  0.00  0.00     0.041 C 
ATOM      2  C6  4L7 d   1     -24.495   8.513   2.666  0.00  0.00     0.092 C 
ATOM      3  C7  4L7 d   1     -26.359   7.568   3.716  0.00  0.00     0.089 C 
ATOM      4  N   4L7 d   1     -25.051   7.252   3.122  0.00  0.00    -0.074 N 
ATOM      5  C8  4L7 d   1     -26.548   9.097   3.779  0.00  0.00     0.006 C 
ATOM      6  H1  4L7 d   1     -26.192   9.429   1.637  0.00  0.00     0.056 H 
ATOM      7  H2  4L7 d   1     -23.732   8.863   3.377  0.00  0.00     0.076 H 
ATOM      8  H3  4L7 d   1     -24.039   8.383   1.673  0.00  0.00     0.076 H 
ATOM      9  H4  4L7 d   1     -26.409   7.152   4.733  0.00  0.00     0.076 H 
ATOM     10  H5  4L7 d   1     -27.156   7.127   3.100  0.00  0.00     0.076 H 
ATOM     11  H8  4L7 d   1     -24.447   6.833   3.812  0.00  0.00     0.277 HD
ATOM     12  H9  4L7 d   1     -25.164   6.619   2.345  0.00  0.00     0.277 HD
ATOM     13  H15 4L7 d   1     -26.139   9.497   4.718  0.00  0.00     0.051 H 
ENDROOT
BRANCH   5  14
ATOM     14  C9  4L7 d   1     -28.007   9.503   3.715  0.00  0.00    -0.049 A 
ATOM     15  C10 4L7 d   1     -28.714   9.389   2.520  0.00  0.00    -0.048 A 
ATOM     16  C11 4L7 d   1     -30.099   9.571   2.496  0.00  0.00     0.074 A 
ATOM     17  H12 4L7 d   1     -28.186   9.157   1.602  0.00  0.00     0.087 H 
ATOM     18  N2  4L7 d   1     -30.769   9.392   1.276  0.00  0.00    -0.243 NA
ATOM     19  C12 4L7 d   1     -30.776   9.889   3.679  0.00  0.00     0.061 A 
ATOM     20  C16 4L7 d   1     -32.073   9.541   1.302  0.00  0.00     0.067 A 
ATOM     21  N1  4L7 d   1     -32.798   9.823   2.412  0.00  0.00    -0.317 N 
ATOM     22  H11 4L7 d   1     -32.612   9.430   0.362  0.00  0.00     0.143 H 
ATOM     23  C15 4L7 d   1     -32.239   9.997   3.647  0.00  0.00     0.258 A 
ATOM     24  H10 4L7 d   1     -33.790   9.908   2.323  0.00  0.00     0.169 HD
ATOM     25  O1  4L7 d   1     -32.922  10.139   4.657  0.00  0.00    -0.267 OA
ATOM     26  C13 4L7 d   1     -30.059  10.059   4.864  0.00  0.00    -0.065 A 
ATOM     27  C14 4L7 d   1     -28.691   9.858   4.873  0.00  0.00    -0.075 A 
ATOM     28  H13 4L7 d   1     -30.573  10.348   5.774  0.00  0.00     0.085 H 
ATOM     29  H14 4L7 d   1     -28.142   9.979   5.800  0.00  0.00     0.084 H 
ENDBRANCH   5  14
BRANCH   1  30
ATOM     30  C4  4L7 d   1     -25.136  10.965   2.672  0.00  0.00     0.172 C 
ATOM     31  O   4L7 d   1     -25.392  11.659   3.640  0.00  0.00    -0.291 OA
BRANCH  30  32
ATOM     32  C3  4L7 d   1     -24.321  11.467   1.564  0.00  0.00     0.052 A 
ATOM     33  C2  4L7 d   1     -23.965  10.859   0.378  0.00  0.00    -0.061 A 
ATOM     34  C1  4L7 d   1     -23.197  11.690  -0.475  0.00  0.00    -0.058 A 
ATOM     35  H7  4L7 d   1     -24.247   9.839   0.122  0.00  0.00     0.085 H 
ATOM     36  C   4L7 d   1     -22.982  12.905   0.066  0.00  0.00     0.052 A 
ATOM     37  H6  4L7 d   1     -22.825  11.383  -1.451  0.00  0.00     0.086 H 
ATOM     38 BR   4L7 d   1     -22.121  14.358  -0.752  0.00  0.00    -0.043 Br
ATOM     39  S   4L7 d   1     -23.676  13.083   1.638  0.00  0.00    -0.079 SA
ENDBRANCH  30  32
ENDBRANCH   1  30
TORSDOF 3
