REMARK  3 active torsions:
REMARK  status: ('A' for Active; 'I' for Inactive)
REMARK    1  A    between atoms: C06_6  and  C08_8 
REMARK    2  A    between atoms: C08_8  and  C10_10 
REMARK    3  A    between atoms: C14_14  and  C15_15 
ROOT
ATOM      1  C10 8BQ d   1     -25.639   9.517   2.579  0.00  0.00     0.041 C 
ATOM      2  C11 8BQ d   1     -24.498   8.417   2.692  0.00  0.00     0.092 C 
ATOM      3  N12 8BQ d   1     -25.099   7.353   3.161  0.00  0.00    -0.074 N 
ATOM      4  C13 8BQ d   1     -26.511   7.813   3.733  0.00  0.00     0.089 C 
ATOM      5  C14 8BQ d   1     -26.509   9.180   3.748  0.00  0.00     0.006 C 
ATOM      6  H5  8BQ d   1     -26.174   9.420   1.623  0.00  0.00     0.056 H 
ATOM      7  H6  8BQ d   1     -23.707   8.749   3.381  0.00  0.00     0.076 H 
ATOM      8  H7  8BQ d   1     -24.061   8.210   1.704  0.00  0.00     0.076 H 
ATOM      9  H8  8BQ d   1     -24.547   6.942   3.897  0.00  0.00     0.277 HD
ATOM     10  H9  8BQ d   1     -25.230   6.679   2.423  0.00  0.00     0.277 HD
ATOM     11  H10 8BQ d   1     -26.651   7.424   4.752  0.00  0.00     0.076 H 
ATOM     12  H11 8BQ d   1     -27.320   7.443   3.086  0.00  0.00     0.076 H 
ATOM     13  H12 8BQ d   1     -26.066   9.612   4.658  0.00  0.00     0.051 H 
ENDROOT
BRANCH   5  14
ATOM     14  C15 8BQ d   1     -28.053   9.439   3.746  0.00  0.00    -0.049 A 
ATOM     15  C16 8BQ d   1     -28.709   9.385   2.546  0.00  0.00    -0.050 A 
ATOM     16  C17 8BQ d   1     -30.116   9.577   2.490  0.00  0.00     0.045 A 
ATOM     17  H13 8BQ d   1     -28.153   9.195   1.635  0.00  0.00     0.087 H 
ATOM     18  C18 8BQ d   1     -30.815   9.834   3.654  0.00  0.00     0.058 A 
ATOM     19  N25 8BQ d   1     -30.774   9.507   1.197  0.00  0.00    -0.373 N 
ATOM     20  C19 8BQ d   1     -30.119   9.898   4.909  0.00  0.00    -0.065 A 
ATOM     21  C21 8BQ d   1     -32.314  10.041   3.580  0.00  0.00     0.255 A 
ATOM     22  C20 8BQ d   1     -28.763   9.711   4.961  0.00  0.00    -0.075 A 
ATOM     23  H14 8BQ d   1     -30.671  10.096   5.821  0.00  0.00     0.085 H 
ATOM     24  H15 8BQ d   1     -28.235   9.768   5.906  0.00  0.00     0.084 H 
ATOM     25  O22 8BQ d   1     -32.977  10.260   4.596  0.00  0.00    -0.268 OA
ATOM     26  N23 8BQ d   1     -32.943   9.973   2.337  0.00  0.00    -0.341 N 
ATOM     27  C24 8BQ d   1     -32.200   9.710   1.132  0.00  0.00     0.054 A 
ATOM     28  H16 8BQ d   1     -33.932  10.110   2.281  0.00  0.00     0.164 HD
ATOM     29  H17 8BQ d   1     -32.369  10.565   0.461  0.00  0.00     0.096 H 
ATOM     30  H18 8BQ d   1     -32.630   8.802   0.685  0.00  0.00     0.096 H 
ATOM     31  H19 8BQ d   1     -30.232   9.316   0.342  0.00  0.00     0.161 HD
ENDBRANCH   5  14
BRANCH   1  32
ATOM     32  C08 8BQ d   1     -25.170  10.969   2.757  0.00  0.00     0.166 C 
ATOM     33  O09 8BQ d   1     -25.476  11.632   3.778  0.00  0.00    -0.292 OA
BRANCH  32  34
ATOM     34  C06 8BQ d   1     -24.388  11.622   1.627  0.00  0.00     0.013 A 
ATOM     35  C05 8BQ d   1     -23.872  12.905   1.750  0.00  0.00    -0.069 A 
ATOM     36  C04 8BQ d   1     -23.169  13.488   0.689  0.00  0.00    -0.079 A 
ATOM     37  H3  8BQ d   1     -24.014  13.458   2.672  0.00  0.00     0.085 H 
ATOM     38  C03 8BQ d   1     -22.988  12.742  -0.511  0.00  0.00    -0.046 A 
ATOM     39  H2  8BQ d   1     -22.769  14.491   0.779  0.00  0.00     0.083 H 
ATOM     40  C02 8BQ d   1     -23.494  11.522  -0.612  0.00  0.00     0.117 A 
ATOM     41  H1  8BQ d   1     -22.437  13.172  -1.340  0.00  0.00     0.088 H 
ATOM     42  F01 8BQ d   1     -23.342  10.837  -1.707  0.00  0.00    -0.206 F 
ATOM     43  C07 8BQ d   1     -24.218  10.919   0.474  0.00  0.00    -0.032 A 
ATOM     44  H4  8BQ d   1     -24.623   9.918   0.376  0.00  0.00     0.089 H 
ENDBRANCH  32  34
ENDBRANCH   1  32
TORSDOF 3
