REMARK  4 active torsions:
REMARK  status: ('A' for Active; 'I' for Inactive)
REMARK    1  A    between atoms: CAI_1  and  CAH_4 
REMARK    2  A    between atoms: CAH_4  and  CAA_5 
REMARK    3  A    between atoms: CAH_4  and  CAG_6 
REMARK    4  A    between atoms: CAG_6  and  PAJ_7 
ROOT
ATOM      1  CAH GZ3 d   1      -6.683 -84.999   0.774  0.00  0.00     0.039 C 
ATOM      2  H   GZ3 d   1      -7.046 -84.561  -0.167  0.00  0.00     0.057 H 
ENDROOT
BRANCH   1   3
ATOM      3  CAI GZ3 d   1      -5.209 -84.843   0.412  0.00  0.00     0.177 C 
ATOM      4  OAB GZ3 d   1      -4.660 -85.560  -0.443  0.00  0.00    -0.648 OA
ATOM      5  OAD GZ3 d   1      -4.585 -83.980   0.996  0.00  0.00    -0.648 OA
ENDBRANCH   1   3
BRANCH   1   6
ATOM      6  CAA GZ3 d   1      -7.363 -83.921   1.614  0.00  0.00    -0.063 C 
ATOM      7  H   GZ3 d   1      -8.416 -84.194   1.778  0.00  0.00     0.028 H 
ATOM      8  H   GZ3 d   1      -7.312 -82.958   1.085  0.00  0.00     0.028 H 
ATOM      9  H   GZ3 d   1      -6.851 -83.835   2.584  0.00  0.00     0.028 H 
ENDBRANCH   1   6
BRANCH   1  10
ATOM     10  CAG GZ3 d   1      -7.260 -86.313   0.482  0.00  0.00     0.051 C 
ATOM     11  H   GZ3 d   1      -6.671 -87.037   1.064  0.00  0.00     0.055 H 
ATOM     12  H   GZ3 d   1      -7.093 -86.484  -0.592  0.00  0.00     0.055 H 
BRANCH  10  13
ATOM     13  PAJ GZ3 d   1      -8.986 -86.726   0.784  0.00  0.00     0.260 P 
ATOM     14  OAE GZ3 d   1      -9.049 -88.298   0.664  0.00  0.00    -0.640 OA
ATOM     15  OAF GZ3 d   1      -9.294 -86.436   2.271  0.00  0.00    -0.640 OA
ATOM     16  OAC GZ3 d   1      -9.936 -86.038  -0.166  0.00  0.00    -0.640 OA
ENDBRANCH  10  13
ENDBRANCH   1  10
TORSDOF 4
