REMARK  4 active torsions:
REMARK  status: ('A' for Active; 'I' for Inactive)
REMARK    1  A    between atoms: C1_1  and  C2_4 
REMARK    2  A    between atoms: C2_4  and  C3_5 
REMARK    3  A    between atoms: C2_4  and  O2_6 
REMARK    4  A    between atoms: O2_6  and  P_7 
ROOT
ATOM      1  C2  0V5 d   1      45.214 -23.594  -4.455  0.00  0.00     0.131 C 
ATOM      2  H   0V5 d   1      45.218 -24.666  -4.210  0.00  0.00     0.100 H 
ENDROOT
BRANCH   1   3
ATOM      3  C1  0V5 d   1      45.251 -22.769  -3.184  0.00  0.00     0.203 C 
ATOM      4  O1  0V5 d   1      44.503 -23.180  -2.272  0.00  0.00    -0.646 OA
ATOM      5  O2' 0V5 d   1      45.983 -21.757  -3.141  0.00  0.00    -0.646 OA
ENDBRANCH   1   3
BRANCH   1   6
ATOM      6  C3  0V5 d   1      43.903 -23.208  -5.149  0.00  0.00    -0.042 C 
ATOM      7  H   0V5 d   1      43.805 -23.772  -6.088  0.00  0.00     0.031 H 
ATOM      8  H   0V5 d   1      43.907 -22.130  -5.368  0.00  0.00     0.031 H 
ATOM      9  H   0V5 d   1      43.055 -23.445  -4.489  0.00  0.00     0.031 H 
ENDBRANCH   1   6
BRANCH   1  10
ATOM     10  O2  0V5 d   1      46.331 -23.301  -5.312  0.00  0.00    -0.267 OA
BRANCH  10  11
ATOM     11  P   0V5 d   1      46.682 -24.307  -6.545  0.00  0.00     0.423 P 
ATOM     12  O1P 0V5 d   1      46.184 -23.484  -7.814  0.00  0.00    -0.617 OA
ATOM     13  O2P 0V5 d   1      48.282 -24.326  -6.682  0.00  0.00    -0.617 OA
ATOM     14  O3P 0V5 d   1      45.944 -25.616  -6.471  0.00  0.00    -0.617 OA
ENDBRANCH  10  11
ENDBRANCH   1  10
TORSDOF 4
