REMARK  3 active torsions:
REMARK  status: ('A' for Active; 'I' for Inactive)
REMARK    1  A    between atoms: C5_4  and  C17_11 
REMARK    2  A    between atoms: C11_16  and  C6_5 
REMARK    3  A    between atoms: N4_20  and  C19_21 
ROOT
ATOM      1  N1  2YQ d   1       0.387  63.915 190.438  0.00  0.00    -0.175 NA
ATOM      2  N3  2YQ d   1       1.137  62.399 186.571  0.00  0.00    -0.379 N 
ATOM      3  C4  2YQ d   1      -1.477  62.318 190.557  0.00  0.00     0.272 A 
ATOM      4  C5  2YQ d   1       1.604  64.107 188.568  0.00  0.00     0.073 C 
ATOM      5  C6  2YQ d   1       1.863  63.571 187.094  0.00  0.00     0.051 C 
ATOM      6  C7  2YQ d   1       0.055  61.938 187.258  0.00  0.00     0.045 A 
ATOM      7  C8  2YQ d   1      -0.773  60.975 186.668  0.00  0.00    -0.019 A 
ATOM      8  C10 2YQ d   1      -2.045  60.911 188.702  0.00  0.00    -0.029 A 
ATOM      9  C3  2YQ d   1       0.644  63.415 189.192  0.00  0.00     0.082 A 
ATOM     10  C2  2YQ d   1      -0.156  62.407 188.542  0.00  0.00     0.034 A 
ATOM     11  C9  2YQ d   1      -1.842  60.453 187.413  0.00  0.00     0.119 A 
ATOM     12  F1  2YQ d   1      -2.797  59.442 186.909  0.00  0.00    -0.206 F 
ATOM     13  C1  2YQ d   1      -1.224  61.876 189.250  0.00  0.00     0.051 A 
ATOM     14  O   2YQ d   1      -2.387  61.803 191.207  0.00  0.00    -0.266 OA
ATOM     15  N2  2YQ d   1      -0.699  63.344 191.144  0.00  0.00    -0.242 N 
ATOM     16  H1  2YQ d   1       1.442  61.938 185.702  0.00  0.00     0.160 HD
ATOM     17  H2  2YQ d   1       2.537  64.072 189.150  0.00  0.00     0.065 H 
ATOM     18  H3  2YQ d   1       1.398  64.348 186.470  0.00  0.00     0.082 H 
ATOM     19  H4  2YQ d   1      -0.592  60.639 185.654  0.00  0.00     0.091 H 
ATOM     20  H5  2YQ d   1      -2.861  60.506 189.291  0.00  0.00     0.089 H 
ATOM     21  H14 2YQ d   1      -0.918  63.668 192.064  0.00  0.00     0.192 HD
ENDROOT
BRANCH   5  22
ATOM     22  C11 2YQ d   1       3.172  63.805 186.900  0.00  0.00    -0.034 A 
ATOM     23  C12 2YQ d   1       3.457  64.417 185.689  0.00  0.00    -0.072 A 
ATOM     24  C13 2YQ d   1       4.717  64.891 185.445  0.00  0.00    -0.045 A 
ATOM     25  H8  2YQ d   1       2.683  64.520 184.937  0.00  0.00     0.084 H 
ATOM     26  C14 2YQ d   1       5.688  64.788 186.415  0.00  0.00     0.116 A 
ATOM     27  H6  2YQ d   1       4.950  65.347 184.489  0.00  0.00     0.088 H 
ATOM     28  C15 2YQ d   1       5.377  64.214 187.655  0.00  0.00    -0.045 A 
ATOM     29  F2  2YQ d   1       7.425  65.400 185.985  0.00  0.00    -0.206 F 
ATOM     30  C16 2YQ d   1       4.113  63.751 187.916  0.00  0.00    -0.072 A 
ATOM     31  H7  2YQ d   1       6.144  64.135 188.417  0.00  0.00     0.088 H 
ATOM     32  H9  2YQ d   1       3.857  63.353 188.891  0.00  0.00     0.084 H 
ENDBRANCH   5  22
BRANCH   4  33
ATOM     33  C17 2YQ d   1       1.069  65.575 188.442  0.00  0.00     0.136 A 
ATOM     34  N6  2YQ d   1      -0.245  65.984 188.652  0.00  0.00    -0.225 NA
ATOM     35  C18 2YQ d   1      -0.457  67.318 188.451  0.00  0.00     0.108 A 
ATOM     36  N5  2YQ d   1       0.720  67.820 188.120  0.00  0.00    -0.165 NA
ATOM     37  H10 2YQ d   1      -1.399  67.856 188.544  0.00  0.00     0.149 H 
ATOM     38  N4  2YQ d   1       1.689  66.760 188.084  0.00  0.00    -0.258 N 
BRANCH  38  39
ATOM     39  C19 2YQ d   1       3.059  67.214 187.716  0.00  0.00     0.004 C 
ATOM     40  H11 2YQ d   1       3.044  68.294 187.508  0.00  0.00     0.059 H 
ATOM     41  H12 2YQ d   1       3.396  66.673 186.820  0.00  0.00     0.059 H 
ATOM     42  H13 2YQ d   1       3.749  67.011 188.548  0.00  0.00     0.059 H 
ENDBRANCH  38  39
ENDBRANCH   4  33
TORSDOF 3
