REMARK  4 active torsions:
REMARK  status: ('A' for Active; 'I' for Inactive)
REMARK    1  A    between atoms: C3_11  and  C4_4 
REMARK    2  A    between atoms: C13_5  and  C15_9 
REMARK    3  A    between atoms: C2_12  and  C1_10 
REMARK    4  A    between atoms: C3_11  and  C2_12 
ROOT
ATOM      1  C5  TXW d   1      41.805  32.373  55.992  0.00  0.00    -0.033 A 
ATOM      2  C7  TXW d   1      43.069  31.806  57.936  0.00  0.00     0.015 A 
ATOM      3  C6  TXW d   1      42.460  31.428  56.742  0.00  0.00     0.049 A 
ATOM      4  C4  TXW d   1      41.769  33.667  56.454  0.00  0.00     0.037 A 
ATOM      5  C13 TXW d   1      43.003  33.141  58.327  0.00  0.00     0.043 A 
ATOM      6  C8  TXW d   1      43.733  30.781  58.695  0.00  0.00    -0.064 A 
ATOM      7  C9  TXW d   1      43.763  29.499  58.262  0.00  0.00    -0.016 A 
ATOM      8  C10 TXW d   1      43.119  29.104  57.014  0.00  0.00     0.245 A 
ATOM      9  N14 TXW d   1      42.356  34.045  57.589  0.00  0.00    -0.257 NA
ATOM     10  N12 TXW d   1      42.489  30.106  56.332  0.00  0.00    -0.323 N 
ATOM     11  O11 TXW d   1      43.128  27.949  56.560  0.00  0.00    -0.268 OA
ATOM     12  H1  TXW d   1      41.327  32.105  55.057  0.00  0.00     0.090 H 
ATOM     13  H2  TXW d   1      44.220  31.041  59.634  0.00  0.00     0.085 H 
ATOM     14  H3  TXW d   1      44.279  28.747  58.858  0.00  0.00     0.092 H 
ATOM     15  H14 TXW d   1      42.019  29.869  55.482  0.00  0.00     0.169 HD
ENDROOT
BRANCH   4  16
ATOM     16  C3  TXW d   1      41.047  34.741  55.676  0.00  0.00    -0.025 C 
ATOM     17  H10 TXW d   1      40.528  35.394  56.393  0.00  0.00     0.042 H 
ATOM     18  H11 TXW d   1      40.309  34.254  55.022  0.00  0.00     0.042 H 
BRANCH  16  19
ATOM     19  C2  TXW d   1      41.935  35.597  54.822  0.00  0.00    -0.063 C 
ATOM     20  H12 TXW d   1      42.068  35.117  53.841  0.00  0.00     0.033 H 
ATOM     21  H13 TXW d   1      41.467  36.583  54.687  0.00  0.00     0.033 H 
BRANCH  19  22
ATOM     22  C1  TXW d   1      43.276  35.771  55.473  0.00  0.00    -0.076 C 
ATOM     23  H7  TXW d   1      43.914  36.400  54.835  0.00  0.00     0.027 H 
ATOM     24  H8  TXW d   1      43.749  34.787  55.608  0.00  0.00     0.027 H 
ATOM     25  H9  TXW d   1      43.148  36.254  56.453  0.00  0.00     0.027 H 
ENDBRANCH  19  22
ENDBRANCH  16  19
ENDBRANCH   4  16
BRANCH   5  26
ATOM     26  C15 TXW d   1      43.676  33.668  59.562  0.00  0.00    -0.035 C 
ATOM     27  H4  TXW d   1      43.479  34.746  59.655  0.00  0.00     0.035 H 
ATOM     28  H5  TXW d   1      44.760  33.499  59.489  0.00  0.00     0.035 H 
ATOM     29  H6  TXW d   1      43.282  33.145  60.446  0.00  0.00     0.035 H 
ENDBRANCH   5  26
TORSDOF 4
