REMARK  8 active torsions:
REMARK  status: ('A' for Active; 'I' for Inactive)
REMARK    1  A    between atoms: O3A_8  and  PB_1 
REMARK    2  A    between atoms: PA_5  and  O3A_8 
REMARK    3  A    between atoms: PA_5  and  O5'_9 
REMARK    4  A    between atoms: O5'_9  and  C5'_10 
REMARK    5  A    between atoms: C5'_10  and  C4'_11 
REMARK    6  A    between atoms: C3'_13  and  O3'_14 
REMARK    7  A    between atoms: C1'_16  and  N9_17 
REMARK    8  A    between atoms: C6_21  and  N6_22 
ROOT
ATOM      1  C4' DAT d   1       9.610 -56.150   6.775  0.00  0.00     0.087 C 
ATOM      2  O4' DAT d   1      10.711 -56.288   6.088  0.00  0.00    -0.356 OA
ATOM      3  C3' DAT d   1       9.498 -54.634   6.970  0.00  0.00     0.066 C 
ATOM      4  C2' DAT d   1      10.960 -54.208   7.158  0.00  0.00     0.002 C 
ATOM      5  C1' DAT d   1      11.681 -55.116   6.514  0.00  0.00     0.115 C 
ATOM      6  H   DAT d   1       9.661 -56.685   7.735  0.00  0.00     0.090 H 
ATOM      7  H   DAT d   1       9.079 -54.155   6.073  0.00  0.00     0.087 H 
ATOM      8  H   DAT d   1      11.222 -54.196   8.226  0.00  0.00     0.043 H 
ATOM      9  H   DAT d   1      11.127 -53.209   6.728  0.00  0.00     0.043 H 
ATOM     10  H   DAT d   1      12.460 -55.503   7.187  0.00  0.00     0.118 H 
ENDROOT
BRANCH   5  11
ATOM     11  N9  DAT d   1      12.311 -54.571   5.330  0.00  0.00    -0.296 N 
ATOM     12  C8  DAT d   1      11.336 -54.374   4.383  0.00  0.00     0.070 A 
ATOM     13  N7  DAT d   1      11.906 -53.851   3.274  0.00  0.00    -0.236 NA
ATOM     14  H   DAT d   1      10.278 -54.602   4.505  0.00  0.00     0.144 H 
ATOM     15  C5  DAT d   1      13.243 -53.737   3.513  0.00  0.00     0.149 A 
ATOM     16  C6  DAT d   1      14.263 -53.275   2.737  0.00  0.00     0.155 A 
ATOM     17  C4  DAT d   1      13.489 -54.183   4.783  0.00  0.00     0.167 A 
ATOM     18  N1  DAT d   1      15.516 -53.257   3.226  0.00  0.00    -0.222 NA
ATOM     19  C2  DAT d   1      15.758 -53.706   4.495  0.00  0.00     0.091 A 
ATOM     20  N3  DAT d   1      14.736 -54.160   5.261  0.00  0.00    -0.222 NA
ATOM     21  H   DAT d   1      16.768 -53.699   4.889  0.00  0.00     0.146 H 
BRANCH  16  22
ATOM     22  N6  DAT d   1      14.263 -52.775   1.406  0.00  0.00    -0.382 N 
ATOM     23  H   DAT d   1      15.144 -52.465   0.972  0.00  0.00     0.157 HD
ATOM     24  H   DAT d   1      13.382 -52.723   0.875  0.00  0.00     0.157 HD
ENDBRANCH  16  22
ENDBRANCH   5  11
BRANCH   1  25
ATOM     25  C5' DAT d   1       8.392 -56.640   5.938  0.00  0.00     0.058 C 
ATOM     26  H   DAT d   1       8.462 -57.725   5.773  0.00  0.00     0.079 H 
ATOM     27  H   DAT d   1       7.456 -56.409   6.468  0.00  0.00     0.079 H 
BRANCH  25  28
ATOM     28  O5' DAT d   1       8.425 -55.959   4.695  0.00  0.00    -0.287 OA
BRANCH  28  29
ATOM     29  PA  DAT d   1       7.094 -55.693   3.903  0.00  0.00     0.418 P 
ATOM     30  O1A DAT d   1       6.046 -56.766   4.217  0.00  0.00    -0.624 OA
ATOM     31  O2A DAT d   1       7.334 -55.686   2.450  0.00  0.00    -0.624 OA
BRANCH  29  32
ATOM     32  O3A DAT d   1       6.529 -54.322   4.350  0.00  0.00    -0.173 OA
BRANCH  32  33
ATOM     33  PB  DAT d   1       5.551 -54.132   5.593  0.00  0.00     0.431 P 
ATOM     34  O1B DAT d   1       5.045 -52.687   5.568  0.00  0.00    -0.616 OA
ATOM     35  O2B DAT d   1       6.327 -54.374   6.921  0.00  0.00    -0.616 OA
ATOM     36  O3B DAT d   1       4.427 -55.124   5.441  0.00  0.00    -0.616 OA
ENDBRANCH  32  33
ENDBRANCH  29  32
ENDBRANCH  28  29
ENDBRANCH  25  28
ENDBRANCH   1  25
BRANCH   3  37
ATOM     37  O3' DAT d   1       8.689 -54.347   8.034  0.00  0.00    -0.393 OA
ATOM     38  H   DAT d   1       7.823 -54.703   7.877  0.00  0.00     0.210 HD
ENDBRANCH   3  37
TORSDOF 8
