REMARK  9 active torsions:
REMARK  status: ('A' for Active; 'I' for Inactive)
REMARK    1  A    between atoms: O3A_8  and  PB_1 
REMARK    2  A    between atoms: PA_5  and  O3A_8 
REMARK    3  A    between atoms: PA_5  and  O5'_9 
REMARK    4  A    between atoms: O5'_9  and  C5'_10 
REMARK    5  A    between atoms: C5'_10  and  C4'_11 
REMARK    6  A    between atoms: C3'_13  and  O3'_14 
REMARK    7  A    between atoms: C2'_15  and  O2'_16 
REMARK    8  A    between atoms: C1'_17  and  N9_18 
REMARK    9  A    between atoms: C6_22  and  N6_23 
ROOT
ATOM      1  C4' ADP d   1      10.199 -14.796   6.154  0.00  0.00     0.089 C 
ATOM      2  O4' ADP d   1       9.720 -13.574   5.695  0.00  0.00    -0.353 OA
ATOM      3  C3' ADP d   1       9.015 -15.717   6.309  0.00  0.00     0.091 C 
ATOM      4  C2' ADP d   1       7.969 -14.758   6.716  0.00  0.00     0.105 C 
ATOM      5  C1' ADP d   1       8.405 -13.450   6.116  0.00  0.00     0.139 C 
ATOM      6  H   ADP d   1      10.648 -14.651   7.148  0.00  0.00     0.090 H 
ATOM      7  H   ADP d   1       8.764 -16.166   5.337  0.00  0.00     0.091 H 
ATOM      8  H   ADP d   1       6.978 -15.068   6.352  0.00  0.00     0.093 H 
ATOM      9  H   ADP d   1       8.300 -12.623   6.834  0.00  0.00     0.122 H 
ENDROOT
BRANCH   5  10
ATOM     10  N9  ADP d   1       7.567 -13.254   4.962  0.00  0.00    -0.294 N 
ATOM     11  C8  ADP d   1       7.555 -14.031   3.898  0.00  0.00     0.071 A 
ATOM     12  N7  ADP d   1       6.678 -13.619   3.013  0.00  0.00    -0.236 NA
ATOM     13  H   ADP d   1       8.192 -14.905   3.769  0.00  0.00     0.144 H 
ATOM     14  C5  ADP d   1       6.120 -12.559   3.525  0.00  0.00     0.149 A 
ATOM     15  C6  ADP d   1       5.079 -11.657   3.089  0.00  0.00     0.155 A 
ATOM     16  C4  ADP d   1       6.702 -12.338   4.823  0.00  0.00     0.167 A 
ATOM     17  N1  ADP d   1       4.771 -10.696   3.897  0.00  0.00    -0.222 NA
ATOM     18  C2  ADP d   1       5.364 -10.581   5.068  0.00  0.00     0.091 A 
ATOM     19  N3  ADP d   1       6.311 -11.346   5.545  0.00  0.00    -0.222 NA
ATOM     20  H   ADP d   1       5.032  -9.767   5.702  0.00  0.00     0.146 H 
BRANCH  15  21
ATOM     21  N6  ADP d   1       4.499 -11.821   1.908  0.00  0.00    -0.382 N 
ATOM     22  H   ADP d   1       3.758 -11.174   1.604  0.00  0.00     0.157 HD
ATOM     23  H   ADP d   1       4.790 -12.595   1.294  0.00  0.00     0.157 HD
ENDBRANCH  15  21
ENDBRANCH   5  10
BRANCH   4  24
ATOM     24  O2' ADP d   1       7.959 -14.603   8.086  0.00  0.00    -0.388 OA
ATOM     25  H   ADP d   1       7.785 -15.442   8.497  0.00  0.00     0.210 HD
ENDBRANCH   4  24
BRANCH   1  26
ATOM     26  C5' ADP d   1      11.287 -15.309   5.237  0.00  0.00     0.058 C 
ATOM     27  H   ADP d   1      12.065 -14.537   5.145  0.00  0.00     0.079 H 
ATOM     28  H   ADP d   1      11.722 -16.218   5.678  0.00  0.00     0.079 H 
BRANCH  26  29
ATOM     29  O5' ADP d   1      10.813 -15.609   3.986  0.00  0.00    -0.287 OA
BRANCH  29  30
ATOM     30  PA  ADP d   1      11.108 -16.856   3.195  0.00  0.00     0.418 P 
ATOM     31  O1A ADP d   1      10.588 -16.590   1.897  0.00  0.00    -0.624 OA
ATOM     32  O2A ADP d   1      12.520 -17.096   3.348  0.00  0.00    -0.624 OA
BRANCH  30  33
ATOM     33  O3A ADP d   1      10.248 -17.994   3.782  0.00  0.00    -0.173 OA
BRANCH  33  34
ATOM     34  PB  ADP d   1      10.621 -19.118   4.732  0.00  0.00     0.431 P 
ATOM     35  O1B ADP d   1      10.623 -18.527   5.982  0.00  0.00    -0.616 OA
ATOM     36  O2B ADP d   1       9.661 -20.148   4.599  0.00  0.00    -0.616 OA
ATOM     37  O3B ADP d   1      11.927 -19.527   4.329  0.00  0.00    -0.616 OA
ENDBRANCH  33  34
ENDBRANCH  30  33
ENDBRANCH  29  30
ENDBRANCH  26  29
ENDBRANCH   1  26
BRANCH   3  38
ATOM     38  O3' ADP d   1       9.174 -16.749   7.214  0.00  0.00    -0.390 OA
ATOM     39  H   ADP d   1       9.904 -17.295   6.945  0.00  0.00     0.210 HD
ENDBRANCH   3  38
TORSDOF 9
