REMARK  3 active torsions:
REMARK  status: ('A' for Active; 'I' for Inactive)
REMARK    1  A    between atoms: C01_1  and  O02_2 
REMARK    2  A    between atoms: O02_2  and  C03_3 
REMARK    3  A    between atoms: C10_10  and  N11_11 
ROOT
ATOM      1  C01 94W d   1     -23.234  11.523  -4.686  0.00  0.00     0.069 A 
ATOM      2  C04 94W d   1     -22.749  10.227  -4.780  0.00  0.00    -0.032 A 
ATOM      3  C05 94W d   1     -21.375  10.049  -4.833  0.00  0.00     0.040 A 
ATOM      4  C06 94W d   1     -20.492  11.132  -4.793  0.00  0.00     0.077 A 
ATOM      5  C07 94W d   1     -21.006  12.424  -4.699  0.00  0.00    -0.051 A 
ATOM      6  C08 94W d   1     -22.377  12.614  -4.646  0.00  0.00    -0.049 A 
ATOM      7  N09 94W d   1     -19.139  10.797  -4.855  0.00  0.00    -0.224 NA
ATOM      8  C10 94W d   1     -18.990   9.500  -4.938  0.00  0.00     0.165 A 
ATOM      9  S12 94W d   1     -20.478   8.561  -4.951  0.00  0.00    -0.050 SA
ATOM     10  H   94W d   1     -23.424   9.379  -4.811  0.00  0.00     0.090 H 
ATOM     11  H   94W d   1     -20.336  13.276  -4.668  0.00  0.00     0.087 H 
ATOM     12  H   94W d   1     -22.782  13.617  -4.573  0.00  0.00     0.087 H 
ENDROOT
BRANCH   1  13
ATOM     13  O02 94W d   1     -24.587  11.730  -4.633  0.00  0.00    -0.356 OA
BRANCH  13  14
ATOM     14  C03 94W d   1     -25.354  10.869  -3.796  0.00  0.00     0.010 C 
ATOM     15  H   94W d   1     -26.416  11.152  -3.854  0.00  0.00     0.066 H 
ATOM     16  H   94W d   1     -25.006  10.962  -2.757  0.00  0.00     0.066 H 
ATOM     17  H   94W d   1     -25.233   9.828  -4.131  0.00  0.00     0.066 H 
ENDBRANCH  13  14
ENDBRANCH   1  13
BRANCH   8  18
ATOM     18  N11 94W d   1     -17.806   8.882  -5.012  0.00  0.00    -0.378 N 
ATOM     19  H   94W d   1     -16.936   9.433  -5.004  0.00  0.00     0.158 HD
ATOM     20  H   94W d   1     -17.764   7.855  -5.077  0.00  0.00     0.158 HD
ENDBRANCH   8  18
TORSDOF 3
