REMARK  3 active torsions:
REMARK  status: ('A' for Active; 'I' for Inactive)
REMARK    1  A    between atoms: C_1  and  N_2 
REMARK    2  A    between atoms: S_4  and  N1_6 
REMARK    3  A    between atoms: C3_10  and  S_4 
ROOT
ATOM      1  O   VJP d   1      53.514  40.048  67.384  0.00  0.00    -0.200 OA
ATOM      2  S   VJP d   1      53.298  39.695  66.015  0.00  0.00     0.267 S 
ATOM      3  O1  VJP d   1      52.568  38.508  65.693  0.00  0.00    -0.200 OA
ENDROOT
BRANCH   2   4
ATOM      4  N1  VJP d   1      52.490  41.021  65.343  0.00  0.00    -0.241 N 
ATOM      5  C6  VJP d   1      51.835  42.040  66.209  0.00  0.00     0.013 C 
ATOM      6  C7  VJP d   1      51.986  43.438  65.660  0.00  0.00    -0.049 C 
ATOM      7  H7  VJP d   1      52.292  42.001  67.209  0.00  0.00     0.066 H 
ATOM      8  H8  VJP d   1      50.764  41.804  66.286  0.00  0.00     0.066 H 
ATOM      9  C8  VJP d   1      51.321  43.564  64.309  0.00  0.00    -0.056 C 
ATOM     10  H9  VJP d   1      53.056  43.670  65.557  0.00  0.00     0.035 H 
ATOM     11  H10 VJP d   1      51.521  44.151  66.357  0.00  0.00     0.035 H 
ATOM     12  C9  VJP d   1      51.775  42.484  63.347  0.00  0.00     0.010 C 
ATOM     13  H11 VJP d   1      51.569  44.547  63.882  0.00  0.00     0.033 H 
ATOM     14  H12 VJP d   1      50.232  43.486  64.441  0.00  0.00     0.033 H 
ATOM     15  C10 VJP d   1      52.329  41.224  63.966  0.00  0.00     0.233 C 
ATOM     16  H13 VJP d   1      52.559  42.914  62.706  0.00  0.00     0.047 H 
ATOM     17  H14 VJP d   1      50.910  42.201  62.729  0.00  0.00     0.047 H 
ATOM     18  O2  VJP d   1      52.650  40.295  63.250  0.00  0.00    -0.272 OA
ENDBRANCH   2   4
BRANCH   2  19
ATOM     19  C3  VJP d   1      54.882  39.577  65.247  0.00  0.00     0.080 A 
ATOM     20  C2  VJP d   1      55.949  40.304  65.757  0.00  0.00    -0.058 A 
ATOM     21  C1  VJP d   1      57.189  40.217  65.145  0.00  0.00    -0.056 A 
ATOM     22  H4  VJP d   1      55.813  40.935  66.628  0.00  0.00     0.086 H 
ATOM     23  C   VJP d   1      57.384  39.392  64.029  0.00  0.00     0.025 A 
ATOM     24  H3  VJP d   1      58.019  40.795  65.535  0.00  0.00     0.086 H 
ATOM     25  C5  VJP d   1      56.296  38.654  63.550  0.00  0.00    -0.056 A 
ATOM     26  C4  VJP d   1      55.063  38.717  64.171  0.00  0.00    -0.058 A 
ATOM     27  H6  VJP d   1      56.422  38.023  62.678  0.00  0.00     0.086 H 
ATOM     28  H5  VJP d   1      54.243  38.100  63.821  0.00  0.00     0.086 H 
BRANCH  23  29
ATOM     29  N   VJP d   1      58.599  39.293  63.442  0.00  0.00    -0.399 N 
ATOM     30  H1  VJP d   1      59.392  39.842  63.804  0.00  0.00     0.156 HD
ATOM     31  H2  VJP d   1      58.731  38.669  62.633  0.00  0.00     0.156 HD
ENDBRANCH  23  29
ENDBRANCH   2  19
TORSDOF 3
