REMARK  4 active torsions:
REMARK  status: ('A' for Active; 'I' for Inactive)
REMARK    1  A    between atoms: N_1  and  CA_2 
REMARK    2  A    between atoms: CA_2  and  C_3 
REMARK    3  A    between atoms: CA_2  and  CB_5 
REMARK    4  A    between atoms: CB_5  and  CG_6 
ROOT
ATOM      1  CG  TRP d   1      37.526  23.678 136.507  0.00  0.00    -0.028 A 
ATOM      2  CD1 TRP d   1      37.305  22.422 136.014  0.00  0.00    -0.015 A 
ATOM      3  CD2 TRP d   1      36.973  23.698 137.833  0.00  0.00    -0.002 A 
ATOM      4  NE1 TRP d   1      36.634  21.660 136.951  0.00  0.00    -0.365 N 
ATOM      5  CE2 TRP d   1      36.428  22.416 138.078  0.00  0.00     0.042 A 
ATOM      6  CE3 TRP d   1      36.901  24.673 138.844  0.00  0.00    -0.070 A 
ATOM      7  CZ2 TRP d   1      35.797  22.086 139.287  0.00  0.00    -0.056 A 
ATOM      8  CZ3 TRP d   1      36.274  24.349 140.043  0.00  0.00    -0.082 A 
ATOM      9  CH2 TRP d   1      35.735  23.062 140.254  0.00  0.00    -0.081 A 
ATOM     10  H   TRP d   1      37.612  22.074 135.029  0.00  0.00     0.112 H 
ATOM     11  H   TRP d   1      36.336  20.682 136.824  0.00  0.00     0.165 HD
ATOM     12  H   TRP d   1      37.326  25.659 138.692  0.00  0.00     0.084 H 
ATOM     13  H   TRP d   1      35.375  21.101 139.452  0.00  0.00     0.086 H 
ATOM     14  H   TRP d   1      36.199  25.095 140.826  0.00  0.00     0.083 H 
ATOM     15  H   TRP d   1      35.260  22.837 141.202  0.00  0.00     0.083 H 
ENDROOT
BRANCH   1  16
ATOM     16  CB  TRP d   1      38.239  24.803 135.829  0.00  0.00    -0.003 C 
ATOM     17  H   TRP d   1      37.878  24.870 134.792  0.00  0.00     0.044 H 
ATOM     18  H   TRP d   1      38.002  25.736 136.361  0.00  0.00     0.044 H 
BRANCH  16  19
ATOM     19  CA  TRP d   1      39.779  24.630 135.802  0.00  0.00     0.186 C 
ATOM     20  H   TRP d   1      40.018  23.874 135.040  0.00  0.00     0.101 H 
BRANCH  19  21
ATOM     21  N   TRP d   1      40.291  24.133 137.081  0.00  0.00    -0.065 N 
ATOM     22  H   TRP d   1      39.826  23.270 137.317  0.00  0.00     0.275 HD
ATOM     23  H   TRP d   1      40.117  24.817 137.801  0.00  0.00     0.275 HD
ATOM     24  H   TRP d   1      41.283  23.970 137.005  0.00  0.00     0.275 HD
ENDBRANCH  19  21
BRANCH  19  25
ATOM     25  C   TRP d   1      40.438  25.936 135.378  0.00  0.00     0.204 C 
ATOM     26  O   TRP d   1      40.053  26.495 134.338  0.00  0.00    -0.646 OA
ATOM     27  OXT TRP d   1      41.348  26.441 136.051  0.00  0.00    -0.646 OA
ENDBRANCH  19  25
ENDBRANCH  16  19
ENDBRANCH   1  16
TORSDOF 4
