REMARK  7 active torsions:
REMARK  status: ('A' for Active; 'I' for Inactive)
REMARK    1  A    between atoms: C01_1  and  O05_2 
REMARK    2  A    between atoms: O05_2  and  C06_3 
REMARK    3  A    between atoms: C15_8  and  C16_9 
REMARK       I    between atoms: C16_9  and  N18_11 
REMARK    4  A    between atoms: N18_11  and  C20_12 
REMARK    5  A    between atoms: N24_15  and  C25_16 
REMARK    6  A    between atoms: N31_19  and  C32_20 
REMARK    7  A    between atoms: C39_23  and  N40_24 
ROOT
ATOM      1  C20 9F9 d   1       5.863  44.480  19.615  0.00  0.00     0.064 A 
ATOM      2  C21 9F9 d   1       5.166  44.036  18.482  0.00  0.00    -0.027 A 
ATOM      3  C23 9F9 d   1       4.253  44.883  17.876  0.00  0.00     0.067 A 
ATOM      4  N24 9F9 d   1       3.423  44.752  16.764  0.00  0.00    -0.302 N 
ATOM      5  C29 9F9 d   1       2.718  45.926  16.571  0.00  0.00     0.329 A 
ATOM      6  O30 9F9 d   1       1.920  46.154  15.686  0.00  0.00    -0.246 OA
ATOM      7  N31 9F9 d   1       3.129  46.794  17.553  0.00  0.00    -0.302 N 
ATOM      8  C36 9F9 d   1       4.081  46.170  18.356  0.00  0.00     0.067 A 
ATOM      9  C37 9F9 d   1       4.765  46.582  19.451  0.00  0.00    -0.027 A 
ATOM     10  C39 9F9 d   1       5.707  45.776  20.136  0.00  0.00     0.059 A 
ATOM     11  H   9F9 d   1       5.340  43.042  18.085  0.00  0.00     0.090 H 
ATOM     12  H   9F9 d   1       4.581  47.583  19.823  0.00  0.00     0.090 H 
ENDROOT
BRANCH   1  13
ATOM     13  N18 9F9 d   1       6.805  43.648  20.282  0.00  0.00    -0.321 N 
ATOM     14  C16 9F9 d   1       6.994  42.311  20.283  0.00  0.00     0.259 C 
ATOM     15  O17 9F9 d   1       6.311  41.567  19.597  0.00  0.00    -0.267 OA
ATOM     16  H   9F9 d   1       7.450  44.148  20.860  0.00  0.00     0.169 HD
BRANCH  14  17
ATOM     17  C15 9F9 d   1       8.107  41.795  21.160  0.00  0.00     0.065 A 
ATOM     18  C06 9F9 d   1       9.122  42.539  21.789  0.00  0.00     0.084 A 
ATOM     19  C07 9F9 d   1      10.084  41.921  22.576  0.00  0.00    -0.050 A 
ATOM     20  C09 9F9 d   1      10.040  40.550  22.752  0.00  0.00    -0.080 A 
ATOM     21  H   9F9 d   1      10.863  42.508  23.049  0.00  0.00     0.087 H 
ATOM     22  C11 9F9 d   1       9.050  39.807  22.151  0.00  0.00    -0.082 A 
ATOM     23  H   9F9 d   1      10.787  40.059  23.365  0.00  0.00     0.083 H 
ATOM     24  C13 9F9 d   1       8.092  40.411  21.362  0.00  0.00    -0.065 A 
ATOM     25  H   9F9 d   1       9.022  38.733  22.299  0.00  0.00     0.083 H 
ATOM     26  H   9F9 d   1       7.322  39.808  20.895  0.00  0.00     0.085 H 
BRANCH  18  27
ATOM     27  O05 9F9 d   1       9.116  43.889  21.588  0.00  0.00    -0.355 OA
BRANCH  27  28
ATOM     28  C01 9F9 d   1      10.203  44.642  22.140  0.00  0.00     0.010 C 
ATOM     29  H   9F9 d   1      10.069  45.708  21.902  0.00  0.00     0.066 H 
ATOM     30  H   9F9 d   1      11.151  44.287  21.709  0.00  0.00     0.066 H 
ATOM     31  H   9F9 d   1      10.224  44.510  23.232  0.00  0.00     0.066 H 
ENDBRANCH  27  28
ENDBRANCH  18  27
ENDBRANCH  14  17
ENDBRANCH   1  13
BRANCH  10  32
ATOM     32  N40 9F9 d   1       6.373  46.225  21.260  0.00  0.00    -0.379 N 
ATOM     33  C41 9F9 d   1       5.791  45.701  22.498  0.00  0.00    -0.005 C 
ATOM     34  C44 9F9 d   1       6.733  45.831  23.666  0.00  0.00    -0.050 C 
ATOM     35  H   9F9 d   1       5.549  44.638  22.354  0.00  0.00     0.064 H 
ATOM     36  H   9F9 d   1       4.870  46.260  22.721  0.00  0.00     0.064 H 
ATOM     37  C47 9F9 d   1       7.238  47.252  23.801  0.00  0.00    -0.062 C 
ATOM     38  H   9F9 d   1       7.590  45.158  23.514  0.00  0.00     0.035 H 
ATOM     39  H   9F9 d   1       6.204  45.548  24.588  0.00  0.00     0.035 H 
ATOM     40  C50 9F9 d   1       7.812  47.763  22.495  0.00  0.00    -0.050 C 
ATOM     41  H   9F9 d   1       8.022  47.281  24.572  0.00  0.00     0.033 H 
ATOM     42  H   9F9 d   1       6.403  47.901  24.103  0.00  0.00     0.033 H 
ATOM     43  C53 9F9 d   1       6.834  47.605  21.355  0.00  0.00    -0.005 C 
ATOM     44  H   9F9 d   1       8.726  47.197  22.262  0.00  0.00     0.035 H 
ATOM     45  H   9F9 d   1       8.059  48.829  22.607  0.00  0.00     0.035 H 
ATOM     46  H   9F9 d   1       5.970  48.264  21.527  0.00  0.00     0.064 H 
ATOM     47  H   9F9 d   1       7.328  47.886  20.413  0.00  0.00     0.064 H 
ENDBRANCH  10  32
BRANCH   4  48
ATOM     48  C25 9F9 d   1       3.263  43.554  15.925  0.00  0.00    -0.009 C 
ATOM     49  H   9F9 d   1       3.935  42.761  16.286  0.00  0.00     0.057 H 
ATOM     50  H   9F9 d   1       3.513  43.800  14.883  0.00  0.00     0.057 H 
ATOM     51  H   9F9 d   1       2.221  43.205  15.979  0.00  0.00     0.057 H 
ENDBRANCH   4  48
BRANCH   7  52
ATOM     52  C32 9F9 d   1       2.628  48.169  17.709  0.00  0.00    -0.009 C 
ATOM     53  H   9F9 d   1       1.883  48.379  16.927  0.00  0.00     0.057 H 
ATOM     54  H   9F9 d   1       3.465  48.877  17.618  0.00  0.00     0.057 H 
ATOM     55  H   9F9 d   1       2.161  48.279  18.699  0.00  0.00     0.057 H 
ENDBRANCH   7  52
TORSDOF 7
