REMARK  6 active torsions:
REMARK  status: ('A' for Active; 'I' for Inactive)
REMARK    1  A    between atoms: C1_1  and  C2_2 
REMARK    2  A    between atoms: C4_4  and  N1_5 
REMARK    3  A    between atoms: N1_5  and  C5_6 
REMARK    4  A    between atoms: C13_15  and  C19_23 
REMARK       I    between atoms: N2_19  and  C17_20 
REMARK    5  A    between atoms: C17_20  and  C18_21 
REMARK    6  A    between atoms: C22_26  and  C25_29 
ROOT
ATOM      1  C2  73B d   1      21.922   9.277 -10.252  0.00  0.00     0.018 C 
ATOM      2  C3  73B d   1      21.822  10.285 -11.416  0.00  0.00    -0.023 C 
ATOM      3  C4  73B d   1      20.885  11.433 -11.092  0.00  0.00     0.039 C 
ATOM      4  C11 73B d   1      19.565  10.817 -10.699  0.00  0.00    -0.008 A 
ATOM      5  C12 73B d   1      18.353  11.265 -11.254  0.00  0.00    -0.062 A 
ATOM      6  C13 73B d   1      17.121  10.676 -10.925  0.00  0.00    -0.025 A 
ATOM      7  C14 73B d   1      17.114   9.617 -10.016  0.00  0.00    -0.070 A 
ATOM      8  C15 73B d   1      18.304   9.142  -9.470  0.00  0.00    -0.056 A 
ATOM      9  C16 73B d   1      19.515   9.745  -9.812  0.00  0.00     0.046 A 
ATOM     10  N2  73B d   1      20.771   9.314  -9.311  0.00  0.00    -0.313 N 
ATOM     11  C17 73B d   1      21.037   8.950  -8.044  0.00  0.00     0.220 C 
ATOM     12  O1  73B d   1      22.140   8.486  -7.765  0.00  0.00    -0.273 OA
ATOM     13  H   73B d   1      22.824   9.535  -9.677  0.00  0.00     0.073 H 
ATOM     14  H   73B d   1      21.448   9.762 -12.308  0.00  0.00     0.039 H 
ATOM     15  H   73B d   1      22.823  10.691 -11.622  0.00  0.00     0.039 H 
ATOM     16  H   73B d   1      21.288  12.005 -10.243  0.00  0.00     0.080 H 
ATOM     17  H   73B d   1      18.370  12.090 -11.957  0.00  0.00     0.085 H 
ATOM     18  H   73B d   1      16.173   9.160  -9.732  0.00  0.00     0.084 H 
ATOM     19  H   73B d   1      18.289   8.306  -8.781  0.00  0.00     0.087 H 
ENDROOT
BRANCH   3  20
ATOM     20  N1  73B d   1      20.739  12.330 -12.223  0.00  0.00    -0.381 N 
ATOM     21  H   73B d   1      20.957  11.963 -13.160  0.00  0.00     0.160 HD
BRANCH  20  22
ATOM     22  C5  73B d   1      20.324  13.654 -12.124  0.00  0.00     0.028 A 
ATOM     23  C6  73B d   1      19.968  14.253 -10.913  0.00  0.00    -0.056 A 
ATOM     24  C7  73B d   1      19.548  15.582 -10.893  0.00  0.00    -0.060 A 
ATOM     25  H   73B d   1      20.018  13.685  -9.991  0.00  0.00     0.087 H 
ATOM     26  C8  73B d   1      19.485  16.292 -12.085  0.00  0.00     0.034 A 
ATOM     27  H   73B d   1      19.274  16.056  -9.958  0.00  0.00     0.086 H 
ATOM     28 CL1  73B d   1      18.962  17.951 -12.098  0.00  0.00    -0.084 Cl
ATOM     29  C9  73B d   1      19.836  15.701 -13.287  0.00  0.00    -0.060 A 
ATOM     30  C10 73B d   1      20.256  14.379 -13.309  0.00  0.00    -0.056 A 
ATOM     31  H   73B d   1      19.783  16.270 -14.208  0.00  0.00     0.086 H 
ATOM     32  H   73B d   1      20.531  13.912 -14.248  0.00  0.00     0.087 H 
ENDBRANCH  20  22
ENDBRANCH   3  20
BRANCH   1  33
ATOM     33  C1  73B d   1      22.092   7.853 -10.790  0.00  0.00    -0.057 C 
ATOM     34  H   73B d   1      22.943   7.823 -11.486  0.00  0.00     0.030 H 
ATOM     35  H   73B d   1      21.176   7.548 -11.317  0.00  0.00     0.030 H 
ATOM     36  H   73B d   1      22.279   7.165  -9.953  0.00  0.00     0.030 H 
ENDBRANCH   1  33
BRANCH   6  37
ATOM     37  C19 73B d   1      15.818  11.150 -11.522  0.00  0.00    -0.026 A 
ATOM     38  C20 73B d   1      15.807  11.942 -12.681  0.00  0.00    -0.071 A 
ATOM     39  C21 73B d   1      14.609  12.434 -13.202  0.00  0.00    -0.066 A 
ATOM     40  H   73B d   1      16.742  12.175 -13.178  0.00  0.00     0.084 H 
ATOM     41  C22 73B d   1      13.396  12.134 -12.586  0.00  0.00     0.040 A 
ATOM     42  H   73B d   1      14.623  13.053 -14.091  0.00  0.00     0.085 H 
ATOM     43  C23 73B d   1      13.392  11.332 -11.450  0.00  0.00    -0.066 A 
ATOM     44  C24 73B d   1      14.588  10.837 -10.928  0.00  0.00    -0.071 A 
ATOM     45  H   73B d   1      12.453  11.089 -10.966  0.00  0.00     0.085 H 
ATOM     46  H   73B d   1      14.565  10.201 -10.050  0.00  0.00     0.084 H 
BRANCH  41  47
ATOM     47  C25 73B d   1      12.091  12.651 -13.134  0.00  0.00     0.209 C 
ATOM     48  O2  73B d   1      11.024  12.333 -12.633  0.00  0.00    -0.644 OA
ATOM     49  O3  73B d   1      12.185  13.451 -14.186  0.00  0.00    -0.644 OA
ENDBRANCH  41  47
ENDBRANCH   6  37
BRANCH  11  50
ATOM     50  C18 73B d   1      20.005   9.138  -6.968  0.00  0.00    -0.002 C 
ATOM     51  H   73B d   1      20.407   8.783  -6.008  0.00  0.00     0.040 H 
ATOM     52  H   73B d   1      19.102   8.564  -7.222  0.00  0.00     0.040 H 
ATOM     53  H   73B d   1      19.750  10.205  -6.886  0.00  0.00     0.040 H 
ENDBRANCH  11  50
TORSDOF 6
