REMARK  9 active torsions:
REMARK  status: ('A' for Active; 'I' for Inactive)
REMARK    1  A    between atoms: C20_12  and  N3_2 
REMARK    2  A    between atoms: C5_4  and  C4_3 
REMARK    3  A    between atoms: C6_5  and  C11_26 
REMARK    4  A    between atoms: N2_29  and  C13_9 
REMARK    5  A    between atoms: C17_11  and  C19_33 
REMARK    6  A    between atoms: C16_31  and  C20_12 
REMARK    7  A    between atoms: C3_24  and  C2_23 
REMARK    8  A    between atoms: C12_27  and  C9_25 
REMARK       I    between atoms: C12_27  and  N2_29 
REMARK    9  A    between atoms: N4_39  and  C25_38 
ROOT
ATOM      1  C13 0LI d   1      88.141   1.203  20.550  0.00  0.00     0.035 A 
ATOM      2  C15 0LI d   1      87.720   1.463  22.892  0.00  0.00    -0.072 A 
ATOM      3  C17 0LI d   1      87.120  -0.571  21.806  0.00  0.00     0.058 A 
ATOM      4  C14 0LI d   1      88.196   1.966  21.699  0.00  0.00    -0.057 A 
ATOM      5  C16 0LI d   1      87.179   0.193  22.959  0.00  0.00    -0.017 A 
ATOM      6  C18 0LI d   1      87.602  -0.065  20.615  0.00  0.00    -0.042 A 
ATOM      7  H   0LI d   1      87.771   2.071  23.788  0.00  0.00     0.084 H 
ATOM      8  H   0LI d   1      88.615   2.965  21.664  0.00  0.00     0.086 H 
ATOM      9  H   0LI d   1      87.556  -0.673  19.719  0.00  0.00     0.088 H 
ENDROOT
BRANCH   1  10
ATOM     10  N2  0LI d   1      88.640   1.756  19.356  0.00  0.00    -0.323 N 
ATOM     11  C12 0LI d   1      88.148   1.409  18.114  0.00  0.00     0.256 C 
ATOM     12  O1  0LI d   1      87.185   0.687  17.910  0.00  0.00    -0.267 OA
ATOM     13  H   0LI d   1      89.380   2.426  19.410  0.00  0.00     0.169 HD
BRANCH  11  14
ATOM     14  C9  0LI d   1      88.881   1.939  16.946  0.00  0.00     0.033 A 
ATOM     15  C8  0LI d   1      89.970   2.771  17.089  0.00  0.00    -0.067 A 
ATOM     16  C7  0LI d   1      90.616   3.231  15.959  0.00  0.00    -0.075 A 
ATOM     17  H   0LI d   1      90.315   3.060  18.075  0.00  0.00     0.085 H 
ATOM     18  C6  0LI d   1      90.184   2.859  14.705  0.00  0.00    -0.043 A 
ATOM     19  H   0LI d   1      91.470   3.890  16.059  0.00  0.00     0.084 H 
ATOM     20  C5  0LI d   1      89.085   2.032  14.564  0.00  0.00     0.025 A 
ATOM     21  C10 0LI d   1      88.442   1.571  15.694  0.00  0.00    -0.049 A 
ATOM     22  H   0LI d   1      87.585   0.914  15.596  0.00  0.00     0.087 H 
BRANCH  18  23
ATOM     23  C11 0LI d   1      90.898   3.338  13.496  0.00  0.00    -0.050 C 
ATOM     24  H   0LI d   1      90.407   2.937  12.597  0.00  0.00     0.033 H 
ATOM     25  H   0LI d   1      91.943   2.995  13.527  0.00  0.00     0.033 H 
ATOM     26  H   0LI d   1      90.874   4.437  13.467  0.00  0.00     0.033 H 
ENDBRANCH  18  23
BRANCH  20  27
ATOM     27  C4  0LI d   1      88.628   1.595  13.271  0.00  0.00    -0.059 C 
ATOM     28  C3  0LI d   1      88.252   1.139  12.218  0.00  0.00    -0.040 C 
BRANCH  28  29
ATOM     29  C2  0LI d   1      87.806   0.499  11.015  0.00  0.00     0.131 A 
ATOM     30  N82 0LI d   1      86.877   0.950  10.118  0.00  0.00    -0.206 N 
ATOM     31  N81 0LI d   1      86.223   2.131  10.188  0.00  0.00    -0.177 NA
ATOM     32  C84 0LI d   1      86.741  -0.003   9.155  0.00  0.00     0.151 A 
ATOM     33  C83 0LI d   1      85.396   2.317   9.209  0.00  0.00     0.022 A 
ATOM     34  C82 0LI d   1      85.130   1.388   8.090  0.00  0.00    -0.061 A 
ATOM     35  H   0LI d   1      84.840   3.253   9.210  0.00  0.00     0.117 H 
ATOM     36  C81 0LI d   1      85.832   0.252   8.124  0.00  0.00    -0.035 A 
ATOM     37  H   0LI d   1      84.416   1.613   7.299  0.00  0.00     0.086 H 
ATOM     38  H   0LI d   1      85.694  -0.487   7.336  0.00  0.00     0.089 H 
ATOM     39  N1  0LI d   1      87.527  -1.035   9.378  0.00  0.00    -0.238 NA
ATOM     40  C1  0LI d   1      88.187  -0.732  10.542  0.00  0.00     0.041 A 
ATOM     41  H   0LI d   1      88.915  -1.381  11.026  0.00  0.00     0.119 H 
ENDBRANCH  28  29
ENDBRANCH  20  27
ENDBRANCH  11  14
ENDBRANCH   1  10
BRANCH   3  42
ATOM     42  C19 0LI d   1      86.553  -1.950  21.831  0.00  0.00     0.418 C 
ATOM     43  F1  0LI d   1      87.206  -2.730  22.722  0.00  0.00    -0.166 F 
ATOM     44  F2  0LI d   1      85.239  -2.006  22.132  0.00  0.00    -0.166 F 
ATOM     45  F3  0LI d   1      86.635  -2.634  20.669  0.00  0.00    -0.166 F 
ENDBRANCH   3  42
BRANCH   5  46
ATOM     46  C20 0LI d   1      86.677  -0.321  24.272  0.00  0.00     0.108 C 
ATOM     47  H   0LI d   1      85.871  -1.040  24.065  0.00  0.00     0.083 H 
ATOM     48  H   0LI d   1      87.510  -0.837  24.771  0.00  0.00     0.083 H 
BRANCH  46  49
ATOM     49  N3  0LI d   1      86.145   0.698  25.214  0.00  0.00    -0.064 N 
ATOM     50  C21 0LI d   1      84.813   1.223  24.839  0.00  0.00     0.106 C 
ATOM     51  C22 0LI d   1      84.619   2.488  25.644  0.00  0.00     0.105 C 
ATOM     52  H   0LI d   1      84.031   0.490  25.085  0.00  0.00     0.078 H 
ATOM     53  H   0LI d   1      84.780   1.447  23.762  0.00  0.00     0.078 H 
ATOM     54  N4  0LI d   1      84.573   2.069  27.075  0.00  0.00    -0.072 N 
ATOM     55  H   0LI d   1      83.677   2.979  25.360  0.00  0.00     0.078 H 
ATOM     56  H   0LI d   1      85.458   3.179  25.476  0.00  0.00     0.078 H 
ATOM     57  C23 0LI d   1      85.822   1.438  27.569  0.00  0.00     0.105 C 
ATOM     58  H   0LI d   1      83.874   1.345  27.123  0.00  0.00     0.279 HD
ATOM     59  C24 0LI d   1      86.198   0.284  26.647  0.00  0.00     0.106 C 
ATOM     60  H   0LI d   1      86.632   2.182  27.577  0.00  0.00     0.078 H 
ATOM     61  H   0LI d   1      85.664   1.058  28.589  0.00  0.00     0.078 H 
ATOM     62  H   0LI d   1      87.219  -0.049  26.887  0.00  0.00     0.078 H 
ATOM     63  H   0LI d   1      85.495  -0.546  26.807  0.00  0.00     0.078 H 
ATOM     64  H   0LI d   1      86.775   1.481  25.137  0.00  0.00     0.280 HD
BRANCH  54  65
ATOM     65  C25 0LI d   1      84.081   3.161  27.944  0.00  0.00     0.066 C 
ATOM     66  H   0LI d   1      83.157   3.580  27.519  0.00  0.00     0.068 H 
ATOM     67  H   0LI d   1      84.845   3.950  28.010  0.00  0.00     0.068 H 
ATOM     68  H   0LI d   1      83.875   2.765  28.949  0.00  0.00     0.068 H 
ENDBRANCH  54  65
ENDBRANCH  46  49
ENDBRANCH   5  46
TORSDOF 9
