REMARK  11 active torsions:
REMARK  status: ('A' for Active; 'I' for Inactive)
REMARK    1  A    between atoms: SAJ_2  and  CAK_4 
REMARK    2  A    between atoms: SAJ_2  and  CAI_10 
REMARK    3  A    between atoms: CAI_10  and  CAB_11 
REMARK    4  A    between atoms: CAF_13  and  CAG_14 
REMARK    5  A    between atoms: CAD_16  and  OAH_18 
REMARK    6  A    between atoms: OAH_18  and  CAL_19 
REMARK    7  A    between atoms: CAL_19  and  CAM_20 
REMARK    8  A    between atoms: CAU_23  and  CAX_26 
REMARK    9  A    between atoms: CAX_26  and  NAY_27 
REMARK   10  A    between atoms: CAZ_28  and  CBD_29 
REMARK   11  A    between atoms: CBD_29  and  OBE_30 
ROOT
ATOM      1  CAL GYR d   1     -24.949   8.433 -15.698  0.00  0.00     0.050 C 
ATOM      2  H   GYR d   1     -24.167   8.436 -16.472  0.00  0.00     0.082 H 
ATOM      3  H   GYR d   1     -25.824   7.875 -16.062  0.00  0.00     0.082 H 
ENDROOT
BRANCH   1   4
ATOM      4  OAH GYR d   1     -25.347   9.804 -15.428  0.00  0.00    -0.347 OA
BRANCH   4   5
ATOM      5  CAD GYR d   1     -25.710  10.623 -16.491  0.00  0.00     0.070 A 
ATOM      6  CAE GYR d   1     -25.698  10.261 -17.833  0.00  0.00    -0.045 A 
ATOM      7  CAF GYR d   1     -25.974  11.211 -18.819  0.00  0.00    -0.059 A 
ATOM      8  H   GYR d   1     -25.474   9.239 -18.115  0.00  0.00     0.088 H 
ATOM      9  CAA GYR d   1     -26.267  12.507 -18.431  0.00  0.00    -0.070 A 
ATOM     10  CAB GYR d   1     -26.273  12.881 -17.094  0.00  0.00    -0.041 A 
ATOM     11  H   GYR d   1     -26.497  13.247 -19.189  0.00  0.00     0.085 H 
ATOM     12  CAC GYR d   1     -26.027  11.922 -16.115  0.00  0.00    -0.044 A 
ATOM     13  H   GYR d   1     -26.083  12.188 -15.066  0.00  0.00     0.088 H 
BRANCH   7  14
ATOM     14  CAG GYR d   1     -25.881  10.857 -20.283  0.00  0.00    -0.051 C 
ATOM     15  H   GYR d   1     -25.642   9.789 -20.387  0.00  0.00     0.033 H 
ATOM     16  H   GYR d   1     -25.090  11.458 -20.756  0.00  0.00     0.033 H 
ATOM     17  H   GYR d   1     -26.843  11.066 -20.773  0.00  0.00     0.033 H 
ENDBRANCH   7  14
BRANCH  10  18
ATOM     18  CAI GYR d   1     -26.302  14.343 -16.747  0.00  0.00     0.057 C 
ATOM     19  H   GYR d   1     -25.824  14.474 -15.765  0.00  0.00     0.064 H 
ATOM     20  H   GYR d   1     -25.729  14.890 -17.510  0.00  0.00     0.064 H 
BRANCH  18  21
ATOM     21  SAJ GYR d   1     -27.949  15.044 -16.670  0.00  0.00     0.179 S 
ATOM     22  OBG GYR d   1     -27.805  16.483 -16.730  0.00  0.00    -0.222 OA
ATOM     23  OBF GYR d   1     -28.783  14.371 -17.628  0.00  0.00    -0.222 OA
BRANCH  21  24
ATOM     24  CAK GYR d   1     -28.523  14.636 -15.048  0.00  0.00     0.059 A 
ATOM     25  CAR GYR d   1     -28.174  15.445 -13.983  0.00  0.00    -0.062 A 
ATOM     26  CAQ GYR d   1     -28.681  15.160 -12.729  0.00  0.00    -0.082 A 
ATOM     27  H   GYR d   1     -27.512  16.291 -14.129  0.00  0.00     0.085 H 
ATOM     28  CAP GYR d   1     -29.496  14.081 -12.540  0.00  0.00    -0.083 A 
ATOM     29  H   GYR d   1     -28.430  15.798 -11.889  0.00  0.00     0.083 H 
ATOM     30  CAO GYR d   1     -29.842  13.278 -13.606  0.00  0.00    -0.082 A 
ATOM     31  H   GYR d   1     -29.872  13.855 -11.549  0.00  0.00     0.083 H 
ATOM     32  CAN GYR d   1     -29.362  13.551 -14.872  0.00  0.00    -0.062 A 
ATOM     33  H   GYR d   1     -30.495  12.427 -13.450  0.00  0.00     0.083 H 
ATOM     34  H   GYR d   1     -29.638  12.925 -15.713  0.00  0.00     0.085 H 
ENDBRANCH  21  24
ENDBRANCH  18  21
ENDBRANCH  10  18
ENDBRANCH   4   5
ENDBRANCH   1   4
BRANCH   1  35
ATOM     35  CAM GYR d   1     -24.411   7.746 -14.464  0.00  0.00    -0.034 A 
ATOM     36  CAS GYR d   1     -24.653   6.403 -14.244  0.00  0.00    -0.074 A 
ATOM     37  CAT GYR d   1     -24.285   5.792 -13.052  0.00  0.00    -0.075 A 
ATOM     38  H   GYR d   1     -25.139   5.816 -15.015  0.00  0.00     0.084 H 
ATOM     39  CAU GYR d   1     -23.653   6.505 -12.044  0.00  0.00    -0.033 A 
ATOM     40  H   GYR d   1     -24.496   4.739 -12.907  0.00  0.00     0.084 H 
ATOM     41  CAV GYR d   1     -23.375   7.840 -12.280  0.00  0.00    -0.075 A 
ATOM     42  CAW GYR d   1     -23.748   8.452 -13.470  0.00  0.00    -0.074 A 
ATOM     43  H   GYR d   1     -22.857   8.418 -11.523  0.00  0.00     0.084 H 
ATOM     44  H   GYR d   1     -23.517   9.500 -13.625  0.00  0.00     0.084 H 
BRANCH  39  45
ATOM     45  CAX GYR d   1     -23.275   5.852 -10.723  0.00  0.00     0.107 C 
ATOM     46  H   GYR d   1     -22.793   6.618 -10.098  0.00  0.00     0.083 H 
ATOM     47  H   GYR d   1     -22.554   5.051 -10.941  0.00  0.00     0.083 H 
BRANCH  45  48
ATOM     48  NAY GYR d   1     -24.428   5.233  -9.900  0.00  0.00    -0.061 N 
ATOM     49  CAZ GYR d   1     -25.430   6.164  -9.191  0.00  0.00     0.124 C 
ATOM     50  CBA GYR d   1     -25.442   5.865  -7.691  0.00  0.00    -0.035 C 
ATOM     51  H   GYR d   1     -25.077   7.197  -9.325  0.00  0.00     0.087 H 
ATOM     52  CBB GYR d   1     -24.162   5.139  -7.487  0.00  0.00    -0.040 C 
ATOM     53  H   GYR d   1     -26.302   5.235  -7.420  0.00  0.00     0.036 H 
ATOM     54  H   GYR d   1     -25.468   6.794  -7.103  0.00  0.00     0.036 H 
ATOM     55  CBC GYR d   1     -23.995   4.330  -8.764  0.00  0.00     0.084 C 
ATOM     56  H   GYR d   1     -24.222   4.478  -6.610  0.00  0.00     0.035 H 
ATOM     57  H   GYR d   1     -23.328   5.844  -7.358  0.00  0.00     0.035 H 
ATOM     58  H   GYR d   1     -22.943   4.034  -8.892  0.00  0.00     0.076 H 
ATOM     59  H   GYR d   1     -24.627   3.431  -8.730  0.00  0.00     0.076 H 
ATOM     60  H   GYR d   1     -24.949   4.679 -10.562  0.00  0.00     0.280 HD
BRANCH  49  61
ATOM     61  CBD GYR d   1     -26.823   6.083  -9.787  0.00  0.00     0.043 C 
ATOM     62  H   GYR d   1     -26.757   6.288 -10.866  0.00  0.00     0.077 H 
ATOM     63  H   GYR d   1     -27.456   6.843  -9.307  0.00  0.00     0.077 H 
BRANCH  61  64
ATOM     64  OBE GYR d   1     -27.424   4.806  -9.602  0.00  0.00    -0.399 OA
ATOM     65  H   GYR d   1     -26.888   4.142 -10.020  0.00  0.00     0.209 HD
ENDBRANCH  61  64
ENDBRANCH  49  61
ENDBRANCH  45  48
ENDBRANCH  39  45
ENDBRANCH   1  35
TORSDOF 11
