REMARK  10 active torsions:
REMARK  status: ('A' for Active; 'I' for Inactive)
REMARK    1  A    between atoms: O3_15  and  C1_1 
REMARK    2  A    between atoms: C2_2  and  O2_7 
REMARK    3  A    between atoms: C3_3  and  O3_8 
REMARK    4  A    between atoms: C4_4  and  O4_9 
REMARK    5  A    between atoms: C5_5  and  C6_6 
REMARK    6  A    between atoms: C6_6  and  O6_11 
REMARK    7  A    between atoms: C4_13  and  O4_12 
REMARK    8  A    between atoms: C3_14  and  O3_15 
REMARK    9  A    between atoms: C5_19  and  C6_20 
REMARK   10  A    between atoms: C6_20  and  O6_21 
ROOT
ATOM      1  O3  IFM d   1      22.990   2.850  -6.385  0.00  0.00    -0.349 OA
ENDROOT
BRANCH   1   2
ATOM      2  C1  MAN d   1      21.697   3.036  -6.963  0.00  0.00     0.159 C 
ATOM      3  C2  MAN d   1      21.589   2.042  -8.125  0.00  0.00     0.110 C 
ATOM      4  C3  MAN d   1      22.376   2.534  -9.341  0.00  0.00     0.092 C 
ATOM      5  H   MAN d   1      21.949   1.048  -7.820  0.00  0.00     0.094 H 
ATOM      6  C4  MAN d   1      22.026   3.987  -9.672  0.00  0.00     0.090 C 
ATOM      7  H   MAN d   1      23.449   2.484  -9.105  0.00  0.00     0.091 H 
ATOM      8  C5  MAN d   1      22.203   4.858  -8.430  0.00  0.00     0.089 C 
ATOM      9  H   MAN d   1      20.971   4.023  -9.980  0.00  0.00     0.091 H 
ATOM     10  O5  MAN d   1      21.368   4.347  -7.402  0.00  0.00    -0.348 OA
ATOM     11  H   MAN d   1      23.253   4.819  -8.103  0.00  0.00     0.090 H 
ATOM     12  H   MAN d   1      20.955   2.765  -6.198  0.00  0.00     0.133 H 
BRANCH   3  13
ATOM     13  O2  MAN d   1      20.228   2.005  -8.462  0.00  0.00    -0.388 OA
ATOM     14  H   MAN d   1      19.939   2.877  -8.705  0.00  0.00     0.210 HD
ENDBRANCH   3  13
BRANCH   4  15
ATOM     15  O3  MAN d   1      22.119   1.686 -10.445  0.00  0.00    -0.390 OA
ATOM     16  H   MAN d   1      21.198   1.734 -10.672  0.00  0.00     0.210 HD
ENDBRANCH   4  15
BRANCH   6  17
ATOM     17  O4  MAN d   1      22.815   4.503 -10.733  0.00  0.00    -0.390 OA
ATOM     18  H   MAN d   1      22.540   5.391 -10.928  0.00  0.00     0.210 HD
ENDBRANCH   6  17
BRANCH   8  19
ATOM     19  C6  MAN d   1      21.828   6.310  -8.738  0.00  0.00     0.043 C 
ATOM     20  H   MAN d   1      20.753   6.369  -8.962  0.00  0.00     0.078 H 
ATOM     21  H   MAN d   1      22.404   6.658  -9.609  0.00  0.00     0.078 H 
BRANCH  19  22
ATOM     22  O6  MAN d   1      22.118   7.129  -7.631  0.00  0.00    -0.398 OA
ATOM     23  H   MAN d   1      23.047   7.080  -7.437  0.00  0.00     0.209 HD
ENDBRANCH  19  22
ENDBRANCH   8  19
ENDBRANCH   1   2
BRANCH   1  24
ATOM     24  C3  IFM d   1      23.100   3.369  -5.053  0.00  0.00     0.090 C 
ATOM     25  C4  IFM d   1      24.301   2.717  -4.360  0.00  0.00     0.069 C 
ATOM     26  C5  IFM d   1      24.526   3.336  -2.975  0.00  0.00     0.017 C 
ATOM     27  H   MAN d   1      25.202   2.874  -4.971  0.00  0.00     0.087 H 
ATOM     28  C1  IFM d   1      24.621   4.869  -3.075  0.00  0.00     0.089 C 
ATOM     29  H   MAN d   1      23.652   3.086  -2.356  0.00  0.00     0.049 H 
ATOM     30  N   IFM d   1      23.435   5.387  -3.747  0.00  0.00    -0.072 N 
ATOM     31  H   MAN d   1      24.687   5.299  -2.065  0.00  0.00     0.076 H 
ATOM     32  H   MAN d   1      25.518   5.144  -3.650  0.00  0.00     0.076 H 
ATOM     33  C2  IFM d   1      23.218   4.901  -5.101  0.00  0.00     0.108 C 
ATOM     34  H   MAN d   1      22.631   5.135  -3.194  0.00  0.00     0.277 HD
ATOM     35  H   MAN d   1      23.515   6.391  -3.787  0.00  0.00     0.277 HD
ATOM     36  H   MAN d   1      22.291   5.333  -5.507  0.00  0.00     0.079 H 
ATOM     37  H   MAN d   1      24.066   5.189  -5.739  0.00  0.00     0.079 H 
ATOM     38  H   MAN d   1      22.190   3.109  -4.492  0.00  0.00     0.090 H 
BRANCH  25  39
ATOM     39  O4  IFM d   1      24.045   1.304  -4.244  0.00  0.00    -0.392 OA
ATOM     40  H   MAN d   1      24.782   0.884  -3.816  0.00  0.00     0.210 HD
ENDBRANCH  25  39
BRANCH  26  41
ATOM     41  C6  IFM d   1      25.764   2.794  -2.267  0.00  0.00     0.024 C 
ATOM     42  H   MAN d   1      25.623   1.722  -2.065  0.00  0.00     0.074 H 
ATOM     43  H   MAN d   1      25.899   3.332  -1.317  0.00  0.00     0.074 H 
BRANCH  41  44
ATOM     44  O6  IFM d   1      26.940   2.969  -3.079  0.00  0.00    -0.400 OA
ATOM     45  H   MAN d   1      27.068   3.894  -3.253  0.00  0.00     0.209 HD
ENDBRANCH  41  44
ENDBRANCH  26  41
ENDBRANCH   1  24
TORSDOF 10
