REMARK  0 active torsions:
REMARK  status: ('A' for Active; 'I' for Inactive)
ROOT
ATOM      1  C1  BNZ d   1     -32.969   6.196   2.877  0.00  0.00    -0.083 A 
ATOM      2  C2  BNZ d   1     -32.945   7.046   3.973  0.00  0.00    -0.083 A 
ATOM      3  C3  BNZ d   1     -33.719   6.798   5.113  0.00  0.00    -0.083 A 
ATOM      4  C4  BNZ d   1     -34.540   5.680   5.143  0.00  0.00    -0.083 A 
ATOM      5  C5  BNZ d   1     -34.545   4.825   4.044  0.00  0.00    -0.083 A 
ATOM      6  C6  BNZ d   1     -33.787   5.069   2.915  0.00  0.00    -0.083 A 
ATOM      7  H1  BNZ d   1     -32.361   6.405   2.005  0.00  0.00     0.083 H 
ATOM      8  H2  BNZ d   1     -32.311   7.925   3.946  0.00  0.00     0.083 H 
ATOM      9  H3  BNZ d   1     -33.677   7.471   5.962  0.00  0.00     0.083 H 
ATOM     10  H4  BNZ d   1     -35.165   5.476   6.005  0.00  0.00     0.083 H 
ATOM     11  H5  BNZ d   1     -35.166   3.937   4.075  0.00  0.00     0.083 H 
ATOM     12  H6  BNZ d   1     -33.828   4.392   2.069  0.00  0.00     0.083 H 
ENDROOT
TORSDOF 0
