REMARK  29 active torsions:
REMARK  status: ('A' for Active; 'I' for Inactive)
REMARK    1  A    between atoms: C6_3  and  N6_64 
REMARK    2  A    between atoms: CCI_11  and  CAC_12 
REMARK    3  A    between atoms: CBB_19  and  CCC_18 
REMARK    4  A    between atoms: CAY_20  and  CBB_19 
REMARK    5  A    between atoms: CBS_21  and  CAY_20 
REMARK    6  A    between atoms: SBQ_23  and  CBS_21 
REMARK    7  A    between atoms: CAW_24  and  SBQ_23 
REMARK    8  A    between atoms: CAU_25  and  CAW_24 
REMARK    9  A    between atoms: NBJ_26  and  CAU_25 
REMARK       I    between atoms: CBR_27  and  NBJ_26 
REMARK   10  A    between atoms: CAX_29  and  CBR_27 
REMARK   11  A    between atoms: CAV_30  and  CAX_29 
REMARK   12  A    between atoms: NBK_31  and  CAV_30 
REMARK       I    between atoms: CBV_32  and  NBK_31 
REMARK   13  A    between atoms: CBZ_34  and  CBV_32 
REMARK   14  A    between atoms: CBZ_34  and  OAM_35 
REMARK   15  A    between atoms: CCH_36  and  CBZ_34 
REMARK   16  A    between atoms: CCH_36  and  CAA_37 
REMARK   17  A    between atoms: CCH_36  and  CAB_38 
REMARK   18  A    between atoms: CBF_39  and  CCH_36 
REMARK   19  A    between atoms: OBM_40  and  CBF_39 
REMARK   20  A    between atoms: PCL_41  and  OBM_40 
REMARK   21  A    between atoms: OBP_44  and  PCL_41 
REMARK   22  A    between atoms: PCK_45  and  OBP_44 
REMARK   23  A    between atoms: O5'_48  and  PCK_45 
REMARK   24  A    between atoms: C5'_49  and  O5'_48 
REMARK   25  A    between atoms: C4'_50  and  C5'_49 
REMARK   26  A    between atoms: C3'_52  and  O3'_53 
REMARK   27  A    between atoms: O3'_53  and  PCJ_54 
REMARK   28  A    between atoms: C2'_58  and  O2'_59 
REMARK   29  A    between atoms: C1'_60  and  N9_61 
ROOT
ATOM      1  CBZ UCA d   1      -6.722  45.074  17.230  0.00  0.00     0.120 C 
ATOM      2  H   UCA d   1      -6.658  43.985  17.086  0.00  0.00     0.099 H 
ENDROOT
BRANCH   1   3
ATOM      3  CBV UCA d   1      -8.039  45.488  16.624  0.00  0.00     0.247 C 
ATOM      4  NBK UCA d   1      -8.220  44.623  15.646  0.00  0.00    -0.358 N 
ATOM      5  H   UCA d   1      -7.548  43.908  15.454  0.00  0.00     0.162 HD
ATOM      6  OAI UCA d   1      -8.626  46.506  16.923  0.00  0.00    -0.271 OA
BRANCH   4   7
ATOM      7  CAV UCA d   1      -9.492  44.754  14.820  0.00  0.00     0.003 C 
ATOM      8  H   UCA d   1      -9.975  45.727  14.993  0.00  0.00     0.064 H 
ATOM      9  H   UCA d   1      -9.278  44.637  13.747  0.00  0.00     0.064 H 
BRANCH   7  10
ATOM     10  CAX UCA d   1     -10.322  43.669  15.305  0.00  0.00     0.024 C 
ATOM     11  H   UCA d   1     -11.033  43.382  14.517  0.00  0.00     0.049 H 
ATOM     12  H   UCA d   1      -9.681  42.810  15.552  0.00  0.00     0.049 H 
BRANCH  10  13
ATOM     13  CBR UCA d   1     -11.066  44.064  16.495  0.00  0.00     0.219 C 
ATOM     14  NBJ UCA d   1     -11.647  43.083  17.219  0.00  0.00    -0.360 N 
ATOM     15  H   UCA d   1     -11.572  42.146  16.878  0.00  0.00     0.162 HD
ATOM     16  OAE UCA d   1     -11.261  45.210  16.866  0.00  0.00    -0.274 OA
BRANCH  14  17
ATOM     17  CAU UCA d   1     -12.353  43.291  18.425  0.00  0.00     0.003 C 
ATOM     18  H   UCA d   1     -12.250  44.350  18.705  0.00  0.00     0.065 H 
ATOM     19  H   UCA d   1     -13.414  43.060  18.246  0.00  0.00     0.065 H 
BRANCH  17  20
ATOM     20  CAW UCA d   1     -11.889  42.472  19.551  0.00  0.00    -0.002 C 
ATOM     21  H   UCA d   1     -12.002  43.007  20.505  0.00  0.00     0.052 H 
ATOM     22  H   UCA d   1     -12.433  41.517  19.599  0.00  0.00     0.052 H 
BRANCH  20  23
ATOM     23  SBQ UCA d   1     -10.173  42.216  19.157  0.00  0.00    -0.091 SA
BRANCH  23  24
ATOM     24  CBS UCA d   1      -9.452  43.102  20.466  0.00  0.00     0.186 C 
ATOM     25  OAF UCA d   1      -9.980  44.128  20.821  0.00  0.00    -0.286 OA
BRANCH  24  26
ATOM     26  CAY UCA d   1      -8.176  42.553  21.044  0.00  0.00     0.001 C 
ATOM     27  H   UCA d   1      -8.391  41.714  21.722  0.00  0.00     0.045 H 
ATOM     28  H   UCA d   1      -7.505  42.214  20.241  0.00  0.00     0.045 H 
BRANCH  26  29
ATOM     29  CBB UCA d   1      -7.550  43.703  21.807  0.00  0.00    -0.048 C 
ATOM     30  H   UCA d   1      -7.037  44.443  21.176  0.00  0.00     0.034 H 
ATOM     31  H   UCA d   1      -8.235  44.220  22.495  0.00  0.00     0.034 H 
BRANCH  29  32
ATOM     32  CCC UCA d   1      -6.615  42.683  22.484  0.00  0.00     0.009 C 
ATOM     33  CBT UCA d   1      -6.913  43.339  23.881  0.00  0.00     0.131 C 
ATOM     34  OAG UCA d   1      -7.968  44.026  24.029  0.00  0.00    -0.298 OA
ATOM     35  CBA UCA d   1      -5.773  43.681  24.914  0.00  0.00    -0.008 C 
ATOM     36  CBD UCA d   1      -4.411  43.964  24.316  0.00  0.00    -0.045 C 
ATOM     37  H   UCA d   1      -5.670  42.827  25.600  0.00  0.00     0.044 H 
ATOM     38  H   UCA d   1      -6.085  44.571  25.480  0.00  0.00     0.044 H 
ATOM     39  CCI UCA d   1      -4.117  43.026  23.161  0.00  0.00     0.021 C 
ATOM     40  H   UCA d   1      -3.643  43.830  25.092  0.00  0.00     0.035 H 
ATOM     41  H   UCA d   1      -4.387  45.002  23.951  0.00  0.00     0.035 H 
ATOM     42  CBU UCA d   1      -2.889  43.245  22.252  0.00  0.00     0.135 C 
ATOM     43  CCD UCA d   1      -5.183  43.165  22.092  0.00  0.00    -0.030 C 
ATOM     44  OAH UCA d   1      -1.771  43.702  22.493  0.00  0.00    -0.297 OA
ATOM     45  CAZ UCA d   1      -3.233  43.138  20.789  0.00  0.00    -0.009 C 
ATOM     46  CBC UCA d   1      -4.628  42.548  20.806  0.00  0.00    -0.054 C 
ATOM     47  H   UCA d   1      -2.530  42.474  20.266  0.00  0.00     0.044 H 
ATOM     48  H   UCA d   1      -3.229  44.128  20.309  0.00  0.00     0.044 H 
ATOM     49  H   UCA d   1      -4.603  41.450  20.862  0.00  0.00     0.034 H 
ATOM     50  H   UCA d   1      -5.209  42.857  19.925  0.00  0.00     0.034 H 
ATOM     51  H   UCA d   1      -5.290  44.243  21.901  0.00  0.00     0.043 H 
ATOM     52  H   UCA d   1      -6.812  41.609  22.352  0.00  0.00     0.052 H 
BRANCH  39  53
ATOM     53  CAC UCA d   1      -3.842  41.545  23.533  0.00  0.00    -0.062 C 
ATOM     54  H   UCA d   1      -3.643  40.968  22.618  0.00  0.00     0.029 H 
ATOM     55  H   UCA d   1      -4.720  41.127  24.047  0.00  0.00     0.029 H 
ATOM     56  H   UCA d   1      -2.967  41.490  24.198  0.00  0.00     0.029 H 
ENDBRANCH  39  53
ENDBRANCH  29  32
ENDBRANCH  26  29
ENDBRANCH  24  26
ENDBRANCH  23  24
ENDBRANCH  20  23
ENDBRANCH  17  20
ENDBRANCH  14  17
ENDBRANCH  10  13
ENDBRANCH   7  10
ENDBRANCH   4   7
ENDBRANCH   1   3
BRANCH   1  57
ATOM     57  OAM UCA d   1      -6.753  45.357  18.671  0.00  0.00    -0.385 OA
ATOM     58  H   UCA d   1      -6.892  46.287  18.807  0.00  0.00     0.210 HD
ENDBRANCH   1  57
BRANCH   1  59
ATOM     59  CCH UCA d   1      -5.391  45.656  16.713  0.00  0.00     0.009 C 
BRANCH  59  60
ATOM     60  CAA UCA d   1      -4.227  45.059  17.464  0.00  0.00    -0.065 C 
ATOM     61  H   UCA d   1      -3.287  45.485  17.083  0.00  0.00     0.028 H 
ATOM     62  H   UCA d   1      -4.219  43.968  17.322  0.00  0.00     0.028 H 
ATOM     63  H   UCA d   1      -4.325  45.288  18.535  0.00  0.00     0.028 H 
ENDBRANCH  59  60
BRANCH  59  64
ATOM     64  CAB UCA d   1      -5.397  47.149  16.962  0.00  0.00    -0.065 C 
ATOM     65  H   UCA d   1      -6.239  47.607  16.423  0.00  0.00     0.028 H 
ATOM     66  H   UCA d   1      -4.452  47.584  16.604  0.00  0.00     0.028 H 
ATOM     67  H   UCA d   1      -5.504  47.341  18.040  0.00  0.00     0.028 H 
ENDBRANCH  59  64
BRANCH  59  68
ATOM     68  CBF UCA d   1      -5.271  45.343  15.235  0.00  0.00     0.041 C 
ATOM     69  H   UCA d   1      -4.399  45.877  14.830  0.00  0.00     0.076 H 
ATOM     70  H   UCA d   1      -6.182  45.689  14.725  0.00  0.00     0.076 H 
BRANCH  68  71
ATOM     71  OBM UCA d   1      -5.107  43.925  14.984  0.00  0.00    -0.289 OA
BRANCH  71  72
ATOM     72  PCL UCA d   1      -4.446  43.460  13.604  0.00  0.00     0.417 P 
ATOM     73  OAR UCA d   1      -3.092  44.067  13.347  0.00  0.00    -0.624 OA
ATOM     74  OAL UCA d   1      -4.482  41.928  13.593  0.00  0.00    -0.624 OA
BRANCH  72  75
ATOM     75  OBP UCA d   1      -5.374  43.911  12.383  0.00  0.00    -0.180 OA
BRANCH  75  76
ATOM     76  PCK UCA d   1      -6.804  43.240  11.987  0.00  0.00     0.417 P 
ATOM     77  OAQ UCA d   1      -7.630  44.366  11.393  0.00  0.00    -0.624 OA
ATOM     78  OAK UCA d   1      -7.462  42.623  13.234  0.00  0.00    -0.624 OA
BRANCH  76  79
ATOM     79  O5' UCA d   1      -6.533  42.009  10.914  0.00  0.00    -0.287 OA
BRANCH  79  80
ATOM     80  C5' UCA d   1      -5.989  42.318   9.646  0.00  0.00     0.058 C 
ATOM     81  H   UCA d   1      -5.091  42.945   9.751  0.00  0.00     0.079 H 
ATOM     82  H   UCA d   1      -6.730  42.839   9.022  0.00  0.00     0.079 H 
BRANCH  80  83
ATOM     83  C4' UCA d   1      -5.635  40.975   9.046  0.00  0.00     0.090 C 
ATOM     84  O4' UCA d   1      -6.906  40.388   8.671  0.00  0.00    -0.353 OA
ATOM     85  C1' UCA d   1      -6.604  39.666   7.488  0.00  0.00     0.140 C 
ATOM     86  C2' UCA d   1      -5.683  40.567   6.733  0.00  0.00     0.106 C 
ATOM     87  H   UCA d   1      -6.243  38.645   7.683  0.00  0.00     0.122 H 
ATOM     88  C3' UCA d   1      -4.721  41.024   7.800  0.00  0.00     0.107 C 
ATOM     89  H   UCA d   1      -6.225  41.380   6.227  0.00  0.00     0.093 H 
ATOM     90  H   UCA d   1      -4.471  42.076   7.599  0.00  0.00     0.092 H 
ATOM     91  H   UCA d   1      -5.140  40.360   9.812  0.00  0.00     0.090 H 
BRANCH  85  92
ATOM     92  N9  UCA d   1      -7.716  39.762   6.512  0.00  0.00    -0.294 N 
ATOM     93  C4  UCA d   1      -8.065  38.804   5.609  0.00  0.00     0.167 A 
ATOM     94  C5  UCA d   1      -9.150  39.276   4.856  0.00  0.00     0.149 A 
ATOM     95  N3  UCA d   1      -7.556  37.563   5.358  0.00  0.00    -0.222 NA
ATOM     96  C6  UCA d   1      -9.659  38.448   3.829  0.00  0.00     0.155 A 
ATOM     97  N7  UCA d   1      -9.438  40.547   5.339  0.00  0.00    -0.236 NA
ATOM     98  N1  UCA d   1      -9.102  37.256   3.638  0.00  0.00    -0.222 NA
ATOM     99  C2  UCA d   1      -8.074  36.839   4.399  0.00  0.00     0.091 A 
ATOM    100  H   UCA d   1      -7.655  35.857   4.209  0.00  0.00     0.146 H 
ATOM    101  C8  UCA d   1      -8.561  40.803   6.334  0.00  0.00     0.071 A 
ATOM    102  H   UCA d   1      -8.537  41.724   6.915  0.00  0.00     0.144 H 
BRANCH  96 103
ATOM    103  N6  UCA d   1     -10.674  38.864   3.059  0.00  0.00    -0.382 N 
ATOM    104  H   UCA d   1     -11.038  38.254   2.313  0.00  0.00     0.157 HD
ATOM    105  H   UCA d   1     -11.090  39.794   3.213  0.00  0.00     0.157 HD
ENDBRANCH  96 103
ENDBRANCH  85  92
BRANCH  86 106
ATOM    106  O2' UCA d   1      -4.775  39.843   5.816  0.00  0.00    -0.388 OA
ATOM    107  H   UCA d   1      -4.361  39.127   6.283  0.00  0.00     0.210 HD
ENDBRANCH  86 106
BRANCH  88 108
ATOM    108  O3' UCA d   1      -3.331  40.296   7.917  0.00  0.00    -0.272 OA
BRANCH 108 109
ATOM    109  PCJ UCA d   1      -1.732  40.386   8.321  0.00  0.00     0.422 P 
ATOM    110  OAO UCA d   1      -1.086  39.275   7.515  0.00  0.00    -0.617 OA
ATOM    111  OAP UCA d   1      -1.550  40.138   9.805  0.00  0.00    -0.617 OA
ATOM    112  OAJ UCA d   1      -1.143  41.731   7.943  0.00  0.00    -0.617 OA
ENDBRANCH 108 109
ENDBRANCH  88 108
ENDBRANCH  80  83
ENDBRANCH  79  80
ENDBRANCH  76  79
ENDBRANCH  75  76
ENDBRANCH  72  75
ENDBRANCH  71  72
ENDBRANCH  68  71
ENDBRANCH  59  68
ENDBRANCH   1  59
TORSDOF 29
