REMARK  10 active torsions:
REMARK  status: ('A' for Active; 'I' for Inactive)
REMARK    1  A    between atoms: CAA_1  and  CBB_2 
REMARK    2  A    between atoms: CBB_2  and  CAB_3 
REMARK    3  A    between atoms: CBB_2  and  CAC_4 
REMARK    4  A    between atoms: CBB_2  and  CAN_5 
REMARK    5  A    between atoms: CAN_5  and  CAT_6 
REMARK       I    between atoms: CAT_6  and  N_8 
REMARK    6  A    between atoms: CG_10  and  OD1_11 
REMARK    7  A    between atoms: CA_13  and  C_14 
REMARK       I    between atoms: C_14  and  NAR_16 
REMARK    8  A    between atoms: NAR_16  and  CAM_17 
REMARK    9  A    between atoms: CAM_17  and  CAV_18 
REMARK   10  A    between atoms: CAW_23  and  CAX_24 
ROOT
ATOM      1  CAT 3JG d   1      12.574  54.112  92.308  0.00  0.00     0.221 C 
ATOM      2  OAD 3JG d   1      11.370  53.951  92.085  0.00  0.00    -0.273 OA
ATOM      3  N   3JG d   1      13.474  54.385  91.315  0.00  0.00    -0.336 N 
ATOM      4  CD2 3JG d   1      14.939  54.678  91.381  0.00  0.00     0.022 C 
ATOM      5  CG  3JG d   1      15.207  55.580  90.176  0.00  0.00     0.053 C 
ATOM      6  CB  3JG d   1      14.286  55.013  89.115  0.00  0.00    -0.012 C 
ATOM      7  CA  3JG d   1      13.025  54.534  89.879  0.00  0.00     0.094 C 
ATOM      8  H   3JG d   1      15.524  53.749  91.309  0.00  0.00     0.068 H 
ATOM      9  H   3JG d   1      15.189  55.197  92.318  0.00  0.00     0.068 H 
ATOM     10  H   3JG d   1      16.260  55.527  89.861  0.00  0.00     0.085 H 
ATOM     11  H   3JG d   1      14.767  54.169  88.599  0.00  0.00     0.040 H 
ATOM     12  H   3JG d   1      14.020  55.788  88.382  0.00  0.00     0.040 H 
ATOM     13  H   3JG d   1      12.230  55.292  89.822  0.00  0.00     0.088 H 
ENDROOT
BRANCH   7  14
ATOM     14  C   3JG d   1      12.553  53.349  89.295  0.00  0.00     0.241 C 
ATOM     15  O   3JG d   1      13.045  52.278  89.623  0.00  0.00    -0.271 OA
ATOM     16  NAR 3JG d   1      11.595  53.475  88.331  0.00  0.00    -0.355 N 
ATOM     17  H   3JG d   1      11.242  54.385  88.116  0.00  0.00     0.162 HD
BRANCH  16  18
ATOM     18  CAM 3JG d   1      11.066  52.314  87.599  0.00  0.00     0.019 C 
ATOM     19  H   3JG d   1      10.019  52.504  87.320  0.00  0.00     0.071 H 
ATOM     20  H   3JG d   1      11.118  51.422  88.241  0.00  0.00     0.071 H 
BRANCH  18  21
ATOM     21  CAV 3JG d   1      11.841  52.094  86.417  0.00  0.00    -0.040 A 
ATOM     22  CAH 3JG d   1      11.578  50.964  85.626  0.00  0.00    -0.074 A 
ATOM     23  CAJ 3JG d   1      12.320  50.693  84.469  0.00  0.00    -0.070 A 
ATOM     24  H   3JG d   1      10.783  50.286  85.917  0.00  0.00     0.084 H 
ATOM     25  CAW 3JG d   1      13.347  51.558  84.076  0.00  0.00    -0.001 A 
ATOM     26  H   3JG d   1      12.098  49.812  83.878  0.00  0.00     0.085 H 
ATOM     27  CAI 3JG d   1      13.617  52.673  84.858  0.00  0.00    -0.070 A 
ATOM     28  CAG 3JG d   1      12.878  52.941  86.009  0.00  0.00    -0.074 A 
ATOM     29  H   3JG d   1      14.416  53.346  84.569  0.00  0.00     0.085 H 
ATOM     30  H   3JG d   1      13.110  53.821  86.598  0.00  0.00     0.084 H 
BRANCH  25  31
ATOM     31  CAX 3JG d   1      14.083  51.345  82.978  0.00  0.00     0.104 A 
ATOM     32  OAS 3JG d   1      15.422  51.600  82.879  0.00  0.00    -0.302 OA
ATOM     33  CAK 3JG d   1      15.793  51.264  81.630  0.00  0.00     0.103 A 
ATOM     34  NAQ 3JG d   1      14.707  50.822  80.989  0.00  0.00    -0.246 NA
ATOM     35  H   3JG d   1      16.797  51.339  81.216  0.00  0.00     0.155 H 
ATOM     36  CAL 3JG d   1      13.651  50.871  81.815  0.00  0.00     0.037 A 
ATOM     37  H   3JG d   1      12.630  50.577  81.576  0.00  0.00     0.119 H 
ENDBRANCH  25  31
ENDBRANCH  18  21
ENDBRANCH  16  18
ENDBRANCH   7  14
BRANCH   1  38
ATOM     38  CAN 3JG d   1      13.076  54.085  93.793  0.00  0.00     0.015 C 
ATOM     39  H   3JG d   1      14.094  54.498  93.844  0.00  0.00     0.048 H 
ATOM     40  H   3JG d   1      12.403  54.689  94.420  0.00  0.00     0.048 H 
BRANCH  38  41
ATOM     41  CBB 3JG d   1      13.084  52.657  94.290  0.00  0.00    -0.043 C 
BRANCH  41  42
ATOM     42  CAA 3JG d   1      13.652  52.696  95.711  0.00  0.00    -0.069 C 
ATOM     43  H   3JG d   1      13.680  51.676  96.123  0.00  0.00     0.028 H 
ATOM     44  H   3JG d   1      13.013  53.329  96.344  0.00  0.00     0.028 H 
ATOM     45  H   3JG d   1      14.671  53.110  95.687  0.00  0.00     0.028 H 
ENDBRANCH  41  42
BRANCH  41  46
ATOM     46  CAB 3JG d   1      11.639  52.096  94.397  0.00  0.00    -0.069 C 
ATOM     47  H   3JG d   1      11.188  52.050  93.394  0.00  0.00     0.028 H 
ATOM     48  H   3JG d   1      11.037  52.755  95.040  0.00  0.00     0.028 H 
ATOM     49  H   3JG d   1      11.669  51.086  94.832  0.00  0.00     0.028 H 
ENDBRANCH  41  46
BRANCH  41  50
ATOM     50  CAC 3JG d   1      13.943  51.756  93.380  0.00  0.00    -0.069 C 
ATOM     51  H   3JG d   1      14.962  52.166  93.314  0.00  0.00     0.028 H 
ATOM     52  H   3JG d   1      13.497  51.719  92.375  0.00  0.00     0.028 H 
ATOM     53  H   3JG d   1      13.983  50.741  93.801  0.00  0.00     0.028 H 
ENDBRANCH  41  50
ENDBRANCH  38  41
ENDBRANCH   1  38
BRANCH   5  54
ATOM     54  OD1 3JG d   1      14.857  56.940  90.483  0.00  0.00    -0.394 OA
ATOM     55  H   3JG d   1      15.028  57.488  89.726  0.00  0.00     0.210 HD
ENDBRANCH   5  54
TORSDOF 10
