REMARK  11 active torsions:
REMARK  status: ('A' for Active; 'I' for Inactive)
REMARK    1  A    between atoms: CAB_1  and  CBC_2 
REMARK    2  A    between atoms: CBC_2  and  CAC_3 
REMARK    3  A    between atoms: CBC_2  and  CAD_4 
REMARK    4  A    between atoms: CBC_2  and  CAN_5 
REMARK    5  A    between atoms: CAN_5  and  CAT_6 
REMARK       I    between atoms: CAT_6  and  N_8 
REMARK    6  A    between atoms: CG_10  and  OD1_11 
REMARK    7  A    between atoms: CA_13  and  C_14 
REMARK       I    between atoms: C_14  and  NAR_16 
REMARK    8  A    between atoms: NAR_16  and  CAM_17 
REMARK    9  A    between atoms: CAM_17  and  CAV_18 
REMARK   10  A    between atoms: CAX_23  and  CAY_24 
REMARK   11  A    between atoms: CAW_28  and  CAA_29 
ROOT
ATOM      1  CAT 3JK d   1      12.339  54.244  92.219  0.00  0.00     0.221 C 
ATOM      2  OAE 3JK d   1      11.142  54.089  91.966  0.00  0.00    -0.273 OA
ATOM      3  N   3JK d   1      13.263  54.511  91.242  0.00  0.00    -0.336 N 
ATOM      4  CD2 3JK d   1      14.722  54.793  91.360  0.00  0.00     0.022 C 
ATOM      5  CG  3JK d   1      15.040  55.679  90.170  0.00  0.00     0.053 C 
ATOM      6  CB  3JK d   1      14.159  55.114  89.094  0.00  0.00    -0.012 C 
ATOM      7  CA  3JK d   1      12.851  54.673  89.797  0.00  0.00     0.094 C 
ATOM      8  H   3JK d   1      15.303  53.860  91.315  0.00  0.00     0.068 H 
ATOM      9  H   3JK d   1      14.941  55.316  92.303  0.00  0.00     0.068 H 
ATOM     10  H   3JK d   1      16.103  55.612  89.894  0.00  0.00     0.085 H 
ATOM     11  H   3JK d   1      14.645  54.251  88.617  0.00  0.00     0.040 H 
ATOM     12  H   3JK d   1      13.944  55.880  88.335  0.00  0.00     0.040 H 
ATOM     13  H   3JK d   1      12.079  55.453  89.715  0.00  0.00     0.088 H 
ENDROOT
BRANCH   7  14
ATOM     14  C   3JK d   1      12.372  53.501  89.190  0.00  0.00     0.241 C 
ATOM     15  O   3JK d   1      12.864  52.417  89.498  0.00  0.00    -0.271 OA
ATOM     16  NAR 3JK d   1      11.450  53.637  88.194  0.00  0.00    -0.355 N 
ATOM     17  H   3JK d   1      11.092  54.544  87.974  0.00  0.00     0.162 HD
BRANCH  16  18
ATOM     18  CAM 3JK d   1      10.973  52.461  87.435  0.00  0.00     0.019 C 
ATOM     19  H   3JK d   1       9.934  52.635  87.118  0.00  0.00     0.071 H 
ATOM     20  H   3JK d   1      11.015  51.573  88.083  0.00  0.00     0.071 H 
BRANCH  18  21
ATOM     21  CAV 3JK d   1      11.791  52.231  86.266  0.00  0.00    -0.040 A 
ATOM     22  CAI 3JK d   1      11.542  51.097  85.465  0.00  0.00    -0.074 A 
ATOM     23  CAK 3JK d   1      12.311  50.806  84.327  0.00  0.00    -0.070 A 
ATOM     24  H   3JK d   1      10.732  50.430  85.736  0.00  0.00     0.084 H 
ATOM     25  CAX 3JK d   1      13.355  51.665  83.917  0.00  0.00    -0.000 A 
ATOM     26  H   3JK d   1      12.101  49.910  83.755  0.00  0.00     0.085 H 
ATOM     27  CAJ 3JK d   1      13.619  52.779  84.721  0.00  0.00    -0.070 A 
ATOM     28  CAH 3JK d   1      12.846  53.065  85.870  0.00  0.00    -0.074 A 
ATOM     29  H   3JK d   1      14.437  53.440  84.457  0.00  0.00     0.085 H 
ATOM     30  H   3JK d   1      13.074  53.947  86.457  0.00  0.00     0.084 H 
BRANCH  25  31
ATOM     31  CAY 3JK d   1      14.132  51.441  82.831  0.00  0.00     0.111 A 
ATOM     32  OAS 3JK d   1      15.442  51.802  82.762  0.00  0.00    -0.301 OA
ATOM     33  CAL 3JK d   1      15.921  51.415  81.554  0.00  0.00     0.104 A 
ATOM     34  NAQ 3JK d   1      14.948  50.838  80.875  0.00  0.00    -0.239 NA
ATOM     35  H   3JK d   1      16.942  51.557  81.202  0.00  0.00     0.155 H 
ATOM     36  CAW 3JK d   1      13.852  50.858  81.652  0.00  0.00     0.067 A 
BRANCH  36  37
ATOM     37  CAA 3JK d   1      12.514  50.262  81.176  0.00  0.00    -0.033 C 
ATOM     38  H   3JK d   1      12.632  49.864  80.157  0.00  0.00     0.035 H 
ATOM     39  H   3JK d   1      11.742  51.046  81.177  0.00  0.00     0.035 H 
ATOM     40  H   3JK d   1      12.212  49.450  81.854  0.00  0.00     0.035 H 
ENDBRANCH  36  37
ENDBRANCH  25  31
ENDBRANCH  18  21
ENDBRANCH  16  18
ENDBRANCH   7  14
BRANCH   1  41
ATOM     41  CAN 3JK d   1      12.806  54.227  93.726  0.00  0.00     0.015 C 
ATOM     42  H   3JK d   1      13.806  54.678  93.800  0.00  0.00     0.048 H 
ATOM     43  H   3JK d   1      12.095  54.809  94.332  0.00  0.00     0.048 H 
BRANCH  41  44
ATOM     44  CBC 3JK d   1      12.860  52.812  94.247  0.00  0.00    -0.043 C 
BRANCH  44  45
ATOM     45  CAB 3JK d   1      11.436  52.187  94.260  0.00  0.00    -0.069 C 
ATOM     46  H   3JK d   1      11.491  51.157  94.642  0.00  0.00     0.028 H 
ATOM     47  H   3JK d   1      11.030  52.178  93.238  0.00  0.00     0.028 H 
ATOM     48  H   3JK d   1      10.779  52.784  94.910  0.00  0.00     0.028 H 
ENDBRANCH  44  45
BRANCH  44  49
ATOM     49  CAC 3JK d   1      13.799  51.935  93.395  0.00  0.00    -0.069 C 
ATOM     50  H   3JK d   1      14.806  52.377  93.386  0.00  0.00     0.028 H 
ATOM     51  H   3JK d   1      13.414  51.878  92.366  0.00  0.00     0.028 H 
ATOM     52  H   3JK d   1      13.847  50.924  93.825  0.00  0.00     0.028 H 
ENDBRANCH  44  49
BRANCH  44  53
ATOM     53  CAD 3JK d   1      13.363  52.896  95.717  0.00  0.00    -0.069 C 
ATOM     54  H   3JK d   1      12.678  53.526  96.303  0.00  0.00     0.028 H 
ATOM     55  H   3JK d   1      14.371  53.336  95.735  0.00  0.00     0.028 H 
ATOM     56  H   3JK d   1      13.396  51.886  96.152  0.00  0.00     0.028 H 
ENDBRANCH  44  53
ENDBRANCH  41  44
ENDBRANCH   1  41
BRANCH   5  57
ATOM     57  OD1 3JK d   1      14.695  57.048  90.441  0.00  0.00    -0.394 OA
ATOM     58  H   3JK d   1      14.903  57.582  89.683  0.00  0.00     0.210 HD
ENDBRANCH   5  57
TORSDOF 11
