REMARK  11 active torsions:
REMARK  status: ('A' for Active; 'I' for Inactive)
REMARK    1  A    between atoms: CAB_1  and  CBC_2 
REMARK    2  A    between atoms: CBC_2  and  CAC_3 
REMARK    3  A    between atoms: CBC_2  and  CAD_4 
REMARK    4  A    between atoms: CBC_2  and  CAN_5 
REMARK    5  A    between atoms: CAN_5  and  CAT_6 
REMARK       I    between atoms: CAT_6  and  N_8 
REMARK    6  A    between atoms: CG_10  and  OD1_11 
REMARK    7  A    between atoms: CA_13  and  C_14 
REMARK       I    between atoms: C_14  and  NAR_16 
REMARK    8  A    between atoms: NAR_16  and  CAM_17 
REMARK    9  A    between atoms: CAM_17  and  CAV_18 
REMARK   10  A    between atoms: CAX_23  and  CAY_24 
REMARK   11  A    between atoms: CAW_28  and  CAA_29 
ROOT
ATOM      1  CAT 3JU d   1      -7.075  34.734  -0.689  0.00  0.00     0.221 C 
ATOM      2  OAE 3JU d   1      -6.853  35.911  -0.407  0.00  0.00    -0.273 OA
ATOM      3  N   3JU d   1      -7.362  33.813   0.260  0.00  0.00    -0.336 N 
ATOM      4  CD2 3JU d   1      -7.721  32.367   0.100  0.00  0.00     0.022 C 
ATOM      5  CG  3JU d   1      -8.547  32.045   1.309  0.00  0.00     0.053 C 
ATOM      6  CB  3JU d   1      -7.927  32.905   2.385  0.00  0.00    -0.012 C 
ATOM      7  CA  3JU d   1      -7.488  34.196   1.701  0.00  0.00     0.094 C 
ATOM      8  H   3JU d   1      -6.816  31.743   0.071  0.00  0.00     0.068 H 
ATOM      9  H   3JU d   1      -8.303  32.211  -0.820  0.00  0.00     0.068 H 
ATOM     10  H   3JU d   1      -8.485  30.977   1.567  0.00  0.00     0.085 H 
ATOM     11  H   3JU d   1      -7.059  32.394   2.828  0.00  0.00     0.040 H 
ATOM     12  H   3JU d   1      -8.665  33.122   3.171  0.00  0.00     0.040 H 
ATOM     13  H   3JU d   1      -8.265  34.968   1.801  0.00  0.00     0.088 H 
ENDROOT
BRANCH   7  14
ATOM     14  C   3JU d   1      -6.315  34.675   2.322  0.00  0.00     0.241 C 
ATOM     15  O   3JU d   1      -5.220  34.243   1.999  0.00  0.00    -0.271 OA
ATOM     16  NAR 3JU d   1      -6.506  35.524   3.343  0.00  0.00    -0.355 N 
ATOM     17  H   3JU d   1      -7.444  35.791   3.562  0.00  0.00     0.162 HD
BRANCH  16  18
ATOM     18  CAM 3JU d   1      -5.428  36.082   4.153  0.00  0.00     0.019 C 
ATOM     19  H   3JU d   1      -5.683  37.109   4.452  0.00  0.00     0.071 H 
ATOM     20  H   3JU d   1      -4.495  36.090   3.571  0.00  0.00     0.071 H 
BRANCH  18  21
ATOM     21  CAV 3JU d   1      -5.262  35.277   5.309  0.00  0.00    -0.040 A 
ATOM     22  CAI 3JU d   1      -4.050  35.325   5.994  0.00  0.00    -0.074 A 
ATOM     23  CAK 3JU d   1      -3.831  34.536   7.132  0.00  0.00    -0.071 A 
ATOM     24  H   3JU d   1      -3.264  35.983   5.642  0.00  0.00     0.084 H 
ATOM     25  CAX 3JU d   1      -4.819  33.669   7.629  0.00  0.00    -0.017 A 
ATOM     26  H   3JU d   1      -2.876  34.596   7.641  0.00  0.00     0.084 H 
ATOM     27  CAJ 3JU d   1      -6.023  33.616   6.935  0.00  0.00    -0.071 A 
ATOM     28  CAH 3JU d   1      -6.250  34.409   5.802  0.00  0.00    -0.074 A 
ATOM     29  H   3JU d   1      -6.803  32.946   7.278  0.00  0.00     0.084 H 
ATOM     30  H   3JU d   1      -7.207  34.351   5.296  0.00  0.00     0.084 H 
BRANCH  25  31
ATOM     31  CAY 3JU d   1      -4.609  32.901   8.726  0.00  0.00     0.040 A 
ATOM     32  SAS 3JU d   1      -5.014  31.268   8.896  0.00  0.00    -0.080 SA
ATOM     33  CAL 3JU d   1      -4.439  31.090  10.414  0.00  0.00     0.041 A 
ATOM     34  NAQ 3JU d   1      -3.935  32.262  10.804  0.00  0.00    -0.258 NA
ATOM     35  H   3JU d   1      -4.463  30.175  11.004  0.00  0.00     0.126 H 
ATOM     36  CAW 3JU d   1      -4.027  33.252   9.894  0.00  0.00     0.049 A 
BRANCH  36  37
ATOM     37  CAA 3JU d   1      -3.483  34.645  10.237  0.00  0.00    -0.034 C 
ATOM     38  H   3JU d   1      -3.067  34.636  11.255  0.00  0.00     0.035 H 
ATOM     39  H   3JU d   1      -4.298  35.381  10.181  0.00  0.00     0.035 H 
ATOM     40  H   3JU d   1      -2.694  34.917   9.521  0.00  0.00     0.035 H 
ENDBRANCH  36  37
ENDBRANCH  25  31
ENDBRANCH  18  21
ENDBRANCH  16  18
ENDBRANCH   7  14
BRANCH   1  41
ATOM     41  CAN 3JU d   1      -7.078  34.262  -2.179  0.00  0.00     0.015 C 
ATOM     42  H   3JU d   1      -7.475  33.238  -2.239  0.00  0.00     0.048 H 
ATOM     43  H   3JU d   1      -7.710  34.936  -2.776  0.00  0.00     0.048 H 
BRANCH  41  44
ATOM     44  CBC 3JU d   1      -5.672  34.288  -2.712  0.00  0.00    -0.043 C 
BRANCH  44  45
ATOM     45  CAB 3JU d   1      -5.721  33.697  -4.120  0.00  0.00    -0.069 C 
ATOM     46  H   3JU d   1      -4.710  33.696  -4.552  0.00  0.00     0.028 H 
ATOM     47  H   3JU d   1      -6.388  34.304  -4.750  0.00  0.00     0.028 H 
ATOM     48  H   3JU d   1      -6.101  32.666  -4.072  0.00  0.00     0.028 H 
ENDBRANCH  44  45
BRANCH  44  49
ATOM     49  CAC 3JU d   1      -5.144  35.730  -2.830  0.00  0.00    -0.069 C 
ATOM     50  H   3JU d   1      -5.096  36.186  -1.830  0.00  0.00     0.028 H 
ATOM     51  H   3JU d   1      -5.820  36.317  -3.469  0.00  0.00     0.028 H 
ATOM     52  H   3JU d   1      -4.138  35.717  -3.275  0.00  0.00     0.028 H 
ENDBRANCH  44  49
BRANCH  44  53
ATOM     53  CAD 3JU d   1      -4.752  33.424  -1.828  0.00  0.00    -0.069 C 
ATOM     54  H   3JU d   1      -5.157  32.403  -1.765  0.00  0.00     0.028 H 
ATOM     55  H   3JU d   1      -4.698  33.860  -0.820  0.00  0.00     0.028 H 
ATOM     56  H   3JU d   1      -3.744  33.392  -2.268  0.00  0.00     0.028 H 
ENDBRANCH  44  53
ENDBRANCH  41  44
ENDBRANCH   1  41
BRANCH   5  57
ATOM     57  OD1 3JU d   1      -9.903  32.411   1.082  0.00  0.00    -0.394 OA
ATOM     58  H   3JU d   1     -10.419  32.204   1.852  0.00  0.00     0.210 HD
ENDBRANCH   5  57
TORSDOF 11
