REMARK  13 active torsions:
REMARK  status: ('A' for Active; 'I' for Inactive)
REMARK    1  A    between atoms: CAA_1  and  CAV_2 
REMARK       I    between atoms: CAV_2  and  NAT_4 
REMARK    2  A    between atoms: NAT_4  and  CBE_5 
REMARK    3  A    between atoms: CBE_5  and  CBG_6 
REMARK    4  A    between atoms: CBE_5  and  CAX_10 
REMARK    5  A    between atoms: CBG_6  and  CAD_7 
REMARK    6  A    between atoms: CBG_6  and  CAE_8 
REMARK    7  A    between atoms: CBG_6  and  CAC_9 
REMARK       I    between atoms: CAX_10  and  N_12 
REMARK    8  A    between atoms: CG_14  and  OD1_15 
REMARK    9  A    between atoms: CA_17  and  C_18 
REMARK       I    between atoms: C_18  and  NAS_20 
REMARK   10  A    between atoms: NAS_20  and  CAO_21 
REMARK   11  A    between atoms: CAO_21  and  CAY_22 
REMARK   12  A    between atoms: CBA_27  and  CBB_28 
REMARK   13  A    between atoms: CAZ_32  and  CAB_33 
ROOT
ATOM      1  CAX 3JF d   1      11.794  53.809  91.740  0.00  0.00     0.244 C 
ATOM      2  OAH 3JF d   1      10.642  53.641  91.356  0.00  0.00    -0.271 OA
ATOM      3  N   3JF d   1      12.788  54.082  90.866  0.00  0.00    -0.334 N 
ATOM      4  CD2 3JF d   1      14.243  54.377  91.051  0.00  0.00     0.022 C 
ATOM      5  CG  3JF d   1      14.628  55.201  89.816  0.00  0.00     0.053 C 
ATOM      6  CB  3JF d   1      13.783  54.625  88.725  0.00  0.00    -0.012 C 
ATOM      7  CA  3JF d   1      12.460  54.203  89.380  0.00  0.00     0.094 C 
ATOM      8  H   3JF d   1      14.826  53.445  91.094  0.00  0.00     0.068 H 
ATOM      9  H   3JF d   1      14.408  54.956  91.972  0.00  0.00     0.068 H 
ATOM     10  H   3JF d   1      15.700  55.095  89.595  0.00  0.00     0.085 H 
ATOM     11  H   3JF d   1      14.282  53.752  88.278  0.00  0.00     0.040 H 
ATOM     12  H   3JF d   1      13.599  55.381  87.947  0.00  0.00     0.040 H 
ATOM     13  H   3JF d   1      11.690  54.976  89.238  0.00  0.00     0.088 H 
ENDROOT
BRANCH   7  14
ATOM     14  C   3JF d   1      12.021  53.010  88.765  0.00  0.00     0.241 C 
ATOM     15  O   3JF d   1      12.449  51.930  89.156  0.00  0.00    -0.271 OA
ATOM     16  NAS 3JF d   1      11.216  53.128  87.681  0.00  0.00    -0.355 N 
ATOM     17  H   3JF d   1      10.918  54.036  87.385  0.00  0.00     0.162 HD
BRANCH  16  18
ATOM     18  CAO 3JF d   1      10.775  51.946  86.936  0.00  0.00     0.019 C 
ATOM     19  H   3JF d   1       9.723  52.074  86.639  0.00  0.00     0.071 H 
ATOM     20  H   3JF d   1      10.870  51.056  87.576  0.00  0.00     0.071 H 
BRANCH  18  21
ATOM     21  CAY 3JF d   1      11.579  51.775  85.766  0.00  0.00    -0.040 A 
ATOM     22  CAK 3JF d   1      12.409  52.768  85.227  0.00  0.00    -0.074 A 
ATOM     23  CAM 3JF d   1      13.179  52.524  84.077  0.00  0.00    -0.071 A 
ATOM     24  H   3JF d   1      12.458  53.740  85.705  0.00  0.00     0.084 H 
ATOM     25  CBA 3JF d   1      13.145  51.290  83.427  0.00  0.00    -0.017 A 
ATOM     26  H   3JF d   1      13.813  53.312  83.686  0.00  0.00     0.084 H 
ATOM     27  CAL 3JF d   1      12.315  50.298  83.974  0.00  0.00    -0.071 A 
ATOM     28  CAJ 3JF d   1      11.553  50.539  85.117  0.00  0.00    -0.074 A 
ATOM     29  H   3JF d   1      12.266  49.325  83.498  0.00  0.00     0.084 H 
ATOM     30  H   3JF d   1      10.925  49.748  85.511  0.00  0.00     0.084 H 
BRANCH  25  31
ATOM     31  CBB 3JF d   1      13.876  51.067  82.311  0.00  0.00     0.040 A 
ATOM     32  SAU 3JF d   1      15.502  51.465  82.054  0.00  0.00    -0.080 SA
ATOM     33  CAN 3JF d   1      15.570  50.864  80.503  0.00  0.00     0.041 A 
ATOM     34  NAR 3JF d   1      14.364  50.376  80.196  0.00  0.00    -0.258 NA
ATOM     35  H   3JF d   1      16.444  50.868  79.853  0.00  0.00     0.126 H 
ATOM     36  CAZ 3JF d   1      13.444  50.486  81.170  0.00  0.00     0.049 A 
BRANCH  36  37
ATOM     37  CAB 3JF d   1      12.032  49.944  80.921  0.00  0.00    -0.034 C 
ATOM     38  H   3JF d   1      11.973  49.529  79.904  0.00  0.00     0.035 H 
ATOM     39  H   3JF d   1      11.302  50.760  81.027  0.00  0.00     0.035 H 
ATOM     40  H   3JF d   1      11.808  49.154  81.653  0.00  0.00     0.035 H 
ENDBRANCH  36  37
ENDBRANCH  25  31
ENDBRANCH  18  21
ENDBRANCH  16  18
ENDBRANCH   7  14
BRANCH   1  41
ATOM     41  CBE 3JF d   1      12.105  53.753  93.264  0.00  0.00     0.095 C 
ATOM     42  H   3JF d   1      13.046  54.286  93.463  0.00  0.00     0.088 H 
BRANCH  41  43
ATOM     43  NAT 3JF d   1      10.983  54.468  93.902  0.00  0.00    -0.347 N 
ATOM     44  CAV 3JF d   1      11.105  55.649  94.539  0.00  0.00     0.214 C 
ATOM     45  OAF 3JF d   1      12.164  56.222  94.763  0.00  0.00    -0.274 OA
ATOM     46  H   3JF d   1      10.076  54.050  93.859  0.00  0.00     0.163 HD
BRANCH  44  47
ATOM     47  CAA 3JF d   1       9.795  56.244  95.088  0.00  0.00    -0.003 C 
ATOM     48  H   3JF d   1       8.950  55.604  94.794  0.00  0.00     0.040 H 
ATOM     49  H   3JF d   1       9.651  57.254  94.677  0.00  0.00     0.040 H 
ATOM     50  H   3JF d   1       9.849  56.299  96.185  0.00  0.00     0.040 H 
ENDBRANCH  44  47
ENDBRANCH  41  43
BRANCH  41  51
ATOM     51  CBG 3JF d   1      12.246  52.307  93.815  0.00  0.00    -0.022 C 
BRANCH  51  52
ATOM     52  CAD 3JF d   1      12.577  52.360  95.312  0.00  0.00    -0.067 C 
ATOM     53  H   3JF d   1      12.677  51.336  95.702  0.00  0.00     0.028 H 
ATOM     54  H   3JF d   1      11.769  52.879  95.848  0.00  0.00     0.028 H 
ATOM     55  H   3JF d   1      13.523  52.902  95.460  0.00  0.00     0.028 H 
ENDBRANCH  51  52
BRANCH  51  56
ATOM     56  CAE 3JF d   1      13.396  51.584  93.092  0.00  0.00    -0.067 C 
ATOM     57  H   3JF d   1      13.178  51.535  92.015  0.00  0.00     0.028 H 
ATOM     58  H   3JF d   1      13.498  50.565  93.492  0.00  0.00     0.028 H 
ATOM     59  H   3JF d   1      14.334  52.136  93.252  0.00  0.00     0.028 H 
ENDBRANCH  51  56
BRANCH  51  60
ATOM     60  CAC 3JF d   1      10.936  51.485  93.675  0.00  0.00    -0.067 C 
ATOM     61  H   3JF d   1      10.118  52.007  94.194  0.00  0.00     0.028 H 
ATOM     62  H   3JF d   1      11.078  50.490  94.122  0.00  0.00     0.028 H 
ATOM     63  H   3JF d   1      10.684  51.376  92.610  0.00  0.00     0.028 H 
ENDBRANCH  51  60
ENDBRANCH  41  51
ENDBRANCH   1  41
BRANCH   5  64
ATOM     64  OD1 3JF d   1      14.296  56.590  89.968  0.00  0.00    -0.394 OA
ATOM     65  H   3JF d   1      14.550  57.063  89.184  0.00  0.00     0.210 HD
ENDBRANCH   5  64
TORSDOF 13
