REMARK  9 active torsions:
REMARK  status: ('A' for Active; 'I' for Inactive)
REMARK    1  A    between atoms: CAA_1  and  CAU_2 
REMARK       I    between atoms: CAU_2  and  NBF_4 
REMARK    2  A    between atoms: CBC_6  and  OAG_7 
REMARK    3  A    between atoms: CBE_9  and  CAW_10 
REMARK       I    between atoms: CAW_10  and  N_12 
REMARK    4  A    between atoms: CG_14  and  OD1_15 
REMARK    5  A    between atoms: CA_17  and  C_18 
REMARK       I    between atoms: C_18  and  NAS_20 
REMARK    6  A    between atoms: NAS_20  and  CAM_21 
REMARK    7  A    between atoms: CAM_21  and  CAX_22 
REMARK    8  A    between atoms: CAZ_27  and  CBA_28 
REMARK    9  A    between atoms: CAY_32  and  CAB_33 
ROOT
ATOM      1  CAW 3JS d   1      12.419  53.621  91.697  0.00  0.00     0.243 C 
ATOM      2  OAE 3JS d   1      11.231  53.368  91.571  0.00  0.00    -0.271 OA
ATOM      3  N   3JS d   1      13.150  54.142  90.684  0.00  0.00    -0.334 N 
ATOM      4  CD2 3JS d   1      14.597  54.501  90.716  0.00  0.00     0.022 C 
ATOM      5  CG  3JS d   1      14.781  55.450  89.558  0.00  0.00     0.053 C 
ATOM      6  CB  3JS d   1      13.797  54.967  88.524  0.00  0.00    -0.012 C 
ATOM      7  CA  3JS d   1      12.594  54.454  89.314  0.00  0.00     0.094 C 
ATOM      8  H   3JS d   1      15.222  53.605  90.587  0.00  0.00     0.068 H 
ATOM      9  H   3JS d   1      14.854  54.993  91.666  0.00  0.00     0.068 H 
ATOM     10  H   3JS d   1      15.812  55.422  89.176  0.00  0.00     0.085 H 
ATOM     11  H   3JS d   1      14.237  54.157  87.924  0.00  0.00     0.040 H 
ATOM     12  H   3JS d   1      13.498  55.793  87.862  0.00  0.00     0.040 H 
ATOM     13  H   3JS d   1      11.786  55.198  89.365  0.00  0.00     0.088 H 
ENDROOT
BRANCH   7  14
ATOM     14  C   3JS d   1      12.149  53.271  88.696  0.00  0.00     0.241 C 
ATOM     15  O   3JS d   1      12.627  52.184  89.034  0.00  0.00    -0.271 OA
ATOM     16  NAS 3JS d   1      11.219  53.393  87.706  0.00  0.00    -0.355 N 
ATOM     17  H   3JS d   1      10.862  54.298  87.474  0.00  0.00     0.162 HD
BRANCH  16  18
ATOM     18  CAM 3JS d   1      10.733  52.214  86.975  0.00  0.00     0.019 C 
ATOM     19  H   3JS d   1       9.693  52.383  86.659  0.00  0.00     0.071 H 
ATOM     20  H   3JS d   1      10.778  51.333  87.632  0.00  0.00     0.071 H 
BRANCH  18  21
ATOM     21  CAX 3JS d   1      11.546  51.990  85.826  0.00  0.00    -0.040 A 
ATOM     22  CAI 3JS d   1      11.492  50.745  85.183  0.00  0.00    -0.074 A 
ATOM     23  CAK 3JS d   1      12.271  50.476  84.057  0.00  0.00    -0.071 A 
ATOM     24  H   3JS d   1      10.832  49.976  85.568  0.00  0.00     0.084 H 
ATOM     25  CAZ 3JS d   1      13.131  51.460  83.531  0.00  0.00    -0.017 A 
ATOM     26  H   3JS d   1      12.214  49.503  83.584  0.00  0.00     0.084 H 
ATOM     27  CAJ 3JS d   1      13.195  52.691  84.170  0.00  0.00    -0.071 A 
ATOM     28  CAH 3JS d   1      12.412  52.958  85.303  0.00  0.00    -0.074 A 
ATOM     29  H   3JS d   1      13.860  53.457  83.788  0.00  0.00     0.084 H 
ATOM     30  H   3JS d   1      12.478  53.929  85.781  0.00  0.00     0.084 H 
BRANCH  25  31
ATOM     31  CBA 3JS d   1      13.897  51.253  82.444  0.00  0.00     0.040 A 
ATOM     32  SAT 3JS d   1      15.528  51.743  82.238  0.00  0.00    -0.080 SA
ATOM     33  CAL 3JS d   1      15.678  51.142  80.710  0.00  0.00     0.041 A 
ATOM     34  NAR 3JS d   1      14.509  50.587  80.363  0.00  0.00    -0.258 NA
ATOM     35  H   3JS d   1      16.572  51.188  80.090  0.00  0.00     0.126 H 
ATOM     36  CAY 3JS d   1      13.536  50.649  81.298  0.00  0.00     0.049 A 
BRANCH  36  37
ATOM     37  CAB 3JS d   1      12.154  50.045  81.012  0.00  0.00    -0.034 C 
ATOM     38  H   3JS d   1      12.143  49.619  79.998  0.00  0.00     0.035 H 
ATOM     39  H   3JS d   1      11.388  50.831  81.088  0.00  0.00     0.035 H 
ATOM     40  H   3JS d   1      11.941  49.253  81.745  0.00  0.00     0.035 H 
ENDBRANCH  36  37
ENDBRANCH  25  31
ENDBRANCH  18  21
ENDBRANCH  16  18
ENDBRANCH   7  14
BRANCH   1  41
ATOM     41  CBE 3JS d   1      13.103  53.265  92.887  0.00  0.00     0.094 C 
ATOM     42  NBF 3JS d   1      12.217  53.183  94.060  0.00  0.00    -0.337 N 
ATOM     43  CAU 3JS d   1      11.705  54.301  94.559  0.00  0.00     0.216 C 
ATOM     44  CAP 3JS d   1      12.027  51.784  94.493  0.00  0.00     0.022 C 
ATOM     45  OAC 3JS d   1      11.948  55.408  94.083  0.00  0.00    -0.274 OA
ATOM     46  CBC 3JS d   1      12.583  50.967  93.344  0.00  0.00     0.053 C 
ATOM     47  H   3JS d   1      10.961  51.564  94.649  0.00  0.00     0.068 H 
ATOM     48  H   3JS d   1      12.583  51.583  95.421  0.00  0.00     0.068 H 
ATOM     49  CAO 3JS d   1      13.621  51.850  92.707  0.00  0.00    -0.012 C 
ATOM     50  H   3JS d   1      11.793  50.695  92.629  0.00  0.00     0.085 H 
ATOM     51  H   3JS d   1      13.728  51.611  91.639  0.00  0.00     0.040 H 
ATOM     52  H   3JS d   1      14.592  51.728  93.209  0.00  0.00     0.040 H 
ATOM     53  H   3JS d   1      13.922  53.975  93.073  0.00  0.00     0.088 H 
BRANCH  43  54
ATOM     54  CAA 3JS d   1      10.766  54.125  95.758  0.00  0.00    -0.003 C 
ATOM     55  H   3JS d   1      10.694  53.058  96.014  0.00  0.00     0.040 H 
ATOM     56  H   3JS d   1       9.767  54.508  95.501  0.00  0.00     0.040 H 
ATOM     57  H   3JS d   1      11.162  54.683  96.619  0.00  0.00     0.040 H 
ENDBRANCH  43  54
BRANCH  46  58
ATOM     58  OAG 3JS d   1      13.230  49.787  93.853  0.00  0.00    -0.394 OA
ATOM     59  H   3JS d   1      13.940  50.041  94.431  0.00  0.00     0.210 HD
ENDBRANCH  46  58
ENDBRANCH   1  41
BRANCH   5  60
ATOM     60  OD1 3JS d   1      14.438  56.777  89.962  0.00  0.00    -0.394 OA
ATOM     61  H   3JS d   1      14.556  57.370  89.229  0.00  0.00     0.210 HD
ENDBRANCH   5  60
TORSDOF 9
