REMARK  19 active torsions:
REMARK  status: ('A' for Active; 'I' for Inactive)
REMARK    1  A    between atoms: CD1_1  and  CG_2 
REMARK    2  A    between atoms: CG_2  and  CD2_3 
REMARK    3  A    between atoms: CG_2  and  CB_4 
REMARK    4  A    between atoms: CB_4  and  CA_5 
REMARK    5  A    between atoms: CA_5  and  N_6 
REMARK    6  A    between atoms: CA_5  and  C_10 
REMARK       I    between atoms: N_6  and  CAA_7 
REMARK    7  A    between atoms: CAA_7  and  CAD_9 
REMARK       I    between atoms: C_10  and  NAH_12 
REMARK    8  A    between atoms: NAH_12  and  CAI_13 
REMARK    9  A    between atoms: CAI_13  and  CAJ_14 
REMARK   10  A    between atoms: CAI_13  and  CAQ_18 
REMARK   11  A    between atoms: CAJ_14  and  CAL_15 
REMARK   12  A    between atoms: CAJ_14  and  CAM_16 
REMARK   13  A    between atoms: CAJ_14  and  CAK_17 
REMARK       I    between atoms: CAQ_18  and  NAS_20 
REMARK   14  A    between atoms: CAV_22  and  OAZ_23 
REMARK   15  A    between atoms: CAT_25  and  CAX_26 
REMARK       I    between atoms: CAX_26  and  NBA_28 
REMARK   16  A    between atoms: NBA_28  and  CBB_29 
REMARK   17  A    between atoms: CBB_29  and  CBC_30 
REMARK   18  A    between atoms: CBF_35  and  CBI_36 
REMARK   19  A    between atoms: CBJ_40  and  CBN_41 
ROOT
ATOM      1  CAI 3JH d   1      12.283  53.731  92.549  0.00  0.00     0.096 C 
ATOM      2  H   3JH d   1      13.224  54.283  92.688  0.00  0.00     0.088 H 
ENDROOT
BRANCH   1   3
ATOM      3  NAH 3JH d   1      11.285  54.220  93.489  0.00  0.00    -0.345 N 
ATOM      4  C   3JH d   1      11.401  55.379  94.128  0.00  0.00     0.241 C 
ATOM      5  O   3JH d   1      12.328  56.165  93.956  0.00  0.00    -0.271 OA
ATOM      6  H   3JH d   1      10.476  53.658  93.662  0.00  0.00     0.163 HD
BRANCH   4   7
ATOM      7  CA  3JH d   1      10.288  55.652  95.167  0.00  0.00     0.089 C 
ATOM      8  H   3JH d   1       9.663  54.753  95.272  0.00  0.00     0.087 H 
BRANCH   7   9
ATOM      9  CB  3JH d   1       9.406  56.826  94.726  0.00  0.00    -0.035 C 
ATOM     10  H   3JH d   1      10.018  57.733  94.615  0.00  0.00     0.037 H 
ATOM     11  H   3JH d   1       8.921  56.591  93.767  0.00  0.00     0.037 H 
BRANCH   9  12
ATOM     12  CG  3JH d   1       8.346  57.042  95.807  0.00  0.00    -0.059 C 
ATOM     13  H   3JH d   1       8.831  57.455  96.704  0.00  0.00     0.038 H 
BRANCH  12  14
ATOM     14  CD1 3JH d   1       7.616  55.739  96.189  0.00  0.00    -0.073 C 
ATOM     15  H   3JH d   1       6.868  55.952  96.967  0.00  0.00     0.028 H 
ATOM     16  H   3JH d   1       8.345  55.009  96.571  0.00  0.00     0.028 H 
ATOM     17  H   3JH d   1       7.114  55.326  95.302  0.00  0.00     0.028 H 
ENDBRANCH  12  14
BRANCH  12  18
ATOM     18  CD2 3JH d   1       7.310  58.032  95.278  0.00  0.00    -0.073 C 
ATOM     19  H   3JH d   1       7.810  58.971  94.999  0.00  0.00     0.028 H 
ATOM     20  H   3JH d   1       6.562  58.233  96.059  0.00  0.00     0.028 H 
ATOM     21  H   3JH d   1       6.812  57.605  94.395  0.00  0.00     0.028 H 
ENDBRANCH  12  18
ENDBRANCH   9  12
ENDBRANCH   7   9
BRANCH   7  22
ATOM     22  N   3JH d   1      10.918  55.966  96.461  0.00  0.00    -0.348 N 
ATOM     23  CAA 3JH d   1      11.351  55.047  97.358  0.00  0.00     0.214 C 
ATOM     24  OAC 3JH d   1      11.880  55.367  98.428  0.00  0.00    -0.274 OA
ATOM     25  H   3JH d   1      11.035  56.931  96.695  0.00  0.00     0.163 HD
BRANCH  23  26
ATOM     26  CAD 3JH d   1      11.137  53.568  97.027  0.00  0.00    -0.003 C 
ATOM     27  H   3JH d   1      11.537  52.948  97.843  0.00  0.00     0.040 H 
ATOM     28  H   3JH d   1      11.659  53.323  96.090  0.00  0.00     0.040 H 
ATOM     29  H   3JH d   1      10.061  53.370  96.910  0.00  0.00     0.040 H 
ENDBRANCH  23  26
ENDBRANCH   7  22
ENDBRANCH   4   7
ENDBRANCH   1   3
BRANCH   1  30
ATOM     30  CAJ 3JH d   1      12.531  52.231  92.877  0.00  0.00    -0.022 C 
BRANCH  30  31
ATOM     31  CAL 3JH d   1      13.167  52.145  94.276  0.00  0.00    -0.067 C 
ATOM     32  H   3JH d   1      13.352  51.091  94.530  0.00  0.00     0.028 H 
ATOM     33  H   3JH d   1      12.484  52.587  95.017  0.00  0.00     0.028 H 
ATOM     34  H   3JH d   1      14.119  52.696  94.281  0.00  0.00     0.028 H 
ENDBRANCH  30  31
BRANCH  30  35
ATOM     35  CAM 3JH d   1      13.490  51.577  91.856  0.00  0.00    -0.067 C 
ATOM     36  H   3JH d   1      13.047  51.631  90.850  0.00  0.00     0.028 H 
ATOM     37  H   3JH d   1      13.653  50.524  92.128  0.00  0.00     0.028 H 
ATOM     38  H   3JH d   1      14.452  52.110  91.863  0.00  0.00     0.028 H 
ENDBRANCH  30  35
BRANCH  30  39
ATOM     39  CAK 3JH d   1      11.212  51.403  92.910  0.00  0.00    -0.067 C 
ATOM     40  H   3JH d   1      10.515  51.853  93.632  0.00  0.00     0.028 H 
ATOM     41  H   3JH d   1      11.435  50.369  93.212  0.00  0.00     0.028 H 
ATOM     42  H   3JH d   1      10.754  51.402  91.910  0.00  0.00     0.028 H 
ENDBRANCH  30  39
ENDBRANCH   1  30
BRANCH   1  43
ATOM     43  CAQ 3JH d   1      11.786  53.976  91.119  0.00  0.00     0.244 C 
ATOM     44  OAR 3JH d   1      10.604  53.820  90.876  0.00  0.00    -0.271 OA
ATOM     45  NAS 3JH d   1      12.685  54.347  90.180  0.00  0.00    -0.334 N 
ATOM     46  CAW 3JH d   1      14.124  54.663  90.335  0.00  0.00     0.022 C 
ATOM     47  CAT 3JH d   1      12.309  54.605  88.743  0.00  0.00     0.094 C 
ATOM     48  CAV 3JH d   1      14.440  55.614  89.183  0.00  0.00     0.053 C 
ATOM     49  H   3JH d   1      14.732  53.749  90.261  0.00  0.00     0.068 H 
ATOM     50  H   3JH d   1      14.312  55.151  91.303  0.00  0.00     0.068 H 
ATOM     51  CAU 3JH d   1      13.558  55.229  88.068  0.00  0.00    -0.012 C 
ATOM     52  H   3JH d   1      15.498  55.524  88.894  0.00  0.00     0.085 H 
ATOM     53  H   3JH d   1      14.055  54.493  87.418  0.00  0.00     0.040 H 
ATOM     54  H   3JH d   1      13.277  56.112  87.475  0.00  0.00     0.040 H 
ATOM     55  H   3JH d   1      11.480  55.327  88.715  0.00  0.00     0.088 H 
BRANCH  48  56
ATOM     56  OAZ 3JH d   1      14.140  56.995  89.545  0.00  0.00    -0.394 OA
ATOM     57  H   3JH d   1      14.663  57.245  90.298  0.00  0.00     0.210 HD
ENDBRANCH  48  56
BRANCH  47  58
ATOM     58  CAX 3JH d   1      11.896  53.436  88.057  0.00  0.00     0.241 C 
ATOM     59  OAY 3JH d   1      12.368  52.352  88.363  0.00  0.00    -0.271 OA
ATOM     60  NBA 3JH d   1      10.946  53.568  87.083  0.00  0.00    -0.355 N 
ATOM     61  H   3JH d   1      10.560  54.470  86.890  0.00  0.00     0.162 HD
BRANCH  60  62
ATOM     62  CBB 3JH d   1      10.485  52.409  86.318  0.00  0.00     0.019 C 
ATOM     63  H   3JH d   1       9.443  52.569  86.003  0.00  0.00     0.071 H 
ATOM     64  H   3JH d   1      10.543  51.508  86.947  0.00  0.00     0.071 H 
BRANCH  62  65
ATOM     65  CBC 3JH d   1      11.312  52.237  85.161  0.00  0.00    -0.040 A 
ATOM     66  CBH 3JH d   1      12.228  53.207  84.685  0.00  0.00    -0.074 A 
ATOM     67  CBG 3JH d   1      13.033  52.964  83.550  0.00  0.00    -0.071 A 
ATOM     68  H   3JH d   1      12.313  54.156  85.203  0.00  0.00     0.084 H 
ATOM     69  CBF 3JH d   1      12.942  51.759  82.847  0.00  0.00    -0.017 A 
ATOM     70  H   3JH d   1      13.732  53.724  83.219  0.00  0.00     0.084 H 
ATOM     71  CBE 3JH d   1      12.029  50.795  83.321  0.00  0.00    -0.071 A 
ATOM     72  CBD 3JH d   1      11.229  51.034  84.460  0.00  0.00    -0.074 A 
ATOM     73  H   3JH d   1      11.939  49.849  82.799  0.00  0.00     0.084 H 
ATOM     74  H   3JH d   1      10.538  50.269  84.795  0.00  0.00     0.084 H 
BRANCH  69  75
ATOM     75  CBI 3JH d   1      13.702  51.569  81.750  0.00  0.00     0.040 A 
ATOM     76  SBM 3JH d   1      15.331  52.125  81.514  0.00  0.00    -0.080 SA
ATOM     77  CBL 3JH d   1      15.453  51.525  79.977  0.00  0.00     0.041 A 
ATOM     78  NBK 3JH d   1      14.309  50.940  79.639  0.00  0.00    -0.258 NA
ATOM     79  H   3JH d   1      16.334  51.598  79.341  0.00  0.00     0.126 H 
ATOM     80  CBJ 3JH d   1      13.348  50.961  80.594  0.00  0.00     0.049 A 
BRANCH  80  81
ATOM     81  CBN 3JH d   1      11.988  50.302  80.297  0.00  0.00    -0.034 C 
ATOM     82  H   3JH d   1      11.995  49.892  79.276  0.00  0.00     0.035 H 
ATOM     83  H   3JH d   1      11.189  51.053  80.385  0.00  0.00     0.035 H 
ATOM     84  H   3JH d   1      11.809  49.490  81.017  0.00  0.00     0.035 H 
ENDBRANCH  80  81
ENDBRANCH  69  75
ENDBRANCH  62  65
ENDBRANCH  60  62
ENDBRANCH  47  58
ENDBRANCH   1  43
TORSDOF 19
