REMARK  17 active torsions:
REMARK  status: ('A' for Active; 'I' for Inactive)
REMARK    1  A    between atoms: CAB_1  and  CBJ_2 
REMARK    2  A    between atoms: CBL_6  and  CBK_7 
REMARK    3  A    between atoms: CBH_12  and  CAU_13 
REMARK    4  A    between atoms: CAU_13  and  NAZ_14 
REMARK       I    between atoms: NAZ_14  and  CBE_15 
REMARK    5  A    between atoms: CBE_15  and  CBO_17 
REMARK    6  A    between atoms: CBM_19  and  OAJ_20 
REMARK       I    between atoms: NBQ_22  and  CBG_23 
REMARK    7  A    between atoms: CBG_23  and  CBP_25 
REMARK    8  A    between atoms: CBP_25  and  CBR_26 
REMARK    9  A    between atoms: CBP_25  and  NBB_30 
REMARK   10  A    between atoms: CBR_26  and  CAD_27 
REMARK   11  A    between atoms: CBR_26  and  CAE_28 
REMARK   12  A    between atoms: CBR_26  and  CAC_29 
REMARK       I    between atoms: NBB_30  and  C_31 
REMARK   13  A    between atoms: C_31  and  CA_33 
REMARK   14  A    between atoms: CA_33  and  N_34 
REMARK   15  A    between atoms: CA_33  and  CB_38 
REMARK       I    between atoms: N_34  and  CBD_35 
REMARK   16  A    between atoms: CBD_35  and  CAA_37 
REMARK   17  A    between atoms: CB_38  and  CG_39 
ROOT
ATOM      1  CBP 3JO d   1      12.460  54.216  92.944  0.00  0.00     0.096 C 
ATOM      2  H   3JO d   1      13.372  54.802  93.129  0.00  0.00     0.088 H 
ENDROOT
BRANCH   1   3
ATOM      3  CBG 3JO d   1      12.092  54.299  91.443  0.00  0.00     0.244 C 
ATOM      4  NBQ 3JO d   1      13.072  54.530  90.536  0.00  0.00    -0.334 N 
ATOM      5  CBO 3JO d   1      12.735  54.675  89.076  0.00  0.00     0.094 C 
ATOM      6  CAX 3JO d   1      14.553  54.791  90.681  0.00  0.00     0.022 C 
ATOM      7  CAW 3JO d   1      14.048  55.117  88.387  0.00  0.00    -0.012 C 
ATOM      8  H   3JO d   1      11.952  55.437  88.951  0.00  0.00     0.088 H 
ATOM      9  CBM 3JO d   1      14.905  55.689  89.483  0.00  0.00     0.053 C 
ATOM     10  H   3JO d   1      13.842  55.880  87.622  0.00  0.00     0.040 H 
ATOM     11  H   3JO d   1      14.546  54.255  87.920  0.00  0.00     0.040 H 
ATOM     12  H   3JO d   1      15.975  55.627  89.234  0.00  0.00     0.085 H 
ATOM     13  H   3JO d   1      14.766  55.306  91.629  0.00  0.00     0.068 H 
ATOM     14  H   3JO d   1      15.120  53.849  90.641  0.00  0.00     0.068 H 
ATOM     15  OAI 3JO d   1      10.917  54.176  91.115  0.00  0.00    -0.271 OA
BRANCH   5  16
ATOM     16  CBE 3JO d   1      12.315  53.478  88.477  0.00  0.00     0.241 C 
ATOM     17  NAZ 3JO d   1      11.464  53.591  87.451  0.00  0.00    -0.355 N 
ATOM     18  H   3JO d   1      11.123  54.501  87.215  0.00  0.00     0.162 HD
ATOM     19  OAG 3JO d   1      12.783  52.409  88.821  0.00  0.00    -0.271 OA
BRANCH  17  20
ATOM     20  CAU 3JO d   1      11.000  52.430  86.643  0.00  0.00     0.019 C 
ATOM     21  H   3JO d   1      11.058  51.515  87.251  0.00  0.00     0.071 H 
ATOM     22  H   3JO d   1       9.959  52.596  86.329  0.00  0.00     0.071 H 
BRANCH  20  23
ATOM     23  CBH 3JO d   1      11.807  52.288  85.515  0.00  0.00    -0.040 A 
ATOM     24  CAQ 3JO d   1      12.702  53.268  85.052  0.00  0.00    -0.074 A 
ATOM     25  CAS 3JO d   1      13.481  53.050  83.904  0.00  0.00    -0.071 A 
ATOM     26  H   3JO d   1      12.792  54.206  85.589  0.00  0.00     0.084 H 
ATOM     27  CBK 3JO d   1      13.390  51.861  83.189  0.00  0.00    -0.017 A 
ATOM     28  H   3JO d   1      14.165  53.822  83.570  0.00  0.00     0.084 H 
ATOM     29  CAR 3JO d   1      12.500  50.877  83.660  0.00  0.00    -0.071 A 
ATOM     30  CAP 3JO d   1      11.714  51.091  84.795  0.00  0.00    -0.074 A 
ATOM     31  H   3JO d   1      12.423  49.934  83.131  0.00  0.00     0.084 H 
ATOM     32  H   3JO d   1      11.024  50.321  85.122  0.00  0.00     0.084 H 
BRANCH  27  33
ATOM     33  CBL 3JO d   1      14.139  51.675  82.086  0.00  0.00     0.040 A 
ATOM     34  CBJ 3JO d   1      13.779  51.093  80.926  0.00  0.00     0.049 A 
ATOM     35  NAY 3JO d   1      14.753  51.062  79.990  0.00  0.00    -0.258 NA
ATOM     36  CAT 3JO d   1      15.900  51.619  80.359  0.00  0.00     0.041 A 
ATOM     37  SBC 3JO d   1      15.736  52.176  81.859  0.00  0.00    -0.080 SA
ATOM     38  H   3JO d   1      16.800  51.687  79.749  0.00  0.00     0.126 H 
BRANCH  34  39
ATOM     39  CAB 3JO d   1      12.402  50.482  80.611  0.00  0.00    -0.034 C 
ATOM     40  H   3JO d   1      11.741  50.598  81.483  0.00  0.00     0.035 H 
ATOM     41  H   3JO d   1      12.519  49.413  80.379  0.00  0.00     0.035 H 
ATOM     42  H   3JO d   1      11.961  50.998  79.746  0.00  0.00     0.035 H 
ENDBRANCH  34  39
ENDBRANCH  27  33
ENDBRANCH  20  23
ENDBRANCH  17  20
ENDBRANCH   5  16
BRANCH   9  43
ATOM     43  OAJ 3JO d   1      14.537  57.072  89.742  0.00  0.00    -0.394 OA
ATOM     44  H   3JO d   1      15.085  57.420  90.435  0.00  0.00     0.210 HD
ENDBRANCH   9  43
ENDBRANCH   1   3
BRANCH   1  45
ATOM     45  CBR 3JO d   1      12.675  52.772  93.431  0.00  0.00    -0.022 C 
BRANCH  45  46
ATOM     46  CAD 3JO d   1      11.356  51.947  93.433  0.00  0.00    -0.067 C 
ATOM     47  H   3JO d   1      11.562  50.926  93.788  0.00  0.00     0.028 H 
ATOM     48  H   3JO d   1      10.948  51.905  92.412  0.00  0.00     0.028 H 
ATOM     49  H   3JO d   1      10.625  52.426  94.101  0.00  0.00     0.028 H 
ENDBRANCH  45  46
BRANCH  45  50
ATOM     50  CAE 3JO d   1      13.217  52.811  94.875  0.00  0.00    -0.067 C 
ATOM     51  H   3JO d   1      14.152  53.390  94.900  0.00  0.00     0.028 H 
ATOM     52  H   3JO d   1      13.412  51.785  95.221  0.00  0.00     0.028 H 
ATOM     53  H   3JO d   1      12.474  53.285  95.533  0.00  0.00     0.028 H 
ENDBRANCH  45  50
BRANCH  45  54
ATOM     54  CAC 3JO d   1      13.717  52.050  92.571  0.00  0.00    -0.067 C 
ATOM     55  H   3JO d   1      13.364  52.002  91.530  0.00  0.00     0.028 H 
ATOM     56  H   3JO d   1      13.866  51.030  92.955  0.00  0.00     0.028 H 
ATOM     57  H   3JO d   1      14.669  52.599  92.611  0.00  0.00     0.028 H 
ENDBRANCH  45  54
ENDBRANCH   1  45
BRANCH   1  58
ATOM     58  NBB 3JO d   1      11.332  54.770  93.696  0.00  0.00    -0.345 N 
ATOM     59  C   3JO d   1      11.326  55.932  94.358  0.00  0.00     0.241 C 
ATOM     60  O   3JO d   1      12.295  56.691  94.470  0.00  0.00    -0.271 OA
ATOM     61  H   3JO d   1      10.490  54.231  93.716  0.00  0.00     0.163 HD
BRANCH  59  62
ATOM     62  CA  3JO d   1       9.974  56.185  95.084  0.00  0.00     0.093 C 
ATOM     63  H   3JO d   1       9.152  56.148  94.354  0.00  0.00     0.088 H 
BRANCH  62  64
ATOM     64  N   3JO d   1       9.824  55.107  96.084  0.00  0.00    -0.348 N 
ATOM     65  CBD 3JO d   1       8.872  54.154  96.022  0.00  0.00     0.214 C 
ATOM     66  OAF 3JO d   1       7.979  54.085  95.176  0.00  0.00    -0.274 OA
ATOM     67  H   3JO d   1      10.466  55.083  96.851  0.00  0.00     0.163 HD
BRANCH  65  68
ATOM     68  CAA 3JO d   1       8.946  53.123  97.146  0.00  0.00    -0.003 C 
ATOM     69  H   3JO d   1       8.139  52.386  97.021  0.00  0.00     0.040 H 
ATOM     70  H   3JO d   1       8.834  53.629  98.116  0.00  0.00     0.040 H 
ATOM     71  H   3JO d   1       9.919  52.611  97.110  0.00  0.00     0.040 H 
ENDBRANCH  65  68
ENDBRANCH  62  64
BRANCH  62  72
ATOM     72  CB  3JO d   1       9.939  57.511  95.801  0.00  0.00    -0.014 C 
ATOM     73  H   3JO d   1      10.123  58.334  95.095  0.00  0.00     0.043 H 
ATOM     74  H   3JO d   1      10.696  57.536  96.599  0.00  0.00     0.043 H 
BRANCH  72  75
ATOM     75  CG  3JO d   1       8.637  57.615  96.352  0.00  0.00    -0.056 A 
ATOM     76  CD1 3JO d   1       7.528  57.813  95.525  0.00  0.00    -0.077 A 
ATOM     77  CE1 3JO d   1       6.246  57.919  96.052  0.00  0.00    -0.082 A 
ATOM     78  H   3JO d   1       7.670  57.885  94.453  0.00  0.00     0.084 H 
ATOM     79  CZ  3JO d   1       6.051  57.835  97.424  0.00  0.00    -0.083 A 
ATOM     80  H   3JO d   1       5.399  58.067  95.392  0.00  0.00     0.083 H 
ATOM     81  CE2 3JO d   1       7.140  57.631  98.263  0.00  0.00    -0.082 A 
ATOM     82  H   3JO d   1       5.054  57.928  97.839  0.00  0.00     0.083 H 
ATOM     83  CD2 3JO d   1       8.426  57.521  97.735  0.00  0.00    -0.077 A 
ATOM     84  H   3JO d   1       6.989  57.557  99.334  0.00  0.00     0.083 H 
ATOM     85  H   3JO d   1       9.268  57.362  98.398  0.00  0.00     0.084 H 
ENDBRANCH  72  75
ENDBRANCH  62  72
ENDBRANCH  59  62
ENDBRANCH   1  58
TORSDOF 17
