REMARK  19 active torsions:
REMARK  status: ('A' for Active; 'I' for Inactive)
REMARK    1  A    between atoms: CAD_1  and  CAA_2 
REMARK       I    between atoms: CAA_2  and  N_4 
REMARK    2  A    between atoms: N_4  and  CA_5 
REMARK    3  A    between atoms: CA_5  and  CB_6 
REMARK    4  A    between atoms: CA_5  and  C_10 
REMARK    5  A    between atoms: CB_6  and  CG1_7 
REMARK    6  A    between atoms: CB_6  and  CBO_8 
REMARK    7  A    between atoms: CB_6  and  CG2_9 
REMARK       I    between atoms: C_10  and  NAH_12 
REMARK    8  A    between atoms: NAH_12  and  CAI_13 
REMARK    9  A    between atoms: CAI_13  and  CAJ_14 
REMARK   10  A    between atoms: CAI_13  and  CAO_18 
REMARK   11  A    between atoms: CAJ_14  and  CAL_15 
REMARK   12  A    between atoms: CAJ_14  and  CAM_16 
REMARK   13  A    between atoms: CAJ_14  and  CAK_17 
REMARK       I    between atoms: CAO_18  and  NAQ_20 
REMARK   14  A    between atoms: CAT_22  and  OAX_23 
REMARK   15  A    between atoms: CAR_25  and  CAV_26 
REMARK       I    between atoms: CAV_26  and  NAY_28 
REMARK   16  A    between atoms: NAY_28  and  CAZ_29 
REMARK   17  A    between atoms: CAZ_29  and  CBA_30 
REMARK   18  A    between atoms: CBD_35  and  CBG_36 
REMARK   19  A    between atoms: CBH_40  and  CBL_41 
ROOT
ATOM      1  CAI 3JJ d   1      12.358  53.834  92.869  0.00  0.00     0.096 C 
ATOM      2  H   3JJ d   1      13.276  54.415  93.044  0.00  0.00     0.088 H 
ENDROOT
BRANCH   1   3
ATOM      3  NAH 3JJ d   1      11.320  54.284  93.776  0.00  0.00    -0.345 N 
ATOM      4  C   3JJ d   1      11.378  55.433  94.430  0.00  0.00     0.241 C 
ATOM      5  O   3JJ d   1      12.304  56.227  94.312  0.00  0.00    -0.271 OA
ATOM      6  H   3JJ d   1      10.522  53.698  93.914  0.00  0.00     0.163 HD
BRANCH   4   7
ATOM      7  CA  3JJ d   1      10.288  55.578  95.528  0.00  0.00     0.095 C 
ATOM      8  H   3JJ d   1       9.866  54.578  95.707  0.00  0.00     0.088 H 
BRANCH   7   9
ATOM      9  N   3JJ d   1      11.003  56.016  96.753  0.00  0.00    -0.347 N 
ATOM     10  CAA 3JJ d   1      11.492  55.178  97.694  0.00  0.00     0.214 C 
ATOM     11  OAC 3JJ d   1      12.108  55.582  98.682  0.00  0.00    -0.274 OA
ATOM     12  H   3JJ d   1      11.132  56.998  96.891  0.00  0.00     0.163 HD
BRANCH  10  13
ATOM     13  CAD 3JJ d   1      11.214  53.673  97.541  0.00  0.00    -0.003 C 
ATOM     14  H   3JJ d   1      10.658  53.496  96.608  0.00  0.00     0.040 H 
ATOM     15  H   3JJ d   1      10.617  53.322  98.396  0.00  0.00     0.040 H 
ATOM     16  H   3JJ d   1      12.167  53.125  97.510  0.00  0.00     0.040 H 
ENDBRANCH  10  13
ENDBRANCH   7   9
BRANCH   7  17
ATOM     17  CB  3JJ d   1       9.104  56.496  95.219  0.00  0.00    -0.022 C 
BRANCH  17  18
ATOM     18  CG1 3JJ d   1       9.552  57.905  94.842  0.00  0.00    -0.067 C 
ATOM     19  H   3JJ d   1       8.669  58.526  94.629  0.00  0.00     0.028 H 
ATOM     20  H   3JJ d   1      10.192  57.859  93.948  0.00  0.00     0.028 H 
ATOM     21  H   3JJ d   1      10.118  58.345  95.676  0.00  0.00     0.028 H 
ENDBRANCH  17  18
BRANCH  17  22
ATOM     22  CBO 3JJ d   1       8.228  56.582  96.484  0.00  0.00    -0.067 C 
ATOM     23  H   3JJ d   1       7.896  55.573  96.769  0.00  0.00     0.028 H 
ATOM     24  H   3JJ d   1       7.350  57.212  96.280  0.00  0.00     0.028 H 
ATOM     25  H   3JJ d   1       8.812  57.022  97.305  0.00  0.00     0.028 H 
ENDBRANCH  17  22
BRANCH  17  26
ATOM     26  CG2 3JJ d   1       8.254  55.868  94.110  0.00  0.00    -0.067 C 
ATOM     27  H   3JJ d   1       8.851  55.791  93.189  0.00  0.00     0.028 H 
ATOM     28  H   3JJ d   1       7.371  56.498  93.924  0.00  0.00     0.028 H 
ATOM     29  H   3JJ d   1       7.929  54.864  94.421  0.00  0.00     0.028 H 
ENDBRANCH  17  26
ENDBRANCH   7  17
ENDBRANCH   4   7
ENDBRANCH   1   3
BRANCH   1  30
ATOM     30  CAJ 3JJ d   1      12.627  52.350  93.250  0.00  0.00    -0.022 C 
BRANCH  30  31
ATOM     31  CAL 3JJ d   1      13.641  51.693  92.289  0.00  0.00    -0.067 C 
ATOM     32  H   3JJ d   1      13.806  50.648  92.589  0.00  0.00     0.028 H 
ATOM     33  H   3JJ d   1      14.594  52.241  92.331  0.00  0.00     0.028 H 
ATOM     34  H   3JJ d   1      13.246  51.722  91.263  0.00  0.00     0.028 H 
ENDBRANCH  30  31
BRANCH  30  35
ATOM     35  CAM 3JJ d   1      11.318  51.500  93.253  0.00  0.00    -0.067 C 
ATOM     36  H   3JJ d   1      10.585  51.957  93.934  0.00  0.00     0.028 H 
ATOM     37  H   3JJ d   1      11.545  50.478  93.591  0.00  0.00     0.028 H 
ATOM     38  H   3JJ d   1      10.901  51.466  92.236  0.00  0.00     0.028 H 
ENDBRANCH  30  35
BRANCH  30  39
ATOM     39  CAK 3JJ d   1      13.227  52.310  94.681  0.00  0.00    -0.067 C 
ATOM     40  H   3JJ d   1      14.153  52.903  94.707  0.00  0.00     0.028 H 
ATOM     41  H   3JJ d   1      13.451  51.269  94.956  0.00  0.00     0.028 H 
ATOM     42  H   3JJ d   1      12.503  52.730  95.394  0.00  0.00     0.028 H 
ENDBRANCH  30  39
ENDBRANCH   1  30
BRANCH   1  43
ATOM     43  CAO 3JJ d   1      11.939  54.054  91.416  0.00  0.00     0.244 C 
ATOM     44  OAP 3JJ d   1      10.788  53.841  91.087  0.00  0.00    -0.271 OA
ATOM     45  NAQ 3JJ d   1      12.890  54.453  90.535  0.00  0.00    -0.334 N 
ATOM     46  CAU 3JJ d   1      14.307  54.813  90.749  0.00  0.00     0.022 C 
ATOM     47  CAR 3JJ d   1      12.552  54.676  89.094  0.00  0.00     0.094 C 
ATOM     48  CAT 3JJ d   1      14.694  55.649  89.522  0.00  0.00     0.053 C 
ATOM     49  H   3JJ d   1      14.930  53.909  90.813  0.00  0.00     0.068 H 
ATOM     50  H   3JJ d   1      14.421  55.403  91.670  0.00  0.00     0.068 H 
ATOM     51  CAS 3JJ d   1      13.846  55.190  88.425  0.00  0.00    -0.012 C 
ATOM     52  H   3JJ d   1      15.761  55.522  89.285  0.00  0.00     0.085 H 
ATOM     53  H   3JJ d   1      14.340  54.379  87.870  0.00  0.00     0.040 H 
ATOM     54  H   3JJ d   1      13.621  56.020  87.739  0.00  0.00     0.040 H 
ATOM     55  H   3JJ d   1      11.761  55.436  89.015  0.00  0.00     0.088 H 
BRANCH  48  56
ATOM     56  OAX 3JJ d   1      14.386  57.034  89.741  0.00  0.00    -0.394 OA
ATOM     57  H   3JJ d   1      14.631  57.537  88.973  0.00  0.00     0.210 HD
ENDBRANCH  48  56
BRANCH  47  58
ATOM     58  CAV 3JJ d   1      12.114  53.500  88.459  0.00  0.00     0.241 C 
ATOM     59  OAW 3JJ d   1      12.585  52.421  88.789  0.00  0.00    -0.271 OA
ATOM     60  NAY 3JJ d   1      11.202  53.620  87.454  0.00  0.00    -0.355 N 
ATOM     61  H   3JJ d   1      10.830  54.521  87.231  0.00  0.00     0.162 HD
BRANCH  60  62
ATOM     62  CAZ 3JJ d   1      10.755  52.442  86.690  0.00  0.00     0.019 C 
ATOM     63  H   3JJ d   1       9.707  52.578  86.386  0.00  0.00     0.071 H 
ATOM     64  H   3JJ d   1      10.840  51.543  87.319  0.00  0.00     0.071 H 
BRANCH  62  65
ATOM     65  CBA 3JJ d   1      11.573  52.289  85.526  0.00  0.00    -0.040 A 
ATOM     66  CBF 3JJ d   1      12.488  53.256  85.066  0.00  0.00    -0.074 A 
ATOM     67  CBE 3JJ d   1      13.282  53.019  83.920  0.00  0.00    -0.071 A 
ATOM     68  H   3JJ d   1      12.585  54.195  85.598  0.00  0.00     0.084 H 
ATOM     69  CBD 3JJ d   1      13.174  51.838  83.185  0.00  0.00    -0.017 A 
ATOM     70  H   3JJ d   1      13.993  53.774  83.605  0.00  0.00     0.084 H 
ATOM     71  CBC 3JJ d   1      12.253  50.871  83.644  0.00  0.00    -0.071 A 
ATOM     72  CBB 3JJ d   1      11.471  51.101  84.791  0.00  0.00    -0.074 A 
ATOM     73  H   3JJ d   1      12.147  49.937  83.104  0.00  0.00     0.084 H 
ATOM     74  H   3JJ d   1      10.771  50.339  85.114  0.00  0.00     0.084 H 
BRANCH  69  75
ATOM     75  CBG 3JJ d   1      13.941  51.643  82.086  0.00  0.00     0.040 A 
ATOM     76  SBK 3JJ d   1      15.596  52.157  81.887  0.00  0.00    -0.080 SA
ATOM     77  CBJ 3JJ d   1      15.770  51.541  80.380  0.00  0.00     0.041 A 
ATOM     78  NBI 3JJ d   1      14.621  50.966  80.023  0.00  0.00    -0.258 NA
ATOM     79  H   3JJ d   1      16.672  51.592  79.772  0.00  0.00     0.126 H 
ATOM     80  CBH 3JJ d   1      13.621  51.021  80.942  0.00  0.00     0.049 A 
BRANCH  80  81
ATOM     81  CBL 3JJ d   1      12.253  50.381  80.617  0.00  0.00    -0.034 C 
ATOM     82  H   3JJ d   1      12.283  49.945  79.607  0.00  0.00     0.035 H 
ATOM     83  H   3JJ d   1      11.468  51.151  80.661  0.00  0.00     0.035 H 
ATOM     84  H   3JJ d   1      12.034  49.591  81.351  0.00  0.00     0.035 H 
ENDBRANCH  80  81
ENDBRANCH  69  75
ENDBRANCH  62  65
ENDBRANCH  60  62
ENDBRANCH  47  58
ENDBRANCH   1  43
TORSDOF 19
