REMARK  14 active torsions:
REMARK  status: ('A' for Active; 'I' for Inactive)
REMARK    1  A    between atoms: CAB_1  and  OAY_2 
REMARK    2  A    between atoms: OAY_2  and  CBF_3 
REMARK    3  A    between atoms: CBE_5  and  OAX_6 
REMARK    4  A    between atoms: OAX_6  and  CAA_7 
REMARK    5  A    between atoms: CBD_10  and  OAZ_11 
REMARK    6  A    between atoms: OAZ_11  and  CAR_12 
REMARK    7  A    between atoms: CAR_12  and  CAV_13 
REMARK    8  A    between atoms: CAV_13  and  NBL_14 
REMARK    9  A    between atoms: CBJ_18  and  CBH_19 
REMARK   10  A    between atoms: CBH_19  and  OAG_20 
REMARK   11  A    between atoms: CBH_19  and  CAP_21 
REMARK   12  A    between atoms: CAP_21  and  OAF_22 
REMARK   13  A    between atoms: N_28  and  SBN_29 
REMARK   14  A    between atoms: SBN_29  and  CBG_32 
ROOT
ATOM      1  NBL 3JQ d   1      13.797   3.890  13.949  0.00  0.00    -0.348 N 
ATOM      2  C   3JQ d   1      13.813   3.908  12.590  0.00  0.00     0.243 C 
ATOM      3  O   3JQ d   1      13.543   2.857  11.986  0.00  0.00    -0.271 OA
ATOM      4  CAU 3JQ d   1      14.066   5.074  14.796  0.00  0.00     0.005 C 
ATOM      5  CBJ 3JQ d   1      15.500   5.604  14.551  0.00  0.00     0.009 C 
ATOM      6  CBK 3JQ d   1      15.549   6.447  13.260  0.00  0.00     0.031 C 
ATOM      7  CAT 3JQ d   1      16.724   6.093  12.348  0.00  0.00    -0.045 C 
ATOM      8  CAQ 3JQ d   1      16.564   4.808  11.646  0.00  0.00    -0.061 C 
ATOM      9  CB  3JQ d   1      15.258   4.814  10.858  0.00  0.00    -0.037 C 
ATOM     10  CA  3JQ d   1      14.032   5.084  11.775  0.00  0.00     0.100 C 
ATOM     11  N   3JQ d   1      14.239   6.329  12.549  0.00  0.00    -0.288 N 
ATOM     12  H   3JQ d   1      13.960   4.793  15.854  0.00  0.00     0.065 H 
ATOM     13  H   3JQ d   1      13.342   5.865  14.552  0.00  0.00     0.065 H 
ATOM     14  H   3JQ d   1      16.155   4.731  14.415  0.00  0.00     0.049 H 
ATOM     15  H   3JQ d   1      15.678   7.498  13.556  0.00  0.00     0.074 H 
ATOM     16  H   3JQ d   1      17.636   6.042  12.961  0.00  0.00     0.036 H 
ATOM     17  H   3JQ d   1      16.831   6.888  11.596  0.00  0.00     0.036 H 
ATOM     18  H   3JQ d   1      16.544   3.990  12.381  0.00  0.00     0.033 H 
ATOM     19  H   3JQ d   1      17.407   4.661  10.955  0.00  0.00     0.033 H 
ATOM     20  H   3JQ d   1      15.131   3.835  10.372  0.00  0.00     0.036 H 
ATOM     21  H   3JQ d   1      15.309   5.600  10.091  0.00  0.00     0.036 H 
ATOM     22  H   3JQ d   1      13.143   5.230  11.144  0.00  0.00     0.088 H 
ENDROOT
BRANCH   1  23
ATOM     23  CAV 3JQ d   1      13.623   2.619  14.675  0.00  0.00     0.018 C 
ATOM     24  H   3JQ d   1      13.765   1.786  13.971  0.00  0.00     0.067 H 
ATOM     25  H   3JQ d   1      14.379   2.559  15.472  0.00  0.00     0.067 H 
BRANCH  23  26
ATOM     26  CAR 3JQ d   1      12.236   2.501  15.303  0.00  0.00     0.041 C 
ATOM     27  H   3JQ d   1      12.206   1.597  15.929  0.00  0.00     0.077 H 
ATOM     28  H   3JQ d   1      12.054   3.387  15.929  0.00  0.00     0.077 H 
BRANCH  26  29
ATOM     29  OAZ 3JQ d   1      11.196   2.413  14.311  0.00  0.00    -0.349 OA
BRANCH  29  30
ATOM     30  CBD 3JQ d   1      10.917   1.218  13.722  0.00  0.00     0.071 A 
ATOM     31  CAM 3JQ d   1       9.781   1.186  12.910  0.00  0.00    -0.016 A 
ATOM     32  CBF 3JQ d   1       9.418   0.028  12.274  0.00  0.00     0.104 A 
ATOM     33  H   3JQ d   1       9.184   2.082  12.782  0.00  0.00     0.092 H 
ATOM     34  CBE 3JQ d   1      10.154  -1.135  12.447  0.00  0.00     0.101 A 
ATOM     35  CAK 3JQ d   1      11.311  -1.118  13.244  0.00  0.00    -0.045 A 
ATOM     36  CAJ 3JQ d   1      11.695   0.053  13.884  0.00  0.00    -0.048 A 
ATOM     37  H   3JQ d   1      11.903  -2.018  13.359  0.00  0.00     0.088 H 
ATOM     38  H   3JQ d   1      12.585   0.071  14.503  0.00  0.00     0.087 H 
BRANCH  32  39
ATOM     39  OAY 3JQ d   1       8.302  -0.075  11.491  0.00  0.00    -0.353 OA
BRANCH  39  40
ATOM     40  CAB 3JQ d   1       7.485   1.098  11.381  0.00  0.00     0.010 C 
ATOM     41  H   3JQ d   1       6.625   0.886  10.729  0.00  0.00     0.066 H 
ATOM     42  H   3JQ d   1       8.078   1.919  10.951  0.00  0.00     0.066 H 
ATOM     43  H   3JQ d   1       7.125   1.389  12.379  0.00  0.00     0.066 H 
ENDBRANCH  39  40
ENDBRANCH  32  39
BRANCH  34  44
ATOM     44  OAX 3JQ d   1       9.697  -2.224  11.777  0.00  0.00    -0.353 OA
BRANCH  44  45
ATOM     45  CAA 3JQ d   1      10.374  -3.464  11.914  0.00  0.00     0.010 C 
ATOM     46  H   3JQ d   1       9.868  -4.227  11.305  0.00  0.00     0.066 H 
ATOM     47  H   3JQ d   1      10.365  -3.772  12.970  0.00  0.00     0.066 H 
ATOM     48  H   3JQ d   1      11.414  -3.353  11.573  0.00  0.00     0.066 H 
ENDBRANCH  44  45
ENDBRANCH  34  44
ENDBRANCH  29  30
ENDBRANCH  26  29
ENDBRANCH  23  26
ENDBRANCH   1  23
BRANCH   5  49
ATOM     49  CBH 3JQ d   1      16.065   6.432  15.736  0.00  0.00     0.062 C 
ATOM     50  H   3JQ d   1      17.042   6.862  15.470  0.00  0.00     0.086 H 
BRANCH  49  51
ATOM     51  OAG 3JQ d   1      15.125   7.465  15.992  0.00  0.00    -0.393 OA
ATOM     52  H   3JQ d   1      15.433   8.000  16.715  0.00  0.00     0.210 HD
ENDBRANCH  49  51
BRANCH  49  53
ATOM     53  CAP 3JQ d   1      16.212   5.554  16.950  0.00  0.00     0.041 C 
ATOM     54  H   3JQ d   1      16.737   4.625  16.684  0.00  0.00     0.077 H 
ATOM     55  H   3JQ d   1      15.222   5.310  17.364  0.00  0.00     0.077 H 
BRANCH  53  56
ATOM     56  OAF 3JQ d   1      16.967   6.288  17.893  0.00  0.00    -0.398 OA
ATOM     57  H   3JQ d   1      16.507   7.091  18.109  0.00  0.00     0.209 HD
ENDBRANCH  53  56
ENDBRANCH  49  53
ENDBRANCH   5  49
BRANCH  11  58
ATOM     58  SBN 3JQ d   1      13.618   7.731  11.950  0.00  0.00     0.262 S 
ATOM     59  OAD 3JQ d   1      12.630   7.378  10.882  0.00  0.00    -0.200 OA
ATOM     60  OAE 3JQ d   1      14.676   8.717  11.639  0.00  0.00    -0.200 OA
BRANCH  58  61
ATOM     61  CBG 3JQ d   1      12.726   8.361  13.303  0.00  0.00     0.083 A 
ATOM     62  CAN 3JQ d   1      11.493   7.796  13.610  0.00  0.00    -0.039 A 
ATOM     63  CBB 3JQ d   1      10.771   8.243  14.711  0.00  0.00     0.037 A 
ATOM     64  H   3JQ d   1      11.093   7.003  12.988  0.00  0.00     0.088 H 
ATOM     65 CLB  3JQ d   1       9.264   7.545  15.080  0.00  0.00    -0.084 Cl
ATOM     66  CAL 3JQ d   1      11.253   9.268  15.500  0.00  0.00    -0.041 A 
ATOM     67  CBC 3JQ d   1      12.485   9.831  15.197  0.00  0.00     0.037 A 
ATOM     68  H   3JQ d   1      10.677   9.628  16.345  0.00  0.00     0.088 H 
ATOM     69 CLA  3JQ d   1      13.093  11.078  16.173  0.00  0.00    -0.084 Cl
ATOM     70  CAO 3JQ d   1      13.222   9.372  14.109  0.00  0.00    -0.039 A 
ATOM     71  H   3JQ d   1      14.190   9.809  13.891  0.00  0.00     0.088 H 
ENDBRANCH  58  61
ENDBRANCH  11  58
TORSDOF 14
