REMARK  14 active torsions:
REMARK  status: ('A' for Active; 'I' for Inactive)
REMARK    1  A    between atoms: CAB_1  and  OAY_2 
REMARK    2  A    between atoms: OAY_2  and  CBF_3 
REMARK    3  A    between atoms: CBE_5  and  OAX_6 
REMARK    4  A    between atoms: OAX_6  and  CAA_7 
REMARK    5  A    between atoms: CBD_10  and  OAZ_11 
REMARK    6  A    between atoms: OAZ_11  and  CAR_12 
REMARK    7  A    between atoms: CAR_12  and  CAV_13 
REMARK    8  A    between atoms: CAV_13  and  NBL_14 
REMARK    9  A    between atoms: CBJ_18  and  CBH_19 
REMARK   10  A    between atoms: CBH_19  and  OAG_20 
REMARK   11  A    between atoms: CBH_19  and  CAP_21 
REMARK   12  A    between atoms: CAP_21  and  OAF_22 
REMARK   13  A    between atoms: N_28  and  SBN_29 
REMARK   14  A    between atoms: SBN_29  and  CBG_32 
ROOT
ATOM      1  NBL 3JR d   1      22.577   4.229 -14.000  0.00  0.00    -0.348 N 
ATOM      2  C   3JR d   1      22.570   4.234 -12.624  0.00  0.00     0.243 C 
ATOM      3  O   3JR d   1      22.847   3.178 -12.016  0.00  0.00    -0.271 OA
ATOM      4  CAU 3JR d   1      22.280   5.421 -14.848  0.00  0.00     0.005 C 
ATOM      5  CBJ 3JR d   1      20.863   5.985 -14.596  0.00  0.00     0.009 C 
ATOM      6  CBK 3JR d   1      20.881   6.817 -13.312  0.00  0.00     0.031 C 
ATOM      7  CAT 3JR d   1      19.678   6.466 -12.389  0.00  0.00    -0.045 C 
ATOM      8  CAQ 3JR d   1      19.844   5.117 -11.706  0.00  0.00    -0.061 C 
ATOM      9  CB  3JR d   1      21.172   5.127 -10.888  0.00  0.00    -0.037 C 
ATOM     10  CA  3JR d   1      22.359   5.398 -11.837  0.00  0.00     0.100 C 
ATOM     11  N   3JR d   1      22.196   6.673 -12.598  0.00  0.00    -0.288 N 
ATOM     12  H   3JR d   1      22.362   5.131 -15.906  0.00  0.00     0.065 H 
ATOM     13  H   3JR d   1      23.017   6.206 -14.625  0.00  0.00     0.065 H 
ATOM     14  H   3JR d   1      20.159   5.148 -14.480  0.00  0.00     0.049 H 
ATOM     15  H   3JR d   1      20.776   7.873 -13.600  0.00  0.00     0.074 H 
ATOM     16  H   3JR d   1      18.761   6.444 -12.997  0.00  0.00     0.036 H 
ATOM     17  H   3JR d   1      19.587   7.244 -11.617  0.00  0.00     0.036 H 
ATOM     18  H   3JR d   1      19.883   4.321 -12.464  0.00  0.00     0.033 H 
ATOM     19  H   3JR d   1      18.995   4.938 -11.030  0.00  0.00     0.033 H 
ATOM     20  H   3JR d   1      21.309   4.151 -10.399  0.00  0.00     0.036 H 
ATOM     21  H   3JR d   1      21.126   5.917 -10.124  0.00  0.00     0.036 H 
ATOM     22  H   3JR d   1      23.257   5.529 -11.215  0.00  0.00     0.088 H 
ENDROOT
BRANCH   1  23
ATOM     23  CAV 3JR d   1      22.794   2.950 -14.700  0.00  0.00     0.018 C 
ATOM     24  H   3JR d   1      22.735   2.131 -13.968  0.00  0.00     0.067 H 
ATOM     25  H   3JR d   1      22.006   2.823 -15.457  0.00  0.00     0.067 H 
BRANCH  23  26
ATOM     26  CAR 3JR d   1      24.152   2.893 -15.391  0.00  0.00     0.041 C 
ATOM     27  H   3JR d   1      24.166   2.038 -16.084  0.00  0.00     0.077 H 
ATOM     28  H   3JR d   1      24.307   3.825 -15.955  0.00  0.00     0.077 H 
BRANCH  26  29
ATOM     29  OAZ 3JR d   1      25.228   2.739 -14.426  0.00  0.00    -0.349 OA
BRANCH  29  30
ATOM     30  CBD 3JR d   1      25.498   1.545 -13.795  0.00  0.00     0.071 A 
ATOM     31  CAM 3JR d   1      26.607   1.568 -12.980  0.00  0.00    -0.016 A 
ATOM     32  CBF 3JR d   1      27.037   0.423 -12.349  0.00  0.00     0.104 A 
ATOM     33  H   3JR d   1      27.147   2.497 -12.834  0.00  0.00     0.092 H 
ATOM     34  CBE 3JR d   1      26.320  -0.738 -12.454  0.00  0.00     0.101 A 
ATOM     35  CAK 3JR d   1      25.200  -0.787 -13.261  0.00  0.00    -0.045 A 
ATOM     36  CAJ 3JR d   1      24.787   0.366 -13.907  0.00  0.00    -0.048 A 
ATOM     37  H   3JR d   1      24.653  -1.714 -13.387  0.00  0.00     0.088 H 
ATOM     38  H   3JR d   1      23.888   0.343 -14.512  0.00  0.00     0.087 H 
BRANCH  32  39
ATOM     39  OAY 3JR d   1      28.166   0.327 -11.560  0.00  0.00    -0.353 OA
BRANCH  39  40
ATOM     40  CAB 3JR d   1      28.973   1.517 -11.424  0.00  0.00     0.010 C 
ATOM     41  H   3JR d   1      29.834   1.304 -10.774  0.00  0.00     0.066 H 
ATOM     42  H   3JR d   1      28.369   2.321 -10.979  0.00  0.00     0.066 H 
ATOM     43  H   3JR d   1      29.331   1.833 -12.415  0.00  0.00     0.066 H 
ENDBRANCH  39  40
ENDBRANCH  32  39
BRANCH  34  44
ATOM     44  OAX 3JR d   1      26.783  -1.839 -11.785  0.00  0.00    -0.353 OA
BRANCH  44  45
ATOM     45  CAA 3JR d   1      26.102  -3.102 -11.900  0.00  0.00     0.010 C 
ATOM     46  H   3JR d   1      26.624  -3.856 -11.293  0.00  0.00     0.066 H 
ATOM     47  H   3JR d   1      26.095  -3.420 -12.953  0.00  0.00     0.066 H 
ATOM     48  H   3JR d   1      25.067  -2.995 -11.542  0.00  0.00     0.066 H 
ENDBRANCH  44  45
ENDBRANCH  34  44
ENDBRANCH  29  30
ENDBRANCH  26  29
ENDBRANCH  23  26
ENDBRANCH   1  23
BRANCH   5  49
ATOM     49  CBH 3JR d   1      20.392   6.887 -15.786  0.00  0.00     0.062 C 
ATOM     50  H   3JR d   1      19.513   7.461 -15.456  0.00  0.00     0.086 H 
BRANCH  49  51
ATOM     51  OAG 3JR d   1      19.997   6.043 -16.850  0.00  0.00    -0.393 OA
ATOM     52  H   3JR d   1      20.734   5.507 -17.118  0.00  0.00     0.210 HD
ENDBRANCH  49  51
BRANCH  49  53
ATOM     53  CAP 3JR d   1      21.447   7.878 -16.208  0.00  0.00     0.041 C 
ATOM     54  H   3JR d   1      22.094   7.429 -16.976  0.00  0.00     0.077 H 
ATOM     55  H   3JR d   1      22.056   8.166 -15.339  0.00  0.00     0.077 H 
BRANCH  53  56
ATOM     56  OAF 3JR d   1      20.756   9.087 -16.768  0.00  0.00    -0.398 OA
ATOM     57  H   3JR d   1      20.197   9.468 -16.101  0.00  0.00     0.209 HD
ENDBRANCH  53  56
ENDBRANCH  49  53
ENDBRANCH   5  49
BRANCH  11  58
ATOM     58  SBN 3JR d   1      22.805   8.047 -12.005  0.00  0.00     0.262 S 
ATOM     59  OAD 3JR d   1      23.782   7.633 -10.917  0.00  0.00    -0.200 OA
ATOM     60  OAE 3JR d   1      21.774   9.070 -11.706  0.00  0.00    -0.200 OA
BRANCH  58  61
ATOM     61  CBG 3JR d   1      23.775   8.669 -13.346  0.00  0.00     0.083 A 
ATOM     62  CAN 3JR d   1      24.916   8.025 -13.741  0.00  0.00    -0.039 A 
ATOM     63  CBB 3JR d   1      25.639   8.483 -14.794  0.00  0.00     0.037 A 
ATOM     64  H   3JR d   1      25.245   7.141 -13.208  0.00  0.00     0.088 H 
ATOM     65 CLA  3JR d   1      27.029   7.627 -15.255  0.00  0.00    -0.084 Cl
ATOM     66  CAL 3JR d   1      25.309   9.622 -15.465  0.00  0.00    -0.041 A 
ATOM     67  CBC 3JR d   1      24.165  10.274 -15.064  0.00  0.00     0.037 A 
ATOM     68  H   3JR d   1      25.920   9.998 -16.278  0.00  0.00     0.088 H 
ATOM     69 CLB  3JR d   1      23.686  11.704 -15.875  0.00  0.00    -0.084 Cl
ATOM     70  CAO 3JR d   1      23.396   9.820 -14.009  0.00  0.00    -0.039 A 
ATOM     71  H   3JR d   1      22.507  10.360 -13.706  0.00  0.00     0.088 H 
ENDBRANCH  58  61
ENDBRANCH  11  58
TORSDOF 14
