REMARK  6 active torsions:
REMARK  status: ('A' for Active; 'I' for Inactive)
REMARK       I    between atoms: C80_2  and  N82_3 
REMARK    1  A    between atoms: C80_2  and  C23_5 
REMARK    2  A    between atoms: N82_3  and  C88_4 
REMARK    3  A    between atoms: C18_9  and  S24_11 
REMARK    4  A    between atoms: S24_11  and  C07_12 
REMARK    5  A    between atoms: C13_19  and  C16_21 
REMARK    6  A    between atoms: C17_22  and  C02_23 
ROOT
ATOM      1  C07 AXI d   1      11.449 155.406  35.174  0.00  0.00     0.007 A 
ATOM      2  C08 AXI d   1      10.094 155.605  35.510  0.00  0.00    -0.065 A 
ATOM      3  C09 AXI d   1       9.106 154.731  35.021  0.00  0.00    -0.067 A 
ATOM      4  C12 AXI d   1      11.829 154.355  34.355  0.00  0.00    -0.038 A 
ATOM      5  C11 AXI d   1      10.820 153.466  33.853  0.00  0.00     0.064 A 
ATOM      6  N15 AXI d   1      10.913 152.363  33.024  0.00  0.00    -0.277 N 
ATOM      7  N14 AXI d   1       9.646 151.866  32.837  0.00  0.00    -0.174 NA
ATOM      8  C13 AXI d   1       8.750 152.610  33.518  0.00  0.00     0.089 A 
ATOM      9  C10 AXI d   1       9.490 153.650  34.178  0.00  0.00     0.022 A 
ATOM     10  H9  AXI d   1       9.812 156.435  36.148  0.00  0.00     0.085 H 
ATOM     11  H10 AXI d   1       8.065 154.879  35.283  0.00  0.00     0.085 H 
ATOM     12  H11 AXI d   1      12.871 154.207  34.097  0.00  0.00     0.089 H 
ATOM     13  H12 AXI d   1      11.779 151.981  32.618  0.00  0.00     0.189 HD
ENDROOT
BRANCH   1  14
ATOM     14  S24 AXI d   1      12.701 156.518  35.819  0.00  0.00    -0.089 SA
BRANCH  14  15
ATOM     15  C18 AXI d   1      12.352 156.592  37.579  0.00  0.00     0.021 A 
ATOM     16  C23 AXI d   1      12.559 157.773  38.313  0.00  0.00     0.049 A 
ATOM     17  C22 AXI d   1      12.266 157.805  39.676  0.00  0.00    -0.066 A 
ATOM     18  C21 AXI d   1      11.767 156.673  40.308  0.00  0.00    -0.082 A 
ATOM     19  H5  AXI d   1      12.428 158.714  40.243  0.00  0.00     0.085 H 
ATOM     20  C20 AXI d   1      11.558 155.501  39.574  0.00  0.00    -0.082 A 
ATOM     21  H6  AXI d   1      11.540 156.698  41.368  0.00  0.00     0.083 H 
ATOM     22  C19 AXI d   1      11.856 155.471  38.208  0.00  0.00    -0.065 A 
ATOM     23  H7  AXI d   1      11.165 154.617  40.063  0.00  0.00     0.083 H 
ATOM     24  H8  AXI d   1      11.696 154.561  37.641  0.00  0.00     0.085 H 
BRANCH  16  25
ATOM     25  C80 AXI d   1      13.111 158.986  37.635  0.00  0.00     0.252 C 
ATOM     26  O81 AXI d   1      14.146 158.892  36.995  0.00  0.00    -0.268 OA
ATOM     27  N82 AXI d   1      12.462 160.257  37.745  0.00  0.00    -0.361 N 
ATOM     28  H1  AXI d   1      11.625 160.342  38.285  0.00  0.00     0.162 HD
BRANCH  27  29
ATOM     29  C88 AXI d   1      13.012 161.426  37.076  0.00  0.00    -0.018 C 
ATOM     30  H2  AXI d   1      12.375 162.299  37.280  0.00  0.00     0.056 H 
ATOM     31  H3  AXI d   1      13.049 161.244  35.992  0.00  0.00     0.056 H 
ATOM     32  H4  AXI d   1      14.028 161.618  37.450  0.00  0.00     0.056 H 
ENDBRANCH  27  29
ENDBRANCH  16  25
ENDBRANCH  14  15
ENDBRANCH   1  14
BRANCH   8  33
ATOM     33  C16 AXI d   1       7.267 152.350  33.545  0.00  0.00    -0.050 C 
ATOM     34  C17 AXI d   1       6.380 153.148  34.222  0.00  0.00    -0.053 C 
ATOM     35  H14 AXI d   1       6.728 154.058  34.709  0.00  0.00     0.087 H 
ATOM     36  H13 AXI d   1       6.881 151.489  33.002  0.00  0.00     0.087 H 
BRANCH  34  37
ATOM     37  C02 AXI d   1       4.925 152.765  34.291  0.00  0.00     0.056 A 
ATOM     38  N03 AXI d   1       4.422 151.890  33.398  0.00  0.00    -0.261 NA
ATOM     39  C04 AXI d   1       3.118 151.527  33.431  0.00  0.00     0.003 A 
ATOM     40  C05 AXI d   1       2.273 152.066  34.398  0.00  0.00    -0.066 A 
ATOM     41  H15 AXI d   1       2.733 150.819  32.707  0.00  0.00     0.114 H 
ATOM     42  C06 AXI d   1       2.771 152.972  35.327  0.00  0.00    -0.079 A 
ATOM     43  H16 AXI d   1       1.228 151.779  34.426  0.00  0.00     0.085 H 
ATOM     44  C01 AXI d   1       4.118 153.327  35.268  0.00  0.00    -0.055 A 
ATOM     45  H17 AXI d   1       2.123 153.396  36.085  0.00  0.00     0.083 H 
ATOM     46  H18 AXI d   1       4.530 154.035  35.978  0.00  0.00     0.087 H 
ENDBRANCH  34  37
ENDBRANCH   8  33
TORSDOF 6
