REMARK  2 active torsions:
REMARK  status: ('A' for Active; 'I' for Inactive)
REMARK    1  A    between atoms: C1_1  and  O7_7 
REMARK    2  A    between atoms: C2_2  and  O8_8 
ROOT
ATOM      1  C1  3N8 d   1     -16.928 -51.401 -33.519  0.00  0.00     0.099 A 
ATOM      2  C2  3N8 d   1     -18.305 -51.262 -33.664  0.00  0.00     0.101 A 
ATOM      3  C3  3N8 d   1     -18.819 -50.595 -34.773  0.00  0.00    -0.011 A 
ATOM      4  C4  3N8 d   1     -17.952 -50.065 -35.738  0.00  0.00     0.119 A 
ATOM      5  C5  3N8 d   1     -16.580 -50.223 -35.602  0.00  0.00    -0.043 A 
ATOM      6  C6  3N8 d   1     -16.069 -50.877 -34.488  0.00  0.00    -0.045 A 
ATOM      7  F9  3N8 d   1     -18.446 -49.427 -36.813  0.00  0.00    -0.206 F 
ATOM      8  H   3N8 d   1     -19.891 -50.486 -34.890  0.00  0.00     0.092 H 
ATOM      9  H   3N8 d   1     -15.910 -49.838 -36.362  0.00  0.00     0.088 H 
ATOM     10  H   3N8 d   1     -14.996 -50.981 -34.370  0.00  0.00     0.088 H 
ENDROOT
BRANCH   1  11
ATOM     11  O7  3N8 d   1     -16.465 -52.046 -32.411  0.00  0.00    -0.358 OA
ATOM     12  H   3N8 d   1     -15.915 -51.456 -31.909  0.00  0.00     0.217 HD
ENDBRANCH   1  11
BRANCH   2  13
ATOM     13  O8  3N8 d   1     -19.155 -51.776 -32.725  0.00  0.00    -0.358 OA
ATOM     14  H   3N8 d   1     -18.650 -52.196 -32.039  0.00  0.00     0.217 HD
ENDBRANCH   2  13
TORSDOF 2
