REMARK  8 active torsions:
REMARK  status: ('A' for Active; 'I' for Inactive)
REMARK    1  A    between atoms: C2_2  and  C6_6 
REMARK    2  A    between atoms: C8_7  and  C3_3 
REMARK    3  A    between atoms: C4_4  and  C5_5 
REMARK    4  A    between atoms: C11_15  and  C14_9 
REMARK    5  A    between atoms: N29_23  and  C30_24 
REMARK    6  A    between atoms: C30_24  and  C31_25 
REMARK    7  A    between atoms: C30_24  and  C32_26 
REMARK    8  A    between atoms: C30_24  and  C33_27 
ROOT
ATOM      1  C14 3P2 d   1      15.527  -2.611  -8.560  0.00  0.00     0.089 A 
ATOM      2  C16 3P2 d   1      16.799  -0.806  -8.533  0.00  0.00     0.131 A 
ATOM      3  C18 3P2 d   1      15.838  -2.185  -7.183  0.00  0.00     0.138 A 
ATOM      4  N2  3P2 d   1      16.180  -1.720  -9.326  0.00  0.00    -0.337 N 
ATOM      5  N3  3P2 d   1      16.589  -1.086  -7.224  0.00  0.00    -0.290 N 
ATOM      6  C25 3P2 d   1      17.573   0.291  -8.901  0.00  0.00     0.045 A 
ATOM      7  N26 3P2 d   1      18.095   1.079  -7.955  0.00  0.00    -0.268 NA
ATOM      8  C27 3P2 d   1      17.881   0.795  -6.663  0.00  0.00     0.017 A 
ATOM      9  C28 3P2 d   1      17.119  -0.297  -6.281  0.00  0.00     0.005 A 
ATOM     10  N29 3P2 d   1      15.376  -2.775  -6.042  0.00  0.00    -0.366 N 
ATOM     11  H   3P2 d   1      17.752   0.505  -9.948  0.00  0.00     0.120 H 
ATOM     12  H   3P2 d   1      18.313   1.433  -5.901  0.00  0.00     0.116 H 
ATOM     13  H   3P2 d   1      16.954  -0.510  -5.231  0.00  0.00     0.114 H 
ATOM     14  H   3P2 d   1      15.946  -3.512  -5.602  0.00  0.00     0.162 HD
ATOM     15  H1  3P2 d   1      16.207  -1.729 -10.356  0.00  0.00     0.167 HD
ENDROOT
BRANCH   1  16
ATOM     16  C11 3P2 d   1      14.827  -3.801  -9.086  0.00  0.00    -0.005 A 
ATOM     17  C10 3P2 d   1      14.708  -4.935  -8.287  0.00  0.00    -0.070 A 
ATOM     18  C9  3P2 d   1      14.115  -6.075  -8.802  0.00  0.00    -0.071 A 
ATOM     19  H   3P2 d   1      15.077  -4.925  -7.268  0.00  0.00     0.084 H 
ATOM     20  C8  3P2 d   1      13.688  -6.085 -10.128  0.00  0.00    -0.021 A 
ATOM     21  H   3P2 d   1      13.984  -6.952  -8.179  0.00  0.00     0.084 H 
ATOM     22  C13 3P2 d   1      13.859  -4.975 -10.938  0.00  0.00    -0.071 A 
ATOM     23  C12 3P2 d   1      14.447  -3.825 -10.419  0.00  0.00    -0.070 A 
ATOM     24  H   3P2 d   1      13.536  -5.002 -11.973  0.00  0.00     0.084 H 
ATOM     25  H   3P2 d   1      14.606  -2.958 -11.050  0.00  0.00     0.084 H 
BRANCH  20  26
ATOM     26  C3  3P2 d   1      13.058  -7.315 -10.660  0.00  0.00     0.032 A 
ATOM     27  C2  3P2 d   1      13.565  -8.674 -10.485  0.00  0.00     0.088 A 
ATOM     28  O1  3P2 d   1      12.681  -9.494 -11.100  0.00  0.00    -0.217 OA
ATOM     29  N1  3P2 d   1      11.640  -8.827 -11.653  0.00  0.00    -0.133 NA
ATOM     30  C4  3P2 d   1      11.790  -7.488 -11.413  0.00  0.00     0.071 A 
BRANCH  27  31
ATOM     31  C6  3P2 d   1      14.793  -9.255  -9.850  0.00  0.00    -0.028 C 
ATOM     32  H   3P2 d   1      15.391  -8.448  -9.402  0.00  0.00     0.036 H 
ATOM     33  H   3P2 d   1      15.391  -9.773 -10.614  0.00  0.00     0.036 H 
ATOM     34  H   3P2 d   1      14.498  -9.970  -9.068  0.00  0.00     0.036 H 
ENDBRANCH  27  31
BRANCH  30  35
ATOM     35  C5  3P2 d   1      10.868  -6.382 -11.838  0.00  0.00    -0.033 C 
ATOM     36  H   3P2 d   1      10.010  -6.808 -12.378  0.00  0.00     0.035 H 
ATOM     37  H   3P2 d   1      11.409  -5.687 -12.498  0.00  0.00     0.035 H 
ATOM     38  H   3P2 d   1      10.510  -5.841 -10.950  0.00  0.00     0.035 H 
ENDBRANCH  30  35
ENDBRANCH  20  26
ENDBRANCH   1  16
BRANCH  10  39
ATOM     39  C30 3P2 d   1      14.106  -2.405  -5.418  0.00  0.00     0.021 C 
BRANCH  39  40
ATOM     40  C31 3P2 d   1      13.778  -3.397  -4.302  0.00  0.00    -0.054 C 
ATOM     41  H   3P2 d   1      12.823  -3.119  -3.833  0.00  0.00     0.030 H 
ATOM     42  H   3P2 d   1      14.577  -3.376  -3.546  0.00  0.00     0.030 H 
ATOM     43  H   3P2 d   1      13.698  -4.410  -4.723  0.00  0.00     0.030 H 
ENDBRANCH  39  40
BRANCH  39  44
ATOM     44  C32 3P2 d   1      14.161  -1.001  -4.824  0.00  0.00    -0.054 C 
ATOM     45  H   3P2 d   1      13.191  -0.759  -4.365  0.00  0.00     0.030 H 
ATOM     46  H   3P2 d   1      14.382  -0.275  -5.620  0.00  0.00     0.030 H 
ATOM     47  H   3P2 d   1      14.950  -0.957  -4.059  0.00  0.00     0.030 H 
ENDBRANCH  39  44
BRANCH  39  48
ATOM     48  C33 3P2 d   1      12.973  -2.420  -6.439  0.00  0.00    -0.054 C 
ATOM     49  H   3P2 d   1      12.031  -2.139  -5.946  0.00  0.00     0.030 H 
ATOM     50  H   3P2 d   1      12.877  -3.430  -6.865  0.00  0.00     0.030 H 
ATOM     51  H   3P2 d   1      13.194  -1.702  -7.243  0.00  0.00     0.030 H 
ENDBRANCH  39  48
ENDBRANCH  10  39
TORSDOF 8
