REMARK  6 active torsions:
REMARK  status: ('A' for Active; 'I' for Inactive)
REMARK    1  A    between atoms: C2'_10  and  O2'_11 
REMARK    2  A    between atoms: C1'_12  and  N9_13 
REMARK    3  A    between atoms: C6_17  and  N6_18 
REMARK    4  A    between atoms: C2'1_32  and  O2'1_33 
REMARK    5  A    between atoms: C1'1_34  and  N91_35 
REMARK    6  A    between atoms: C61_39  and  N61_40 
ROOT
ATOM      1  P   2BA d   1      14.238 -28.817  12.446  0.00  0.00     0.408 P 
ATOM      2  O1P 2BA d   1      14.848 -29.245  11.140  0.00  0.00    -0.624 OA
ATOM      3  O2P 2BA d   1      13.595 -27.405  12.187  0.00  0.00    -0.624 OA
ATOM      4  O5' 2BA d   1      13.168 -29.947  12.791  0.00  0.00    -0.287 OA
ATOM      5  C5' 2BA d   1      12.366 -29.782  13.938  0.00  0.00     0.058 C 
ATOM      6  C4' 2BA d   1      11.518 -31.056  14.076  0.00  0.00     0.090 C 
ATOM      7  O4' 2BA d   1      10.844 -31.171  12.927  0.00  0.00    -0.353 OA
ATOM      8  C3' 2BA d   1      12.417 -32.264  14.197  0.00  0.00     0.106 C 
ATOM      9  O3' 2BA d   1      12.681 -32.541  15.523  0.00  0.00    -0.279 OA
ATOM     10  C2' 2BA d   1      11.472 -33.347  13.546  0.00  0.00     0.106 C 
ATOM     11  C1' 2BA d   1      10.763 -32.743  12.627  0.00  0.00     0.140 C 
ATOM     12  P1  2BA d   1      14.174 -33.066  15.858  0.00  0.00     0.408 P 
ATOM     13  O1P 2BA d   1      14.371 -34.384  15.123  0.00  0.00    -0.624 OA
ATOM     14  O2P 2BA d   1      14.456 -33.346  17.328  0.00  0.00    -0.624 OA
ATOM     15  O5' 2BA d   1      15.215 -31.977  15.105  0.00  0.00    -0.287 OA
ATOM     16  C5' 2BA d   1      15.624 -30.945  15.965  0.00  0.00     0.058 C 
ATOM     17  C4' 2BA d   1      16.673 -30.120  15.273  0.00  0.00     0.090 C 
ATOM     18  O4' 2BA d   1      17.819 -30.713  15.335  0.00  0.00    -0.353 OA
ATOM     19  C3' 2BA d   1      16.345 -29.888  13.654  0.00  0.00     0.106 C 
ATOM     20  O3' 2BA d   1      15.538 -28.667  13.488  0.00  0.00    -0.279 OA
ATOM     21  C2' 2BA d   1      17.484 -29.741  13.115  0.00  0.00     0.106 C 
ATOM     22  C1' 2BA d   1      18.490 -30.621  13.957  0.00  0.00     0.140 C 
ATOM     23  H   2BA d   1      11.714 -28.904  13.820  0.00  0.00     0.079 H 
ATOM     24  H   2BA d   1      13.000 -29.651  14.827  0.00  0.00     0.079 H 
ATOM     25  H   2BA d   1      10.839 -30.988  14.939  0.00  0.00     0.090 H 
ATOM     26  H   2BA d   1      13.359 -32.146  13.642  0.00  0.00     0.092 H 
ATOM     27  H   2BA d   1      12.063 -34.162  13.103  0.00  0.00     0.093 H 
ATOM     28  H   2BA d   1       9.716 -33.069  12.707  0.00  0.00     0.122 H 
ATOM     29  H   2BA d   1      16.042 -31.376  16.886  0.00  0.00     0.079 H 
ATOM     30  H   2BA d   1      14.761 -30.310  16.216  0.00  0.00     0.079 H 
ATOM     31  H   2BA d   1      16.734 -29.142  15.773  0.00  0.00     0.090 H 
ATOM     32  H   2BA d   1      15.815 -30.752  13.227  0.00  0.00     0.092 H 
ATOM     33  H   2BA d   1      17.463 -30.041  12.057  0.00  0.00     0.093 H 
ATOM     34  H   2BA d   1      19.460 -30.109  14.034  0.00  0.00     0.122 H 
ENDROOT
BRANCH  11  35
ATOM     35  N9  2BA d   1      11.229 -33.064  11.319  0.00  0.00    -0.294 N 
ATOM     36  C8  2BA d   1      12.116 -32.174  10.813  0.00  0.00     0.071 A 
ATOM     37  N7  2BA d   1      12.490 -32.603   9.560  0.00  0.00    -0.236 NA
ATOM     38  H   2BA d   1      12.472 -31.274  11.312  0.00  0.00     0.144 H 
ATOM     39  C5  2BA d   1      11.816 -33.774   9.318  0.00  0.00     0.149 A 
ATOM     40  C6  2BA d   1      11.787 -34.680   8.225  0.00  0.00     0.155 A 
ATOM     41  C4  2BA d   1      11.045 -34.037  10.383  0.00  0.00     0.167 A 
ATOM     42  N1  2BA d   1      11.016 -35.764   8.272  0.00  0.00    -0.222 NA
ATOM     43  C2  2BA d   1      10.244 -36.022   9.363  0.00  0.00     0.091 A 
ATOM     44  N3  2BA d   1      10.262 -35.150  10.444  0.00  0.00    -0.222 NA
ATOM     45  H   2BA d   1       9.617 -36.906   9.388  0.00  0.00     0.146 H 
BRANCH  40  46
ATOM     46  N6  2BA d   1      12.452 -34.703   6.969  0.00  0.00    -0.382 N 
ATOM     47  H   2BA d   1      12.280 -35.475   6.309  0.00  0.00     0.157 HD
ATOM     48  H   2BA d   1      13.106 -33.948   6.719  0.00  0.00     0.157 HD
ENDBRANCH  40  46
ENDBRANCH  11  35
BRANCH  10  49
ATOM     49  O2' 2BA d   1      10.586 -33.869  14.575  0.00  0.00    -0.388 OA
ATOM     50  H   2BA d   1      10.011 -34.523  14.195  0.00  0.00     0.210 HD
ENDBRANCH  10  49
BRANCH  21  51
ATOM     51  O2' 2BA d   1      17.948 -28.309  13.266  0.00  0.00    -0.388 OA
ATOM     52  H   2BA d   1      17.325 -27.729  12.844  0.00  0.00     0.210 HD
ENDBRANCH  21  51
BRANCH  22  53
ATOM     53  N91 2BA d   1      18.692 -31.830  13.458  0.00  0.00    -0.294 N 
ATOM     54  C81 2BA d   1      17.839 -32.873  13.293  0.00  0.00     0.071 A 
ATOM     55  N71 2BA d   1      18.547 -33.907  12.755  0.00  0.00    -0.236 NA
ATOM     56  H   2BA d   1      16.780 -32.882  13.545  0.00  0.00     0.144 H 
ATOM     57  C51 2BA d   1      19.842 -33.496  12.598  0.00  0.00     0.149 A 
ATOM     58  C61 2BA d   1      20.978 -34.152  12.098  0.00  0.00     0.155 A 
ATOM     59  C41 2BA d   1      19.935 -32.221  13.037  0.00  0.00     0.167 A 
ATOM     60  N11 2BA d   1      22.175 -33.498  12.053  0.00  0.00    -0.222 NA
ATOM     61  C21 2BA d   1      22.264 -32.207  12.497  0.00  0.00     0.091 A 
ATOM     62  N31 2BA d   1      21.146 -31.564  12.985  0.00  0.00    -0.222 NA
ATOM     63  H   2BA d   1      23.215 -31.689  12.465  0.00  0.00     0.146 H 
BRANCH  58  64
ATOM     64  N61 2BA d   1      20.975 -35.515  11.613  0.00  0.00    -0.382 N 
ATOM     65  H   2BA d   1      21.845 -35.937  11.259  0.00  0.00     0.157 HD
ATOM     66  H   2BA d   1      20.103 -36.063  11.622  0.00  0.00     0.157 HD
ENDBRANCH  58  64
ENDBRANCH  22  53
TORSDOF 6
