REMARK  7 active torsions:
REMARK  status: ('A' for Active; 'I' for Inactive)
REMARK    1  A    between atoms: C6_4  and  N6_15 
REMARK    2  A    between atoms: S_6  and  CS5_5 
REMARK    3  A    between atoms: C5'_7  and  S_6 
REMARK    4  A    between atoms: C4'_8  and  C5'_7 
REMARK    5  A    between atoms: C10_11  and  N1'_10 
REMARK    6  A    between atoms: C10_11  and  C9_12 
REMARK    7  A    between atoms: C3'_19  and  O3'_20 
ROOT
ATOM      1  C4' TDI d   1      12.103  45.131 -35.275  0.00  0.00     0.004 C 
ATOM      2  C1' TDI d   1      12.083  46.199 -34.173  0.00  0.00     0.090 C 
ATOM      3  N1' TDI d   1      10.720  46.170 -33.591  0.00  0.00    -0.064 N 
ATOM      4  C2' TDI d   1       9.863  45.443 -34.571  0.00  0.00     0.108 C 
ATOM      5  C3' TDI d   1      10.808  44.365 -35.077  0.00  0.00     0.064 C 
ATOM      6  H7  TDI d   1      12.965  44.459 -35.152  0.00  0.00     0.047 H 
ATOM      7  H8  TDI d   1      12.294  47.191 -34.600  0.00  0.00     0.076 H 
ATOM      8  H9  TDI d   1      12.832  45.965 -33.402  0.00  0.00     0.076 H 
ATOM      9  H10 TDI d   1      10.755  45.635 -32.738  0.00  0.00     0.280 HD
ATOM     10  H17 TDI d   1       9.539  46.105 -35.387  0.00  0.00     0.080 H 
ATOM     11  H18 TDI d   1       8.981  45.004 -34.082  0.00  0.00     0.080 H 
ATOM     12  H19 TDI d   1      10.449  43.913 -36.013  0.00  0.00     0.086 H 
ENDROOT
BRANCH   3  13
ATOM     13  C10 TDI d   1      10.178  47.486 -33.246  0.00  0.00     0.111 C 
ATOM     14  H11 TDI d   1      10.665  47.792 -32.309  0.00  0.00     0.083 H 
ATOM     15  H12 TDI d   1       9.101  47.347 -33.071  0.00  0.00     0.083 H 
BRANCH  13  16
ATOM     16  C9  TDI d   1      10.315  48.652 -34.207  0.00  0.00     0.014 A 
ATOM     17  C4  TDI d   1       9.577  48.981 -35.350  0.00  0.00     0.098 A 
ATOM     18  C5  TDI d   1      10.041  50.178 -35.870  0.00  0.00     0.107 A 
ATOM     19  N3  TDI d   1       8.576  48.289 -35.955  0.00  0.00    -0.239 NA
ATOM     20  C6  TDI d   1       9.446  50.665 -37.037  0.00  0.00     0.151 A 
ATOM     21  N7  TDI d   1      11.021  50.608 -35.059  0.00  0.00    -0.360 N 
ATOM     22  N1  TDI d   1       8.443  49.956 -37.618  0.00  0.00    -0.223 NA
ATOM     23  C2  TDI d   1       8.025  48.790 -37.079  0.00  0.00     0.089 A 
ATOM     24  H1  TDI d   1       7.225  48.242 -37.563  0.00  0.00     0.146 H 
ATOM     25  C8  TDI d   1      11.211  49.710 -34.052  0.00  0.00    -0.012 A 
ATOM     26  H14 TDI d   1      11.549  51.484 -35.180  0.00  0.00     0.165 HD
ATOM     27  H13 TDI d   1      11.945  49.803 -33.253  0.00  0.00     0.112 H 
BRANCH  20  28
ATOM     28  N6  TDI d   1       9.855  51.841 -37.592  0.00  0.00    -0.382 N 
ATOM     29  H15 TDI d   1       9.407  52.188 -38.452  0.00  0.00     0.157 HD
ATOM     30  H16 TDI d   1      10.612  52.383 -37.151  0.00  0.00     0.157 HD
ENDBRANCH  20  28
ENDBRANCH  13  16
ENDBRANCH   3  13
BRANCH   1  31
ATOM     31  C5' TDI d   1      12.183  45.805 -36.649  0.00  0.00    -0.017 C 
ATOM     32  H5  TDI d   1      11.230  46.317 -36.847  0.00  0.00     0.049 H 
ATOM     33  H6  TDI d   1      12.999  46.542 -36.634  0.00  0.00     0.049 H 
BRANCH  31  34
ATOM     34  S   TDI d   1      12.485  44.654 -37.941  0.00  0.00    -0.173 SA
BRANCH  34  35
ATOM     35  CS5 TDI d   1      14.206  44.262 -37.862  0.00  0.00    -0.035 C 
ATOM     36  H2  TDI d   1      14.454  43.540 -38.654  0.00  0.00     0.041 H 
ATOM     37  H3  TDI d   1      14.438  43.824 -36.880  0.00  0.00     0.041 H 
ATOM     38  H4  TDI d   1      14.798  45.178 -38.003  0.00  0.00     0.041 H 
ENDBRANCH  34  35
ENDBRANCH  31  34
ENDBRANCH   1  31
BRANCH   5  39
ATOM     39  O3' TDI d   1      11.000  43.357 -34.074  0.00  0.00    -0.393 OA
ATOM     40  H20 TDI d   1      10.163  42.961 -33.861  0.00  0.00     0.210 HD
ENDBRANCH   5  39
TORSDOF 7
