REMARK  11 active torsions:
REMARK  status: ('A' for Active; 'I' for Inactive)
REMARK    1  A    between atoms: C_1  and  OXT_2 
REMARK    2  A    between atoms: C_1  and  CA_3 
REMARK    3  A    between atoms: CA_3  and  CB_4 
REMARK    4  A    between atoms: CB_4  and  CG_5 
REMARK    5  A    between atoms: CG_5  and  S5'_6 
REMARK    6  A    between atoms: S5'_6  and  C5'_7 
REMARK    7  A    between atoms: C5'_7  and  C4'_8 
REMARK    8  A    between atoms: C3'_10  and  O3'_11 
REMARK    9  A    between atoms: N1'_13  and  C10_14 
REMARK   10  A    between atoms: C10_14  and  C9_15 
REMARK   11  A    between atoms: C6_23  and  N6_24 
ROOT
ATOM      1  C4' HCE d   1     -35.270 -45.219  12.126  0.00  0.00     0.004 C 
ATOM      2  C1' HCE d   1     -34.162 -46.256  12.098  0.00  0.00     0.090 C 
ATOM      3  C3' HCE d   1     -35.077 -44.436  10.845  0.00  0.00     0.064 C 
ATOM      4  C2' HCE d   1     -34.600 -45.491   9.871  0.00  0.00     0.108 C 
ATOM      5  N1' HCE d   1     -33.615 -46.205  10.718  0.00  0.00    -0.064 N 
ATOM      6  H12 HCE d   1     -35.171 -44.557  12.999  0.00  0.00     0.047 H 
ATOM      7  H13 HCE d   1     -34.564 -47.256  12.317  0.00  0.00     0.076 H 
ATOM      8  H14 HCE d   1     -33.381 -46.006  12.832  0.00  0.00     0.076 H 
ATOM      9  H15 HCE d   1     -36.017 -43.964  10.521  0.00  0.00     0.086 H 
ATOM     10  H17 HCE d   1     -34.126 -45.043   8.985  0.00  0.00     0.080 H 
ATOM     11  H18 HCE d   1     -35.419 -46.153   9.554  0.00  0.00     0.080 H 
ATOM     12  H19 HCE d   1     -32.772 -45.653  10.748  0.00  0.00     0.280 HD
ENDROOT
BRANCH   1  13
ATOM     13  C5' HCE d   1     -36.625 -45.932  12.177  0.00  0.00    -0.016 C 
ATOM     14  H10 HCE d   1     -36.835 -46.359  11.185  0.00  0.00     0.049 H 
ATOM     15  H11 HCE d   1     -36.569 -46.741  12.921  0.00  0.00     0.049 H 
BRANCH  13  16
ATOM     16  S5' HCE d   1     -37.944 -44.853  12.616  0.00  0.00    -0.169 SA
BRANCH  16  17
ATOM     17  CG  HCE d   1     -37.719 -44.675  14.360  0.00  0.00    -0.023 C 
ATOM     18  H8  HCE d   1     -37.641 -45.680  14.799  0.00  0.00     0.049 H 
ATOM     19  H9  HCE d   1     -36.781 -44.126  14.530  0.00  0.00     0.049 H 
BRANCH  17  20
ATOM     20  CB  HCE d   1     -38.841 -43.930  15.077  0.00  0.00    -0.055 C 
ATOM     21  H6  HCE d   1     -38.843 -42.873  14.774  0.00  0.00     0.034 H 
ATOM     22  H7  HCE d   1     -39.812 -44.384  14.829  0.00  0.00     0.034 H 
BRANCH  20  23
ATOM     23  CA  HCE d   1     -38.579 -44.043  16.582  0.00  0.00    -0.045 C 
ATOM     24  H4  HCE d   1     -38.328 -45.088  16.814  0.00  0.00     0.036 H 
ATOM     25  H5  HCE d   1     -37.727 -43.396  16.837  0.00  0.00     0.036 H 
BRANCH  23  26
ATOM     26  C   HCE d   1     -39.766 -43.633  17.433  0.00  0.00     0.017 C 
ATOM     27  H1  HCE d   1     -40.664 -44.177  17.105  0.00  0.00     0.073 H 
ATOM     28  H2  HCE d   1     -39.563 -43.863  18.489  0.00  0.00     0.073 H 
BRANCH  26  29
ATOM     29  OXT HCE d   1     -39.967 -42.230  17.275  0.00  0.00    -0.401 OA
ATOM     30  H3  HCE d   1     -40.708 -41.956  17.802  0.00  0.00     0.209 HD
ENDBRANCH  26  29
ENDBRANCH  23  26
ENDBRANCH  20  23
ENDBRANCH  17  20
ENDBRANCH  16  17
ENDBRANCH  13  16
ENDBRANCH   1  13
BRANCH   3  31
ATOM     31  O3' HCE d   1     -34.040 -43.456  10.955  0.00  0.00    -0.393 OA
ATOM     32  H16 HCE d   1     -33.956 -42.992  10.130  0.00  0.00     0.210 HD
ENDBRANCH   3  31
BRANCH   5  33
ATOM     33  C10 HCE d   1     -33.243 -47.505  10.152  0.00  0.00     0.111 C 
ATOM     34  H20 HCE d   1     -32.295 -47.801  10.624  0.00  0.00     0.083 H 
ATOM     35  H21 HCE d   1     -33.084 -47.352   9.075  0.00  0.00     0.083 H 
BRANCH  33  36
ATOM     36  C9  HCE d   1     -34.188 -48.671  10.295  0.00  0.00     0.014 A 
ATOM     37  C8  HCE d   1     -34.058 -49.745  11.186  0.00  0.00    -0.012 A 
ATOM     38  N7  HCE d   1     -35.072 -50.646  11.007  0.00  0.00    -0.360 N 
ATOM     39  H22 HCE d   1     -33.260 -49.848  11.920  0.00  0.00     0.112 H 
ATOM     40  C5  HCE d   1     -35.896 -50.244  10.025  0.00  0.00     0.107 A 
ATOM     41  H23 HCE d   1     -35.188 -51.513  11.550  0.00  0.00     0.165 HD
ATOM     42  C4  HCE d   1     -35.392 -48.983   9.507  0.00  0.00     0.098 A 
ATOM     43  C6  HCE d   1     -37.131 -50.750   9.391  0.00  0.00     0.151 A 
ATOM     44  N3  HCE d   1     -36.013 -48.316   8.504  0.00  0.00    -0.239 NA
ATOM     45  C2  HCE d   1     -37.139 -48.845   7.966  0.00  0.00     0.089 A 
ATOM     46  N1  HCE d   1     -37.693 -50.016   8.394  0.00  0.00    -0.223 NA
ATOM     47  H24 HCE d   1     -37.623 -48.312   7.156  0.00  0.00     0.146 H 
BRANCH  43  48
ATOM     48  N6  HCE d   1     -37.680 -51.924   9.813  0.00  0.00    -0.382 N 
ATOM     49  H25 HCE d   1     -38.541 -52.278   9.372  0.00  0.00     0.157 HD
ATOM     50  H26 HCE d   1     -37.234 -52.457  10.573  0.00  0.00     0.157 HD
ENDBRANCH  43  48
ENDBRANCH  33  36
ENDBRANCH   5  33
TORSDOF 11
