REMARK  12 active torsions:
REMARK  status: ('A' for Active; 'I' for Inactive)
REMARK    1  A    between atoms: C4'_2  and  C5'_1 
REMARK    2  A    between atoms: C5'_1  and  C6'_16 
REMARK    3  A    between atoms: C3'_3  and  O3'_4 
REMARK    4  A    between atoms: C10_21  and  N1'_15 
REMARK    5  A    between atoms: C6'_16  and  S6'_17 
REMARK    6  A    between atoms: S6'_17  and  C20_18 
REMARK    7  A    between atoms: C20_18  and  C21_19 
REMARK    8  A    between atoms: C21_19  and  O22_20 
REMARK    9  A    between atoms: O22_20  and  C23_24 
REMARK   10  A    between atoms: C10_21  and  C9_22 
REMARK   11  A    between atoms: C23_24  and  C24_25 
REMARK   12  A    between atoms: C24_25  and  O25_26 
ROOT
ATOM      1  C4' 3QA d   1      37.056  73.183  23.619  0.00  0.00    -0.004 C 
ATOM      2  C3' 3QA d   1      35.702  73.841  23.806  0.00  0.00     0.064 C 
ATOM      3  C2' 3QA d   1      35.813  74.508  25.144  0.00  0.00     0.107 C 
ATOM      4  C1' 3QA d   1      37.614  73.008  25.030  0.00  0.00     0.089 C 
ATOM      5  N1' 3QA d   1      36.525  73.464  25.908  0.00  0.00    -0.064 N 
ATOM      6  H3  3QA d   1      36.920  72.198  23.148  0.00  0.00     0.046 H 
ATOM      7  H4  3QA d   1      35.495  74.562  23.001  0.00  0.00     0.086 H 
ATOM      8  H6  3QA d   1      34.824  74.722  25.574  0.00  0.00     0.080 H 
ATOM      9  H7  3QA d   1      36.397  75.438  25.087  0.00  0.00     0.080 H 
ATOM     10  H8  3QA d   1      38.514  73.624  25.173  0.00  0.00     0.076 H 
ATOM     11  H9  3QA d   1      37.857  71.953  25.225  0.00  0.00     0.076 H 
ATOM     12  H13 3QA d   1      35.891  72.694  26.052  0.00  0.00     0.280 HD
ENDROOT
BRANCH   1  13
ATOM     13  C5' 3QA d   1      38.009  74.000  22.750  0.00  0.00    -0.050 C 
ATOM     14  H1  3QA d   1      39.031  73.607  22.855  0.00  0.00     0.034 H 
ATOM     15  H2  3QA d   1      37.986  75.053  23.069  0.00  0.00     0.034 H 
BRANCH  13  16
ATOM     16  C6' 3QA d   1      37.572  73.899  21.294  0.00  0.00    -0.023 C 
ATOM     17  H14 3QA d   1      36.794  74.652  21.102  0.00  0.00     0.049 H 
ATOM     18  H15 3QA d   1      37.162  72.894  21.114  0.00  0.00     0.049 H 
BRANCH  16  19
ATOM     19  S6' 3QA d   1      38.917  74.174  20.189  0.00  0.00    -0.167 SA
BRANCH  19  20
ATOM     20  C20 3QA d   1      39.982  72.762  20.187  0.00  0.00    -0.004 C 
ATOM     21  H16 3QA d   1      39.897  72.240  21.151  0.00  0.00     0.052 H 
ATOM     22  H17 3QA d   1      41.021  73.090  20.038  0.00  0.00     0.052 H 
BRANCH  20  23
ATOM     23  C21 3QA d   1      39.586  71.814  19.064  0.00  0.00     0.027 C 
ATOM     24  H18 3QA d   1      38.519  71.565  19.161  0.00  0.00     0.075 H 
ATOM     25  H19 3QA d   1      40.185  70.895  19.139  0.00  0.00     0.075 H 
BRANCH  23  26
ATOM     26  O22 3QA d   1      39.815  72.425  17.779  0.00  0.00    -0.388 OA
BRANCH  26  27
ATOM     27  C23 3QA d   1      40.379  71.527  16.812  0.00  0.00     0.039 C 
ATOM     28  H24 3QA d   1      41.270  71.046  17.242  0.00  0.00     0.077 H 
ATOM     29  H25 3QA d   1      40.666  72.096  15.915  0.00  0.00     0.077 H 
BRANCH  27  30
ATOM     30  C24 3QA d   1      39.366  70.448  16.419  0.00  0.00     0.036 C 
ATOM     31  H26 3QA d   1      38.482  70.525  17.069  0.00  0.00     0.077 H 
ATOM     32  H27 3QA d   1      39.825  69.456  16.540  0.00  0.00     0.077 H 
BRANCH  30  33
ATOM     33  O25 3QA d   1      38.970  70.623  15.059  0.00  0.00    -0.399 OA
ATOM     34  H28 3QA d   1      38.342  69.950  14.824  0.00  0.00     0.209 HD
ENDBRANCH  30  33
ENDBRANCH  27  30
ENDBRANCH  26  27
ENDBRANCH  23  26
ENDBRANCH  20  23
ENDBRANCH  19  20
ENDBRANCH  16  19
ENDBRANCH  13  16
ENDBRANCH   1  13
BRANCH   2  35
ATOM     35  O3' 3QA d   1      34.655  72.872  23.891  0.00  0.00    -0.393 OA
ATOM     36  H5  3QA d   1      33.823  73.316  24.008  0.00  0.00     0.210 HD
ENDBRANCH   2  35
BRANCH   5  37
ATOM     37  C10 3QA d   1      36.981  73.882  27.234  0.00  0.00     0.111 C 
ATOM     38  H20 3QA d   1      37.210  72.966  27.798  0.00  0.00     0.083 H 
ATOM     39  H21 3QA d   1      36.140  74.406  27.712  0.00  0.00     0.083 H 
BRANCH  37  40
ATOM     40  C9  3QA d   1      38.186  74.784  27.354  0.00  0.00     0.014 A 
ATOM     41  C8  3QA d   1      39.448  74.409  27.818  0.00  0.00    -0.012 A 
ATOM     42  N7  3QA d   1      40.304  75.467  27.879  0.00  0.00    -0.360 N 
ATOM     43  H10 3QA d   1      39.716  73.391  28.098  0.00  0.00     0.112 H 
ATOM     44  C5  3QA d   1      39.680  76.581  27.473  0.00  0.00     0.107 A 
ATOM     45  H11 3QA d   1      41.285  75.418  28.191  0.00  0.00     0.165 HD
ATOM     46  C6  3QA d   1      40.048  77.986  27.303  0.00  0.00     0.151 A 
ATOM     47  C4  3QA d   1      38.317  76.227  27.140  0.00  0.00     0.098 A 
ATOM     48  N1  3QA d   1      39.102  78.846  26.843  0.00  0.00    -0.223 NA
ATOM     49  N6  3QA d   1      41.297  78.359  27.607  0.00  0.00    -0.382 N 
ATOM     50  C2  3QA d   1      37.866  78.413  26.551  0.00  0.00     0.089 A 
ATOM     51  N3  3QA d   1      37.442  77.151  26.671  0.00  0.00    -0.239 NA
ATOM     52  H12 3QA d   1      37.154  79.146  26.189  0.00  0.00     0.146 H 
ATOM     53  H22 3QA d   1      41.582  79.343  27.496  0.00  0.00     0.157 HD
ATOM     54  H23 3QA d   1      41.973  77.662  27.952  0.00  0.00     0.157 HD
ENDBRANCH  37  40
ENDBRANCH   5  37
TORSDOF 12
