REMARK  22 active torsions:
REMARK  status: ('A' for Active; 'I' for Inactive)
REMARK    1  A    between atoms: C16_4  and  C17_1 
REMARK    2  A    between atoms: C17_1  and  C18_24 
REMARK    3  A    between atoms: C8_3  and  C9_2 
REMARK    4  A    between atoms: C9_2  and  C10_5 
REMARK    5  A    between atoms: C7_6  and  C8_3 
REMARK    6  A    between atoms: C15_8  and  C16_4 
REMARK    7  A    between atoms: C10_5  and  C11_9 
REMARK    8  A    between atoms: C6_10  and  C7_6 
REMARK    9  A    between atoms: C24_7  and  C22_18 
REMARK   10  A    between atoms: O25_21  and  C24_7 
REMARK   11  A    between atoms: C14_11  and  C15_8 
REMARK   12  A    between atoms: C11_9  and  C12_12 
REMARK   13  A    between atoms: C5_13  and  C6_10 
REMARK   14  A    between atoms: C13_14  and  C14_11 
REMARK   15  A    between atoms: C4_15  and  C5_13 
REMARK   16  A    between atoms: C3_16  and  C4_15 
REMARK   17  A    between atoms: C1_20  and  C3_16 
REMARK   18  A    between atoms: C22_18  and  C21_17 
REMARK   19  A    between atoms: C21_17  and  O20_23 
REMARK   20  A    between atoms: C22_18  and  O23_22 
REMARK   21  A    between atoms: C1_20  and  O25_21 
REMARK   22  A    between atoms: C18_24  and  C19_25 
ROOT
ATOM      1  C8  MVC d   1      -0.427 -50.239 -13.619  0.00  0.00    -0.065 C 
ATOM      2  H5  MVC d   1      -0.382 -49.549 -12.764  0.00  0.00     0.033 H 
ATOM      3  H6  MVC d   1      -1.143 -51.046 -13.402  0.00  0.00     0.033 H 
ENDROOT
BRANCH   1   4
ATOM      4  C9  MVC d   1       0.980 -50.865 -13.829  0.00  0.00    -0.065 C 
ATOM      5  H3  MVC d   1       0.939 -51.517 -14.714  0.00  0.00     0.033 H 
ATOM      6  H4  MVC d   1       1.226 -51.466 -12.941  0.00  0.00     0.033 H 
BRANCH   4   7
ATOM      7  C10 MVC d   1       2.100 -49.837 -14.040  0.00  0.00    -0.062 C 
ATOM      8  H9  MVC d   1       2.128 -49.173 -13.164  0.00  0.00     0.033 H 
ATOM      9  H10 MVC d   1       1.864 -49.249 -14.939  0.00  0.00     0.033 H 
BRANCH   7  10
ATOM     10  C11 MVC d   1       3.492 -50.454 -14.221  0.00  0.00    -0.050 C 
ATOM     11  H17 MVC d   1       4.186 -49.685 -14.590  0.00  0.00     0.038 H 
ATOM     12  H18 MVC d   1       3.434 -51.276 -14.950  0.00  0.00     0.038 H 
BRANCH  10  13
ATOM     13  C12 MVC d   1       4.006 -51.001 -12.875  0.00  0.00    -0.107 C 
ATOM     14  C13 MVC d   1       5.195 -50.600 -12.314  0.00  0.00    -0.107 C 
ATOM     15  H26 MVC d   1       5.441 -51.014 -11.337  0.00  0.00     0.076 H 
ATOM     16  H23 MVC d   1       3.402 -51.736 -12.346  0.00  0.00     0.076 H 
BRANCH  14  17
ATOM     17  C14 MVC d   1       6.213 -49.625 -12.928  0.00  0.00    -0.050 C 
ATOM     18  H21 MVC d   1       7.139 -50.181 -13.136  0.00  0.00     0.038 H 
ATOM     19  H22 MVC d   1       5.796 -49.241 -13.871  0.00  0.00     0.038 H 
BRANCH  17  20
ATOM     20  C15 MVC d   1       6.561 -48.431 -12.037  0.00  0.00    -0.062 C 
ATOM     21  H15 MVC d   1       7.162 -47.721 -12.624  0.00  0.00     0.033 H 
ATOM     22  H16 MVC d   1       5.625 -47.946 -11.721  0.00  0.00     0.033 H 
BRANCH  20  23
ATOM     23  C16 MVC d   1       7.343 -48.816 -10.802  0.00  0.00    -0.065 C 
ATOM     24  H7  MVC d   1       6.687 -49.390 -10.131  0.00  0.00     0.033 H 
ATOM     25  H8  MVC d   1       8.197 -49.441 -11.103  0.00  0.00     0.033 H 
BRANCH  23  26
ATOM     26  C17 MVC d   1       7.864 -47.600 -10.057  0.00  0.00    -0.065 C 
ATOM     27  H1  MVC d   1       7.019 -46.919  -9.879  0.00  0.00     0.033 H 
ATOM     28  H2  MVC d   1       8.609 -47.101 -10.694  0.00  0.00     0.033 H 
BRANCH  26  29
ATOM     29  C18 MVC d   1       8.508 -47.904  -8.732  0.00  0.00    -0.069 C 
ATOM     30  H36 MVC d   1       9.315 -48.635  -8.888  0.00  0.00     0.032 H 
ATOM     31  H37 MVC d   1       7.751 -48.332  -8.058  0.00  0.00     0.032 H 
BRANCH  29  32
ATOM     32  C19 MVC d   1       9.087 -46.668  -8.092  0.00  0.00    -0.077 C 
ATOM     33  H38 MVC d   1       9.546 -46.935  -7.129  0.00  0.00     0.027 H 
ATOM     34  H39 MVC d   1       8.287 -45.932  -7.925  0.00  0.00     0.027 H 
ATOM     35  H40 MVC d   1       9.851 -46.235  -8.755  0.00  0.00     0.027 H 
ENDBRANCH  29  32
ENDBRANCH  26  29
ENDBRANCH  23  26
ENDBRANCH  20  23
ENDBRANCH  17  20
ENDBRANCH  14  17
ENDBRANCH  10  13
ENDBRANCH   7  10
ENDBRANCH   4   7
ENDBRANCH   1   4
BRANCH   1  36
ATOM     36  C7  MVC d   1      -0.921 -49.460 -14.857  0.00  0.00    -0.065 C 
ATOM     37  H11 MVC d   1      -0.826 -50.113 -15.737  0.00  0.00     0.033 H 
ATOM     38  H12 MVC d   1      -0.281 -48.575 -14.987  0.00  0.00     0.033 H 
BRANCH  36  39
ATOM     39  C6  MVC d   1      -2.388 -48.987 -14.760  0.00  0.00    -0.065 C 
ATOM     40  H19 MVC d   1      -3.038 -49.866 -14.635  0.00  0.00     0.033 H 
ATOM     41  H20 MVC d   1      -2.655 -48.463 -15.690  0.00  0.00     0.033 H 
BRANCH  39  42
ATOM     42  C5  MVC d   1      -2.607 -48.030 -13.567  0.00  0.00    -0.065 C 
ATOM     43  H24 MVC d   1      -1.953 -47.156 -13.697  0.00  0.00     0.033 H 
ATOM     44  H25 MVC d   1      -2.333 -48.558 -12.642  0.00  0.00     0.033 H 
BRANCH  42  45
ATOM     45  C4  MVC d   1      -4.041 -47.543 -13.437  0.00  0.00    -0.057 C 
ATOM     46  H27 MVC d   1      -4.705 -48.411 -13.314  0.00  0.00     0.033 H 
ATOM     47  H28 MVC d   1      -4.318 -46.996 -14.350  0.00  0.00     0.033 H 
BRANCH  45  48
ATOM     48  C3  MVC d   1      -4.202 -46.622 -12.239  0.00  0.00     0.016 C 
ATOM     49  H29 MVC d   1      -3.587 -45.725 -12.402  0.00  0.00     0.048 H 
ATOM     50  H30 MVC d   1      -3.848 -47.150 -11.341  0.00  0.00     0.048 H 
BRANCH  48  51
ATOM     51  C1  MVC d   1      -5.638 -46.188 -12.009  0.00  0.00     0.258 C 
ATOM     52  O19 MVC d   1      -6.582 -46.593 -12.641  0.00  0.00    -0.265 OA
BRANCH  51  53
ATOM     53  O25 MVC d   1      -5.753 -45.150 -11.086  0.00  0.00    -0.319 OA
BRANCH  53  54
ATOM     54  C24 MVC d   1      -7.063 -44.634 -10.819  0.00  0.00     0.054 C 
ATOM     55  H13 MVC d   1      -7.575 -44.362 -11.754  0.00  0.00     0.079 H 
ATOM     56  H14 MVC d   1      -7.669 -45.369 -10.269  0.00  0.00     0.079 H 
BRANCH  54  57
ATOM     57  C22 MVC d   1      -6.800 -43.406  -9.970  0.00  0.00     0.076 C 
ATOM     58  H33 MVC d   1      -6.132 -43.694  -9.145  0.00  0.00     0.089 H 
BRANCH  57  59
ATOM     59  C21 MVC d   1      -8.064 -42.840  -9.367  0.00  0.00     0.042 C 
ATOM     60  H31 MVC d   1      -7.814 -41.990  -8.715  0.00  0.00     0.078 H 
ATOM     61  H32 MVC d   1      -8.572 -43.617  -8.777  0.00  0.00     0.078 H 
BRANCH  59  62
ATOM     62  O20 MVC d   1      -8.914 -42.404 -10.410  0.00  0.00    -0.398 OA
ATOM     63  H35 MVC d   1      -8.472 -41.734 -10.918  0.00  0.00     0.209 HD
ENDBRANCH  59  62
ENDBRANCH  57  59
BRANCH  57  64
ATOM     64  O23 MVC d   1      -6.143 -42.436 -10.765  0.00  0.00    -0.391 OA
ATOM     65  H34 MVC d   1      -5.917 -41.687 -10.226  0.00  0.00     0.210 HD
ENDBRANCH  57  64
ENDBRANCH  54  57
ENDBRANCH  53  54
ENDBRANCH  51  53
ENDBRANCH  48  51
ENDBRANCH  45  48
ENDBRANCH  42  45
ENDBRANCH  39  42
ENDBRANCH  36  39
ENDBRANCH   1  36
TORSDOF 22
