REMARK  11 active torsions:
REMARK  status: ('A' for Active; 'I' for Inactive)
REMARK    1  A    between atoms: N1_1  and  C1'_9 
REMARK    2  A    between atoms: C4_4  and  N4_8 
REMARK    3  A    between atoms: C2'_10  and  O2'_11 
REMARK    4  A    between atoms: C3'_12  and  O3'_15 
REMARK    5  A    between atoms: C4'_13  and  C5'_16 
REMARK    6  A    between atoms: C5'_16  and  O5'_17 
REMARK    7  A    between atoms: O5'_17  and  PA_18 
REMARK    8  A    between atoms: PA_18  and  O3A_21 
REMARK    9  A    between atoms: O3A_21  and  PB_22 
REMARK   10  A    between atoms: PB_22  and  O3B_25 
REMARK   11  A    between atoms: O3B_25  and  PG_26 
ROOT
ATOM      1  C1' CTP d   1      15.345  37.704 -24.543  0.00  0.00     0.141 C 
ATOM      2  C2' CTP d   1      16.011  38.030 -23.215  0.00  0.00     0.105 C 
ATOM      3  C3' CTP d   1      17.489  38.076 -23.541  0.00  0.00     0.091 C 
ATOM      4  C4' CTP d   1      17.613  37.206 -24.784  0.00  0.00     0.089 C 
ATOM      5  O4' CTP d   1      16.327  37.096 -25.363  0.00  0.00    -0.353 OA
ATOM      6  H5  CTP d   1      14.989  38.630 -25.017  0.00  0.00     0.123 H 
ATOM      7  H6  CTP d   1      15.811  37.226 -22.492  0.00  0.00     0.093 H 
ATOM      8  H8  CTP d   1      18.080  37.655 -22.714  0.00  0.00     0.091 H 
ATOM      9  H9  CTP d   1      18.309  37.677 -25.494  0.00  0.00     0.090 H 
ENDROOT
BRANCH   4  10
ATOM     10  C5' CTP d   1      18.112  35.803 -24.440  0.00  0.00     0.058 C 
ATOM     11  H11 CTP d   1      19.211  35.803 -24.395  0.00  0.00     0.079 H 
ATOM     12  H12 CTP d   1      17.777  35.093 -25.210  0.00  0.00     0.079 H 
BRANCH  10  13
ATOM     13  O5' CTP d   1      17.584  35.421 -23.179  0.00  0.00    -0.287 OA
BRANCH  13  14
ATOM     14  PA  CTP d   1      18.538  35.027 -21.939  0.00  0.00     0.417 P 
ATOM     15  O1A CTP d   1      19.318  36.208 -21.407  0.00  0.00    -0.624 OA
ATOM     16  O2A CTP d   1      17.685  34.420 -20.856  0.00  0.00    -0.624 OA
BRANCH  14  17
ATOM     17  O3A CTP d   1      19.554  34.004 -22.652  0.00  0.00    -0.180 OA
BRANCH  17  18
ATOM     18  PB  CTP d   1      20.484  33.026 -21.798  0.00  0.00     0.428 P 
ATOM     19  O1B CTP d   1      20.200  31.609 -22.258  0.00  0.00    -0.624 OA
ATOM     20  O2B CTP d   1      20.167  33.233 -20.334  0.00  0.00    -0.624 OA
BRANCH  18  21
ATOM     21  O3B CTP d   1      22.008  33.461 -22.176  0.00  0.00    -0.173 OA
BRANCH  21  22
ATOM     22  PG  CTP d   1      23.258  33.542 -21.144  0.00  0.00     0.431 P 
ATOM     23  O1G CTP d   1      24.120  34.715 -21.533  0.00  0.00    -0.616 OA
ATOM     24  O2G CTP d   1      24.113  32.298 -21.230  0.00  0.00    -0.616 OA
ATOM     25  O3G CTP d   1      22.773  33.781 -19.724  0.00  0.00    -0.616 OA
ENDBRANCH  21  22
ENDBRANCH  18  21
ENDBRANCH  17  18
ENDBRANCH  14  17
ENDBRANCH  13  14
ENDBRANCH  10  13
ENDBRANCH   4  10
BRANCH   3  26
ATOM     26  O3' CTP d   1      17.923  39.397 -23.791  0.00  0.00    -0.390 OA
ATOM     27  H10 CTP d   1      17.834  39.914 -22.999  0.00  0.00     0.210 HD
ENDBRANCH   3  26
BRANCH   2  28
ATOM     28  O2' CTP d   1      15.562  39.241 -22.663  0.00  0.00    -0.388 OA
ATOM     29  H7  CTP d   1      15.751  39.951 -23.265  0.00  0.00     0.210 HD
ENDBRANCH   2  28
BRANCH   1  30
ATOM     30  N1  CTP d   1      14.193  36.795 -24.336  0.00  0.00    -0.280 N 
ATOM     31  C2  CTP d   1      12.920  37.314 -24.451  0.00  0.00     0.330 C 
ATOM     32  N3  CTP d   1      11.831  36.528 -24.149  0.00  0.00    -0.293 N 
ATOM     33  O2  CTP d   1      12.767  38.475 -24.827  0.00  0.00    -0.246 OA
ATOM     34  C4  CTP d   1      11.980  35.158 -24.169  0.00  0.00     0.125 C 
ATOM     35  H1  CTP d   1      10.950  36.942 -23.920  0.00  0.00     0.172 HD
ATOM     36  C5  CTP d   1      13.253  34.608 -24.311  0.00  0.00    -0.024 C 
ATOM     37  C6  CTP d   1      14.364  35.441 -24.354  0.00  0.00    -0.009 C 
ATOM     38  H2  CTP d   1      13.376  33.529 -24.388  0.00  0.00     0.091 H 
ATOM     39  H3  CTP d   1      15.366  35.016 -24.402  0.00  0.00     0.112 H 
BRANCH  34  40
ATOM     40  N4  CTP d   1      10.910  34.374 -24.051  0.00  0.00    -0.284 NA
ATOM     41  H4  CTP d   1      11.016  33.372 -24.065  0.00  0.00     0.188 HD
ENDBRANCH  34  40
ENDBRANCH   1  30
TORSDOF 11
