REMARK  8 active torsions:
REMARK  status: ('A' for Active; 'I' for Inactive)
REMARK    1  A    between atoms: OAB_1  and  CAT_2 
REMARK    2  A    between atoms: CAV_7  and  NBA_8 
REMARK    3  A    between atoms: CAX_12  and  CAW_13 
REMARK    4  A    between atoms: CAU_22  and  OAS_23 
REMARK    5  A    between atoms: OAS_23  and  CAN_24 
REMARK    6  A    between atoms: CAN_24  and  CAM_25 
REMARK    7  A    between atoms: CAM_25  and  OAR_26 
REMARK    8  A    between atoms: OAR_26  and  CAA_27 
ROOT
ATOM      1  CAW 3TW d   1     -12.885  -0.784  -3.145  0.00  0.00     0.089 A 
ATOM      2  NAQ 3TW d   1     -13.058  -0.961  -4.463  0.00  0.00    -0.246 NA
ATOM      3  CAH 3TW d   1     -11.719  -0.207  -2.648  0.00  0.00    -0.052 A 
ATOM      4  CAI 3TW d   1     -10.718   0.197  -3.517  0.00  0.00    -0.068 A 
ATOM      5  CAY 3TW d   1     -10.904   0.016  -4.871  0.00  0.00    -0.005 A 
ATOM      6  CAK 3TW d   1      -9.921   0.424  -5.764  0.00  0.00    -0.039 A 
ATOM      7  CAZ 3TW d   1     -12.093  -0.570  -5.327  0.00  0.00     0.068 A 
ATOM      8  CAJ 3TW d   1     -12.301  -0.764  -6.684  0.00  0.00    -0.052 A 
ATOM      9  CAG 3TW d   1     -11.318  -0.366  -7.580  0.00  0.00    -0.049 A 
ATOM     10  CAU 3TW d   1     -10.136   0.226  -7.129  0.00  0.00     0.069 A 
ATOM     11  H7  3TW d   1     -11.594  -0.074  -1.579  0.00  0.00     0.087 H 
ATOM     12  H8  3TW d   1      -9.807   0.646  -3.140  0.00  0.00     0.085 H 
ATOM     13  H9  3TW d   1      -9.007   0.886  -5.409  0.00  0.00     0.089 H 
ATOM     14  H10 3TW d   1     -13.218  -1.220  -7.040  0.00  0.00     0.087 H 
ATOM     15  H11 3TW d   1     -11.470  -0.516  -8.643  0.00  0.00     0.087 H 
ENDROOT
BRANCH   1  16
ATOM     16  CAX 3TW d   1     -13.910  -1.232  -2.179  0.00  0.00     0.120 A 
ATOM     17  CAL 3TW d   1     -13.899  -1.339  -0.806  0.00  0.00     0.032 A 
ATOM     18  NBA 3TW d   1     -15.123  -1.839  -0.483  0.00  0.00    -0.247 N 
ATOM     19  H6  3TW d   1     -13.088  -1.080  -0.127  0.00  0.00     0.118 H 
ATOM     20  NAP 3TW d   1     -15.882  -2.030  -1.595  0.00  0.00     0.010 NA
ATOM     21  NAO 3TW d   1     -15.129  -1.658  -2.629  0.00  0.00    -0.156 NA
BRANCH  18  22
ATOM     22  CAV 3TW d   1     -15.540  -2.087   0.852  0.00  0.00     0.054 A 
ATOM     23  CAE 3TW d   1     -14.600  -2.514   1.790  0.00  0.00    -0.053 A 
ATOM     24  CAC 3TW d   1     -14.996  -2.735   3.101  0.00  0.00    -0.049 A 
ATOM     25  H3  3TW d   1     -13.568  -2.672   1.497  0.00  0.00     0.087 H 
ATOM     26  CAT 3TW d   1     -16.318  -2.565   3.449  0.00  0.00     0.065 A 
ATOM     27  H2  3TW d   1     -14.270  -3.039   3.846  0.00  0.00     0.087 H 
ATOM     28  CAD 3TW d   1     -17.253  -2.147   2.532  0.00  0.00    -0.049 A 
ATOM     29  CAF 3TW d   1     -16.875  -1.919   1.218  0.00  0.00    -0.053 A 
ATOM     30  H4  3TW d   1     -18.283  -1.996   2.836  0.00  0.00     0.087 H 
ATOM     31  H5  3TW d   1     -17.610  -1.613   0.482  0.00  0.00     0.087 H 
BRANCH  26  32
ATOM     32  OAB 3TW d   1     -16.672  -2.791   4.723  0.00  0.00    -0.361 OA
ATOM     33  H1  3TW d   1     -17.604  -2.638   4.823  0.00  0.00     0.217 HD
ENDBRANCH  26  32
ENDBRANCH  18  22
ENDBRANCH   1  16
BRANCH  10  34
ATOM     34  OAS 3TW d   1      -9.211   0.611  -8.071  0.00  0.00    -0.349 OA
BRANCH  34  35
ATOM     35  CAN 3TW d   1      -7.978   1.241  -7.711  0.00  0.00     0.046 C 
ATOM     36  H12 3TW d   1      -7.467   0.646  -6.939  0.00  0.00     0.078 H 
ATOM     37  H13 3TW d   1      -8.175   2.252  -7.324  0.00  0.00     0.078 H 
BRANCH  35  38
ATOM     38  CAM 3TW d   1      -7.110   1.326  -8.951  0.00  0.00     0.039 C 
ATOM     39  H14 3TW d   1      -6.190   1.888  -8.729  0.00  0.00     0.077 H 
ATOM     40  H15 3TW d   1      -7.659   1.827  -9.762  0.00  0.00     0.077 H 
BRANCH  38  41
ATOM     41  OAR 3TW d   1      -6.787  -0.009  -9.332  0.00  0.00    -0.394 OA
BRANCH  41  42
ATOM     42  CAA 3TW d   1      -5.650  -0.088 -10.192  0.00  0.00     0.004 C 
ATOM     43  H16 3TW d   1      -5.456  -1.140 -10.447  0.00  0.00     0.066 H 
ATOM     44  H17 3TW d   1      -4.772   0.333  -9.679  0.00  0.00     0.066 H 
ATOM     45  H18 3TW d   1      -5.846   0.482 -11.112  0.00  0.00     0.066 H 
ENDBRANCH  41  42
ENDBRANCH  38  41
ENDBRANCH  35  38
ENDBRANCH  34  35
ENDBRANCH  10  34
TORSDOF 8
