REMARK  17 active torsions:
REMARK  status: ('A' for Active; 'I' for Inactive)
REMARK    1  A    between atoms: C34_1  and  O5_2 
REMARK    2  A    between atoms: O5_2  and  C31_3 
REMARK    3  A    between atoms: C30_5  and  C33_6 
REMARK    4  A    between atoms: C27_11  and  N2_12 
REMARK       I    between atoms: N2_12  and  C20_13 
REMARK    5  A    between atoms: C20_13  and  C19_15 
REMARK    6  A    between atoms: C19_15  and  C18_16 
REMARK    7  A    between atoms: C18_16  and  C26_18 
REMARK    8  A    between atoms: N1_21  and  C11_22 
REMARK    9  A    between atoms: C11_22  and  C12_23 
REMARK   10  A    between atoms: C11_22  and  C13_26 
REMARK   11  A    between atoms: C13_26  and  S1_27 
REMARK   12  A    between atoms: S1_27  and  C14_30 
REMARK   13  A    between atoms: C14_30  and  C16_31 
REMARK   14  A    between atoms: C14_30  and  C37_32 
REMARK   15  A    between atoms: C14_30  and  C15_33 
REMARK   16  A    between atoms: C2_34  and  C1_35 
REMARK   17  A    between atoms: C3_43  and  C4_44 
ROOT
ATOM      1  C18 3UD d   1       8.335 -25.893  -2.327  0.00  0.00     0.046 C 
ATOM      2  C5  3UD d   1       9.403 -25.192  -1.477  0.00  0.00    -0.040 C 
ATOM      3  C17 3UD d   1       7.581 -24.880  -3.202  0.00  0.00     0.229 C 
ATOM      4  O1  3UD d   1       6.510 -25.226  -3.696  0.00  0.00    -0.272 OA
ATOM      5  N1  3UD d   1       8.097 -23.609  -3.490  0.00  0.00    -0.336 N 
ATOM      6  C2  3UD d   1       9.359 -23.112  -2.916  0.00  0.00     0.048 C 
ATOM      7  C3  3UD d   1      10.248 -24.249  -2.335  0.00  0.00    -0.004 C 
ATOM      8  H   3UD d   1      10.058 -25.951  -1.023  0.00  0.00     0.035 H 
ATOM      9  H   3UD d   1       8.909 -24.612  -0.684  0.00  0.00     0.035 H 
ATOM     10  H   3UD d   1       9.096 -22.430  -2.094  0.00  0.00     0.081 H 
ATOM     11  H   3UD d   1      10.676 -24.832  -3.164  0.00  0.00     0.051 H 
ENDROOT
BRANCH   5  12
ATOM     12  C11 3UD d   1       7.269 -22.616  -4.205  0.00  0.00     0.031 C 
ATOM     13  H   3UD d   1       7.829 -21.670  -4.242  0.00  0.00     0.074 H 
BRANCH  12  14
ATOM     14  C12 3UD d   1       6.944 -23.010  -5.643  0.00  0.00    -0.033 A 
ATOM     15  C35 3UD d   1       6.465 -21.836  -6.503  0.00  0.00    -0.059 A 
ATOM     16  C36 3UD d   1       7.856 -22.427  -6.721  0.00  0.00    -0.059 A 
ATOM     17  H   3UD d   1       6.356 -20.836  -6.058  0.00  0.00     0.033 H 
ATOM     18  H   3UD d   1       5.678 -21.990  -7.255  0.00  0.00     0.033 H 
ATOM     19  H   3UD d   1       8.070 -23.006  -7.631  0.00  0.00     0.033 H 
ATOM     20  H   3UD d   1       8.748 -21.852  -6.434  0.00  0.00     0.033 H 
ATOM     21  H   3UD d   1       6.519 -24.022  -5.719  0.00  0.00     0.043 H 
ENDBRANCH  12  14
BRANCH  12  22
ATOM     22  C13 3UD d   1       5.982 -22.393  -3.384  0.00  0.00     0.049 C 
ATOM     23  H   3UD d   1       5.449 -23.353  -3.317  0.00  0.00     0.059 H 
ATOM     24  H   3UD d   1       5.357 -21.663  -3.920  0.00  0.00     0.059 H 
BRANCH  22  25
ATOM     25  S1  3UD d   1       6.251 -21.773  -1.687  0.00  0.00     0.153 S 
ATOM     26  O3  3UD d   1       6.983 -20.483  -1.770  0.00  0.00    -0.227 OA
ATOM     27  O4  3UD d   1       6.978 -22.787  -0.857  0.00  0.00    -0.227 OA
BRANCH  25  28
ATOM     28  C14 3UD d   1       4.629 -21.523  -0.897  0.00  0.00     0.053 C 
BRANCH  28  29
ATOM     29  C16 3UD d   1       3.829 -20.544  -1.756  0.00  0.00    -0.057 C 
ATOM     30  H   3UD d   1       2.843 -20.376  -1.299  0.00  0.00     0.029 H 
ATOM     31  H   3UD d   1       3.699 -20.963  -2.765  0.00  0.00     0.029 H 
ATOM     32  H   3UD d   1       4.370 -19.588  -1.823  0.00  0.00     0.029 H 
ENDBRANCH  28  29
BRANCH  28  33
ATOM     33  C37 3UD d   1       3.947 -22.895  -0.818  0.00  0.00    -0.057 C 
ATOM     34  H   3UD d   1       2.960 -22.787  -0.345  0.00  0.00     0.029 H 
ATOM     35  H   3UD d   1       4.567 -23.579  -0.220  0.00  0.00     0.029 H 
ATOM     36  H   3UD d   1       3.825 -23.303  -1.832  0.00  0.00     0.029 H 
ENDBRANCH  28  33
BRANCH  28  37
ATOM     37  C15 3UD d   1       4.865 -20.938   0.502  0.00  0.00    -0.057 C 
ATOM     38  H   3UD d   1       3.898 -20.778   1.000  0.00  0.00     0.029 H 
ATOM     39  H   3UD d   1       5.395 -19.978   0.413  0.00  0.00     0.029 H 
ATOM     40  H   3UD d   1       5.471 -21.639   1.095  0.00  0.00     0.029 H 
ENDBRANCH  28  37
ENDBRANCH  25  28
ENDBRANCH  22  25
ENDBRANCH  12  22
ENDBRANCH   5  12
BRANCH   6  41
ATOM     41  C1  3UD d   1      10.207 -22.323  -3.946  0.00  0.00    -0.032 A 
ATOM     42  C25 3UD d   1      10.722 -22.940  -5.083  0.00  0.00    -0.036 A 
ATOM     43  C24 3UD d   1      11.490 -22.191  -5.959  0.00  0.00     0.138 A 
ATOM     44  H   3UD d   1      10.525 -23.988  -5.279  0.00  0.00     0.089 H 
ATOM     45  F1  3UD d   1      11.952 -22.815  -7.052  0.00  0.00    -0.204 F 
ATOM     46  C23 3UD d   1      11.761 -20.849  -5.707  0.00  0.00     0.072 A 
ATOM     47 CL2  3UD d   1      12.763 -19.921  -6.779  0.00  0.00    -0.081 Cl
ATOM     48  C22 3UD d   1      11.260 -20.232  -4.576  0.00  0.00    -0.058 A 
ATOM     49  C21 3UD d   1      10.481 -20.984  -3.697  0.00  0.00    -0.073 A 
ATOM     50  H   3UD d   1      11.468 -19.187  -4.377  0.00  0.00     0.086 H 
ATOM     51  H   3UD d   1      10.082 -20.516  -2.804  0.00  0.00     0.084 H 
ENDBRANCH   6  41
BRANCH   1  52
ATOM     52  C19 3UD d   1       8.948 -26.957  -3.222  0.00  0.00     0.024 C 
ATOM     53  H   3UD d   1       8.194 -27.251  -3.967  0.00  0.00     0.049 H 
ATOM     54  H   3UD d   1       9.815 -26.513  -3.733  0.00  0.00     0.049 H 
BRANCH  52  55
ATOM     55  C20 3UD d   1       9.423 -28.230  -2.498  0.00  0.00     0.223 C 
ATOM     56  N2  3UD d   1       8.653 -29.306  -2.721  0.00  0.00    -0.327 N 
ATOM     57  H   3UD d   1       7.838 -29.163  -3.283  0.00  0.00     0.169 HD
ATOM     58  O2  3UD d   1      10.428 -28.189  -1.795  0.00  0.00    -0.273 OA
BRANCH  56  59
ATOM     59  C27 3UD d   1       8.860 -30.565  -2.267  0.00  0.00     0.037 A 
ATOM     60  C32 3UD d   1      10.068 -31.034  -1.728  0.00  0.00    -0.024 A 
ATOM     61  C31 3UD d   1      10.188 -32.363  -1.294  0.00  0.00     0.087 A 
ATOM     62  H   3UD d   1      10.916 -30.364  -1.646  0.00  0.00     0.091 H 
ATOM     63  C30 3UD d   1       9.095 -33.224  -1.402  0.00  0.00     0.074 A 
ATOM     64  C29 3UD d   1       7.897 -32.767  -1.938  0.00  0.00    -0.061 A 
ATOM     65  C28 3UD d   1       7.785 -31.446  -2.368  0.00  0.00    -0.056 A 
ATOM     66  H   3UD d   1       7.050 -33.438  -2.022  0.00  0.00     0.085 H 
ATOM     67  H   3UD d   1       6.848 -31.099  -2.787  0.00  0.00     0.086 H 
BRANCH  61  68
ATOM     68  O5  3UD d   1      11.349 -32.858  -0.762  0.00  0.00    -0.355 OA
BRANCH  68  69
ATOM     69  C34 3UD d   1      12.427 -31.944  -0.623  0.00  0.00     0.010 C 
ATOM     70  H   3UD d   1      13.294 -32.463  -0.187  0.00  0.00     0.066 H 
ATOM     71  H   3UD d   1      12.124 -31.118   0.037  0.00  0.00     0.066 H 
ATOM     72  H   3UD d   1      12.698 -31.544  -1.611  0.00  0.00     0.066 H 
ENDBRANCH  68  69
ENDBRANCH  61  68
BRANCH  63  73
ATOM     73  C33 3UD d   1       9.202 -34.675  -0.936  0.00  0.00     0.212 C 
ATOM     74  O7  3UD d   1       8.569 -35.003   0.088  0.00  0.00    -0.644 OA
ATOM     75  O6  3UD d   1       9.916 -35.447  -1.609  0.00  0.00    -0.644 OA
ENDBRANCH  63  73
ENDBRANCH  56  59
ENDBRANCH  52  55
ENDBRANCH   1  52
BRANCH   1  76
ATOM     76  C26 3UD d   1       7.289 -26.513  -1.386  0.00  0.00    -0.060 C 
ATOM     77  H   3UD d   1       6.515 -27.020  -1.981  0.00  0.00     0.029 H 
ATOM     78  H   3UD d   1       6.825 -25.721  -0.780  0.00  0.00     0.029 H 
ATOM     79  H   3UD d   1       7.778 -27.242  -0.723  0.00  0.00     0.029 H 
ENDBRANCH   1  76
BRANCH   7  80
ATOM     80  C4  3UD d   1      11.411 -23.582  -1.546  0.00  0.00    -0.050 A 
ATOM     81  C10 3UD d   1      12.702 -23.555  -2.088  0.00  0.00    -0.055 A 
ATOM     82  C9  3UD d   1      13.738 -22.948  -1.399  0.00  0.00     0.034 A 
ATOM     83  H   3UD d   1      12.891 -24.012  -3.053  0.00  0.00     0.086 H 
ATOM     84 CL1  3UD d   1      15.322 -22.930  -2.098  0.00  0.00    -0.084 Cl
ATOM     85  C8  3UD d   1      13.515 -22.348  -0.171  0.00  0.00    -0.062 A 
ATOM     86  C7  3UD d   1      12.241 -22.373   0.378  0.00  0.00    -0.081 A 
ATOM     87  H   3UD d   1      14.328 -21.863   0.357  0.00  0.00     0.086 H 
ATOM     88  C6  3UD d   1      11.188 -22.984  -0.306  0.00  0.00    -0.076 A 
ATOM     89  H   3UD d   1      12.062 -21.915   1.344  0.00  0.00     0.083 H 
ATOM     90  H   3UD d   1      10.195 -22.994   0.128  0.00  0.00     0.084 H 
ENDBRANCH   7  80
TORSDOF 17
