REMARK  6 active torsions:
REMARK  status: ('A' for Active; 'I' for Inactive)
REMARK    1  A    between atoms: S_6  and  CS5_5 
REMARK    2  A    between atoms: C5'_7  and  S_6 
REMARK    3  A    between atoms: C4'_8  and  C5'_7 
REMARK    4  A    between atoms: C10_11  and  N1'_10 
REMARK    5  A    between atoms: C10_11  and  C9_12 
REMARK    6  A    between atoms: C3'_19  and  O3'_20 
ROOT
ATOM      1  C4' TDI d   1       9.160  -7.459  17.912  0.00  0.00     0.004 C 
ATOM      2  C1' TDI d   1       9.118  -7.728  19.416  0.00  0.00     0.090 C 
ATOM      3  N1' TDI d   1      10.012  -6.706  19.937  0.00  0.00    -0.064 N 
ATOM      4  C2' TDI d   1      10.271  -5.601  19.017  0.00  0.00     0.108 C 
ATOM      5  C3' TDI d   1       9.374  -5.961  17.850  0.00  0.00     0.064 C 
ATOM      6  H7  TDI d   1       8.202  -7.732  17.445  0.00  0.00     0.047 H 
ATOM      7  H8  TDI d   1       9.487  -8.737  19.651  0.00  0.00     0.076 H 
ATOM      8  H9  TDI d   1       8.100  -7.607  19.814  0.00  0.00     0.076 H 
ATOM      9  H10 TDI d   1      10.816  -7.213  19.602  0.00  0.00     0.280 HD
ATOM     10  H17 TDI d   1      11.328  -5.569  18.716  0.00  0.00     0.080 H 
ATOM     11  H18 TDI d   1       9.986  -4.635  19.459  0.00  0.00     0.080 H 
ATOM     12  H19 TDI d   1       9.824  -5.672  16.889  0.00  0.00     0.086 H 
ENDROOT
BRANCH   3  13
ATOM     13  C10 TDI d   1      10.576  -6.715  21.286  0.00  0.00     0.111 C 
ATOM     14  H11 TDI d   1       9.852  -7.123  22.007  0.00  0.00     0.083 H 
ATOM     15  H12 TDI d   1      10.866  -5.699  21.592  0.00  0.00     0.083 H 
BRANCH  13  16
ATOM     16  C9  TDI d   1      11.794  -7.611  21.187  0.00  0.00     0.014 A 
ATOM     17  C4  TDI d   1      13.109  -7.406  20.537  0.00  0.00     0.098 A 
ATOM     18  C5  TDI d   1      13.901  -8.594  20.796  0.00  0.00     0.107 A 
ATOM     19  N3  TDI d   1      13.599  -6.391  19.786  0.00  0.00    -0.239 NA
ATOM     20  C6  TDI d   1      15.241  -8.606  20.224  0.00  0.00     0.151 A 
ATOM     21  N7  TDI d   1      13.152  -9.417  21.549  0.00  0.00    -0.360 N 
ATOM     22  N6  TDI d   1      16.049  -9.670  20.433  0.00  0.00    -0.382 N 
ATOM     23  N1  TDI d   1      15.649  -7.542  19.504  0.00  0.00    -0.223 NA
ATOM     24  H15 TDI d   1      16.997  -9.684  20.031  0.00  0.00     0.157 HD
ATOM     25  H16 TDI d   1      15.716 -10.467  20.994  0.00  0.00     0.157 HD
ATOM     26  C2  TDI d   1      14.851  -6.465  19.296  0.00  0.00     0.089 A 
ATOM     27  H1  TDI d   1      15.235  -5.634  18.715  0.00  0.00     0.146 H 
ATOM     28  C8  TDI d   1      11.915  -8.861  21.767  0.00  0.00    -0.012 A 
ATOM     29  H14 TDI d   1      13.460 -10.331  21.910  0.00  0.00     0.165 HD
ATOM     30  H13 TDI d   1      11.121  -9.348  22.331  0.00  0.00     0.112 H 
ENDBRANCH  13  16
ENDBRANCH   3  13
BRANCH   1  31
ATOM     31  C5' TDI d   1      10.285  -8.229  17.209  0.00  0.00    -0.017 C 
ATOM     32  H5  TDI d   1      11.247  -7.823  17.555  0.00  0.00     0.049 H 
ATOM     33  H6  TDI d   1      10.209  -9.288  17.498  0.00  0.00     0.049 H 
BRANCH  31  34
ATOM     34  S   TDI d   1      10.249  -8.134  15.421  0.00  0.00    -0.173 SA
BRANCH  34  35
ATOM     35  CS5 TDI d   1       9.150  -9.455  15.114  0.00  0.00    -0.035 C 
ATOM     36  H2  TDI d   1       8.996  -9.559  14.030  0.00  0.00     0.041 H 
ATOM     37  H3  TDI d   1       8.186  -9.251  15.603  0.00  0.00     0.041 H 
ATOM     38  H4  TDI d   1       9.575 -10.387  15.515  0.00  0.00     0.041 H 
ENDBRANCH  34  35
ENDBRANCH  31  34
ENDBRANCH   1  31
BRANCH   5  39
ATOM     39  O3' TDI d   1       8.153  -5.271  18.062  0.00  0.00    -0.393 OA
ATOM     40  H20 TDI d   1       8.320  -4.336  18.090  0.00  0.00     0.210 HD
ENDBRANCH   5  39
TORSDOF 6
