REMARK  7 active torsions:
REMARK  status: ('A' for Active; 'I' for Inactive)
REMARK    1  A    between atoms: O13_24  and  C14_11 
REMARK    2  A    between atoms: N6_20  and  C1_14 
REMARK    3  A    between atoms: C2_15  and  O13_24 
REMARK    4  A    between atoms: C10_18  and  C11_16 
REMARK    5  A    between atoms: C10_18  and  C12_17 
REMARK    6  A    between atoms: S7_26  and  C10_18 
REMARK    7  A    between atoms: N6_20  and  S7_26 
ROOT
ATOM      1  C21 XPF d   1      62.437  23.961  42.507  0.00  0.00     0.016 A 
ATOM      2  C18 XPF d   1      61.167  26.061  42.524  0.00  0.00    -0.069 A 
ATOM      3  C16 XPF d   1      63.553  26.120  42.489  0.00  0.00    -0.069 A 
ATOM      4  C19 XPF d   1      61.122  27.442  42.532  0.00  0.00    -0.050 A 
ATOM      5  C25 XPF d   1      62.807  20.311  41.145  0.00  0.00     0.107 C 
ATOM      6  C23 XPF d   1      62.358  21.713  43.147  0.00  0.00    -0.055 A 
ATOM      7  C15 XPF d   1      63.516  27.498  42.492  0.00  0.00    -0.050 A 
ATOM      8  C22 XPF d   1      62.245  23.074  43.538  0.00  0.00    -0.064 A 
ATOM      9  C24 XPF d   1      62.649  21.554  41.811  0.00  0.00     0.086 A 
ATOM     10  C17 XPF d   1      62.380  25.398  42.503  0.00  0.00    -0.019 A 
ATOM     11  C14 XPF d   1      62.307  28.154  42.502  0.00  0.00     0.069 A 
ATOM     12  N26 XPF d   1      62.924  19.288  40.606  0.00  0.00    -0.191 NA
ATOM     13  S20 XPF d   1      62.795  23.095  41.071  0.00  0.00    -0.079 SA
ATOM     14  H1  XPF d   1      60.244  25.493  42.534  0.00  0.00     0.085 H 
ATOM     15  H2  XPF d   1      64.506  25.604  42.476  0.00  0.00     0.085 H 
ATOM     16  H3  XPF d   1      60.170  27.960  42.561  0.00  0.00     0.087 H 
ATOM     17  H4  XPF d   1      62.227  20.879  43.835  0.00  0.00     0.086 H 
ATOM     18  H5  XPF d   1      64.440  28.065  42.486  0.00  0.00     0.087 H 
ATOM     19  H6  XPF d   1      62.027  23.385  44.559  0.00  0.00     0.085 H 
ENDROOT
BRANCH  11  20
ATOM     20  O13 XPF d   1      62.381  29.533  42.513  0.00  0.00    -0.342 OA
BRANCH  20  21
ATOM     21  C2  XPF d   1      61.181  30.162  42.060  0.00  0.00     0.087 C 
ATOM     22  C3  XPF d   1      61.621  31.242  41.111  0.00  0.00     0.046 C 
ATOM     23  O4  XPF d   1      61.921  32.418  41.869  0.00  0.00    -0.386 OA
ATOM     24  H9  XPF d   1      60.814  31.458  40.395  0.00  0.00     0.078 H 
ATOM     25  H10 XPF d   1      62.518  30.914  40.565  0.00  0.00     0.078 H 
ATOM     26  C5  XPF d   1      61.350  32.277  43.170  0.00  0.00     0.041 C 
ATOM     27  C1  XPF d   1      60.611  30.959  43.205  0.00  0.00     0.067 C 
ATOM     28  H7  XPF d   1      62.145  32.282  43.931  0.00  0.00     0.077 H 
ATOM     29  H8  XPF d   1      60.651  33.104  43.364  0.00  0.00     0.077 H 
ATOM     30  H11 XPF d   1      59.527  31.102  43.085  0.00  0.00     0.081 H 
ATOM     31  H12 XPF d   1      60.466  29.449  41.624  0.00  0.00     0.090 H 
BRANCH  27  32
ATOM     32  N6  XPF d   1      60.902  30.298  44.489  0.00  0.00    -0.310 N 
ATOM     33  H20 XPF d   1      61.837  30.139  44.804  0.00  0.00     0.172 HD
BRANCH  32  34
ATOM     34  S7  XPF d   1      59.551  29.824  45.399  0.00  0.00     0.230 S 
ATOM     35  O8  XPF d   1      59.962  29.256  46.666  0.00  0.00    -0.206 OA
ATOM     36  O9  XPF d   1      58.680  29.046  44.551  0.00  0.00    -0.206 OA
BRANCH  34  37
ATOM     37  C10 XPF d   1      58.783  31.394  45.666  0.00  0.00     0.056 C 
ATOM     38  H19 XPF d   1      58.652  31.896  44.696  0.00  0.00     0.065 H 
BRANCH  37  39
ATOM     39  C11 XPF d   1      59.667  32.258  46.528  0.00  0.00    -0.059 C 
ATOM     40  H13 XPF d   1      59.182  33.232  46.689  0.00  0.00     0.029 H 
ATOM     41  H14 XPF d   1      60.634  32.408  46.026  0.00  0.00     0.029 H 
ATOM     42  H15 XPF d   1      59.829  31.764  47.498  0.00  0.00     0.029 H 
ENDBRANCH  37  39
BRANCH  37  43
ATOM     43  C12 XPF d   1      57.422  31.176  46.278  0.00  0.00    -0.059 C 
ATOM     44  H16 XPF d   1      56.936  32.148  46.448  0.00  0.00     0.029 H 
ATOM     45  H17 XPF d   1      57.531  30.648  47.237  0.00  0.00     0.029 H 
ATOM     46  H18 XPF d   1      56.806  30.572  45.596  0.00  0.00     0.029 H 
ENDBRANCH  37  43
ENDBRANCH  34  37
ENDBRANCH  32  34
ENDBRANCH  27  32
ENDBRANCH  20  21
ENDBRANCH  11  20
TORSDOF 7
