REMARK  8 active torsions:
REMARK  status: ('A' for Active; 'I' for Inactive)
REMARK    1  A    between atoms: C4_1  and  O4_21 
REMARK    2  A    between atoms: C5_2  and  C6_3 
REMARK    3  A    between atoms: C6_3  and  O6_20 
REMARK    4  A    between atoms: C3_4  and  O3_22 
REMARK    5  A    between atoms: CAD_11  and  CAG_10 
REMARK    6  A    between atoms: O1_17  and  CAA_16 
REMARK    7  A    between atoms: C1_18  and  O1_17 
REMARK    8  A    between atoms: C2_23  and  O2_24 
ROOT
ATOM      1  C4  3X8 d   1     -21.015  -6.834 -11.278  0.00  0.00     0.090 C 
ATOM      2  C5  3X8 d   1     -21.465  -5.859 -12.356  0.00  0.00     0.089 C 
ATOM      3  C3  3X8 d   1     -19.781  -7.573 -11.760  0.00  0.00     0.092 C 
ATOM      4  C1  3X8 d   1     -19.228  -5.612 -13.160  0.00  0.00     0.164 C 
ATOM      5  O5  3X8 d   1     -20.408  -4.929 -12.668  0.00  0.00    -0.348 OA
ATOM      6  C2  3X8 d   1     -18.699  -6.540 -12.068  0.00  0.00     0.110 C 
ATOM      7  H1  3X8 d   1     -20.782  -6.286 -10.353  0.00  0.00     0.091 H 
ATOM      8  H2  3X8 d   1     -21.722  -6.424 -13.264  0.00  0.00     0.090 H 
ATOM      9  H5  3X8 d   1     -20.023  -8.128 -12.678  0.00  0.00     0.091 H 
ATOM     10  H15 3X8 d   1     -18.468  -4.861 -13.420  0.00  0.00     0.134 H 
ATOM     11  H19 3X8 d   1     -17.793  -7.052 -12.425  0.00  0.00     0.094 H 
ENDROOT
BRANCH   4  12
ATOM     12  O1  3X8 d   1     -19.483  -6.446 -14.305  0.00  0.00    -0.318 OA
BRANCH  12  13
ATOM     13  CAA 3X8 d   1     -19.979  -5.960 -15.482  0.00  0.00     0.072 A 
ATOM     14  CAB 3X8 d   1     -20.358  -4.633 -15.679  0.00  0.00    -0.050 A 
ATOM     15  CAC 3X8 d   1     -20.857  -4.234 -16.921  0.00  0.00    -0.070 A 
ATOM     16  H12 3X8 d   1     -20.266  -3.915 -14.873  0.00  0.00     0.087 H 
ATOM     17  CAD 3X8 d   1     -20.982  -5.152 -17.965  0.00  0.00    -0.026 A 
ATOM     18  H11 3X8 d   1     -21.150  -3.202 -17.076  0.00  0.00     0.085 H 
ATOM     19  CAE 3X8 d   1     -20.602  -6.472 -17.758  0.00  0.00    -0.070 A 
ATOM     20  CAF 3X8 d   1     -20.104  -6.868 -16.526  0.00  0.00    -0.050 A 
ATOM     21  H13 3X8 d   1     -20.695  -7.194 -18.561  0.00  0.00     0.085 H 
ATOM     22  H14 3X8 d   1     -19.808  -7.900 -16.375  0.00  0.00     0.087 H 
BRANCH  17  23
ATOM     23  CAG 3X8 d   1     -21.484  -4.778 -19.215  0.00  0.00    -0.026 A 
ATOM     24  CAH 3X8 d   1     -21.255  -3.507 -19.729  0.00  0.00    -0.072 A 
ATOM     25  CAI 3X8 d   1     -21.763  -3.160 -20.979  0.00  0.00    -0.082 A 
ATOM     26  H6  3X8 d   1     -20.681  -2.786 -19.158  0.00  0.00     0.084 H 
ATOM     27  CAJ 3X8 d   1     -22.503  -4.077 -21.717  0.00  0.00    -0.083 A 
ATOM     28  H7  3X8 d   1     -21.580  -2.169 -21.379  0.00  0.00     0.083 H 
ATOM     29  CAK 3X8 d   1     -22.736  -5.346 -21.205  0.00  0.00    -0.082 A 
ATOM     30  H8  3X8 d   1     -22.897  -3.802 -22.689  0.00  0.00     0.083 H 
ATOM     31  CAL 3X8 d   1     -22.225  -5.693 -19.959  0.00  0.00    -0.072 A 
ATOM     32  H9  3X8 d   1     -23.314  -6.064 -21.775  0.00  0.00     0.083 H 
ATOM     33  H10 3X8 d   1     -22.405  -6.686 -19.563  0.00  0.00     0.084 H 
ENDBRANCH  17  23
ENDBRANCH  12  13
ENDBRANCH   4  12
BRANCH   6  34
ATOM     34  O2  3X8 d   1     -18.378  -5.780 -10.893  0.00  0.00    -0.388 OA
ATOM     35  H20 3X8 d   1     -18.050  -6.364 -10.219  0.00  0.00     0.210 HD
ENDBRANCH   6  34
BRANCH   2  36
ATOM     36  C6  3X8 d   1     -22.703  -5.094 -11.875  0.00  0.00     0.043 C 
ATOM     37  H3  3X8 d   1     -23.512  -5.808 -11.659  0.00  0.00     0.078 H 
ATOM     38  H4  3X8 d   1     -23.029  -4.396 -12.661  0.00  0.00     0.078 H 
BRANCH  36  39
ATOM     39  O6  3X8 d   1     -22.390  -4.359 -10.688  0.00  0.00    -0.398 OA
ATOM     40  H16 3X8 d   1     -23.162  -3.888 -10.396  0.00  0.00     0.209 HD
ENDBRANCH  36  39
ENDBRANCH   2  36
BRANCH   3  41
ATOM     41  O3  3X8 d   1     -19.336  -8.503 -10.761  0.00  0.00    -0.390 OA
ATOM     42  H18 3X8 d   1     -18.564  -8.958 -11.075  0.00  0.00     0.210 HD
ENDBRANCH   3  41
BRANCH   1  43
ATOM     43  O4  3X8 d   1     -22.068  -7.769 -11.033  0.00  0.00    -0.390 OA
ATOM     44  H17 3X8 d   1     -22.839  -7.304 -10.731  0.00  0.00     0.210 HD
ENDBRANCH   1  43
TORSDOF 8
