REMARK  10 active torsions:
REMARK  status: ('A' for Active; 'I' for Inactive)
REMARK    1  A    between atoms: C6_5  and  C7_6 
REMARK       I    between atoms: N_21  and  C6_5 
REMARK    2  A    between atoms: C16_30  and  O5_9 
REMARK    3  A    between atoms: C10_10  and  C13_14 
REMARK    4  A    between atoms: C17_29  and  O6_11 
REMARK    5  A    between atoms: C18_28  and  O7_15 
REMARK    6  A    between atoms: C14_16  and  O_27 
REMARK    7  A    between atoms: C19_31  and  O8_17 
REMARK    8  A    between atoms: C15_18  and  C19_31 
REMARK    9  A    between atoms: C3_22  and  N_21 
REMARK   10  A    between atoms: O_27  and  C_26 
ROOT
ATOM      1  C4  3XJ d   1      -6.708  46.712 -11.104  0.00  0.00    -0.033 A 
ATOM      2  C5  3XJ d   1      -5.424  46.483 -10.646  0.00  0.00     0.069 A 
ATOM      3  C3  3XJ d   1      -7.042  47.979 -11.617  0.00  0.00     0.036 A 
ATOM      4  C2  3XJ d   1      -6.073  48.956 -11.647  0.00  0.00    -0.054 A 
ATOM      5  C1  3XJ d   1      -4.813  48.712 -11.186  0.00  0.00    -0.047 A 
ATOM      6 CL   3XJ d   1      -5.009  44.922 -10.083  0.00  0.00    -0.081 Cl
ATOM      7  C   3XJ d   1      -4.470  47.470 -10.673  0.00  0.00     0.094 A 
ATOM      8  H1  3XJ d   1      -7.450  45.923 -11.068  0.00  0.00     0.089 H 
ATOM      9  H13 3XJ d   1      -6.315  49.935 -12.043  0.00  0.00     0.087 H 
ATOM     10  H14 3XJ d   1      -4.069  49.500 -11.221  0.00  0.00     0.087 H 
ENDROOT
BRANCH   7  11
ATOM     11  O   3XJ d   1      -3.213  47.126 -10.217  0.00  0.00    -0.316 OA
BRANCH  11  12
ATOM     12  C14 3XJ d   1      -2.284  48.109  -9.956  0.00  0.00     0.164 C 
ATOM     13  O4  3XJ d   1      -2.729  49.084  -9.067  0.00  0.00    -0.348 OA
ATOM     14  C15 3XJ d   1      -3.061  48.535  -7.787  0.00  0.00     0.089 C 
ATOM     15  C16 3XJ d   1      -1.869  47.832  -7.181  0.00  0.00     0.090 C 
ATOM     16  H11 3XJ d   1      -3.854  47.783  -7.915  0.00  0.00     0.090 H 
ATOM     17  C17 3XJ d   1      -1.239  46.846  -8.113  0.00  0.00     0.092 C 
ATOM     18  H17 3XJ d   1      -1.113  48.607  -6.987  0.00  0.00     0.091 H 
ATOM     19  C18 3XJ d   1      -1.044  47.450  -9.452  0.00  0.00     0.110 C 
ATOM     20  H16 3XJ d   1      -1.962  46.027  -8.243  0.00  0.00     0.091 H 
ATOM     21  H15 3XJ d   1      -0.770  46.646 -10.151  0.00  0.00     0.094 H 
ATOM     22  H9  3XJ d   1      -2.050  48.614 -10.905  0.00  0.00     0.134 H 
BRANCH  14  23
ATOM     23  C19 3XJ d   1      -3.619  49.671  -6.964  0.00  0.00     0.043 C 
ATOM     24  H18 3XJ d   1      -4.511  50.075  -7.465  0.00  0.00     0.078 H 
ATOM     25  H19 3XJ d   1      -3.897  49.293  -5.969  0.00  0.00     0.078 H 
BRANCH  23  26
ATOM     26  O8  3XJ d   1      -2.656  50.708  -6.817  0.00  0.00    -0.398 OA
ATOM     27  H10 3XJ d   1      -3.027  51.411  -6.297  0.00  0.00     0.209 HD
ENDBRANCH  23  26
ENDBRANCH  14  23
BRANCH  15  28
ATOM     28  O5  3XJ d   1      -2.181  47.259  -5.955  0.00  0.00    -0.390 OA
ATOM     29  H4  3XJ d   1      -2.467  47.937  -5.354  0.00  0.00     0.210 HD
ENDBRANCH  15  28
BRANCH  17  30
ATOM     30  O6  3XJ d   1      -0.090  46.264  -7.579  0.00  0.00    -0.390 OA
ATOM     31  H5  3XJ d   1       0.212  45.573  -8.157  0.00  0.00     0.210 HD
ENDBRANCH  17  30
BRANCH  19  32
ATOM     32  O7  3XJ d   1      -0.002  48.396  -9.424  0.00  0.00    -0.388 OA
ATOM     33  H8  3XJ d   1       0.791  47.983  -9.104  0.00  0.00     0.210 HD
ENDBRANCH  19  32
ENDBRANCH  11  12
ENDBRANCH   7  11
BRANCH   3  34
ATOM     34  N   3XJ d   1      -8.350  48.298 -12.030  0.00  0.00    -0.323 N 
ATOM     35  C6  3XJ d   1      -9.477  47.490 -12.161  0.00  0.00     0.256 C 
ATOM     36  O1  3XJ d   1      -9.390  46.347 -11.976  0.00  0.00    -0.267 OA
ATOM     37  H12 3XJ d   1      -8.493  49.259 -12.267  0.00  0.00     0.169 HD
BRANCH  35  38
ATOM     38  C7  3XJ d   1     -10.738  48.114 -12.607  0.00  0.00     0.032 A 
ATOM     39  C8  3XJ d   1     -11.435  47.451 -13.633  0.00  0.00    -0.067 A 
ATOM     40  C9  3XJ d   1     -12.687  47.893 -14.033  0.00  0.00    -0.066 A 
ATOM     41  H2  3XJ d   1     -10.990  46.588 -14.115  0.00  0.00     0.085 H 
ATOM     42  C10 3XJ d   1     -13.255  48.994 -13.424  0.00  0.00     0.040 A 
ATOM     43  H3  3XJ d   1     -13.219  47.375 -14.823  0.00  0.00     0.085 H 
ATOM     44  C11 3XJ d   1     -12.557  49.666 -12.406  0.00  0.00    -0.066 A 
ATOM     45  C12 3XJ d   1     -11.297  49.238 -12.007  0.00  0.00    -0.067 A 
ATOM     46  H6  3XJ d   1     -13.007  50.528 -11.927  0.00  0.00     0.085 H 
ATOM     47  H7  3XJ d   1     -10.755  49.774 -11.236  0.00  0.00     0.085 H 
BRANCH  42  48
ATOM     48  C13 3XJ d   1     -14.637  49.483 -13.897  0.00  0.00     0.209 C 
ATOM     49  O3  3XJ d   1     -15.118  50.497 -13.342  0.00  0.00    -0.644 OA
ATOM     50  O2  3XJ d   1     -15.177  48.832 -14.821  0.00  0.00    -0.644 OA
ENDBRANCH  42  48
ENDBRANCH  35  38
ENDBRANCH   3  34
TORSDOF 10
