REMARK  9 active torsions:
REMARK  status: ('A' for Active; 'I' for Inactive)
REMARK    1  A    between atoms: C2_29  and  O3_1 
REMARK    2  A    between atoms: C4_2  and  C5_3 
REMARK    3  A    between atoms: C5_3  and  O1_26 
REMARK    4  A    between atoms: C1_30  and  O4_4 
REMARK    5  A    between atoms: O5_10  and  C6_5 
REMARK    6  A    between atoms: C18_19  and  N1_6 
REMARK    7  A    between atoms: C9_9  and  N_23 
REMARK    8  A    between atoms: C_24  and  O5_10 
REMARK    9  A    between atoms: C3_27  and  O2_28 
ROOT
ATOM      1  C6  3XN d   1     -28.579  -8.919 -10.682  0.00  0.00     0.072 A 
ATOM      2  C7  3XN d   1     -29.004  -7.727 -11.183  0.00  0.00    -0.049 A 
ATOM      3  C8  3XN d   1     -30.335  -7.640 -11.622  0.00  0.00    -0.054 A 
ATOM      4  C9  3XN d   1     -31.190  -8.750 -11.535  0.00  0.00     0.039 A 
ATOM      5  C10 3XN d   1     -30.716  -9.940 -11.023  0.00  0.00    -0.054 A 
ATOM      6  C11 3XN d   1     -29.418 -10.022 -10.603  0.00  0.00    -0.049 A 
ATOM      7  H6  3XN d   1     -28.338  -6.874 -11.241  0.00  0.00     0.087 H 
ATOM      8  H7  3XN d   1     -30.706  -6.707 -12.032  0.00  0.00     0.087 H 
ATOM      9  H8  3XN d   1     -31.368 -10.803 -10.954  0.00  0.00     0.087 H 
ATOM     10  H9  3XN d   1     -29.040 -10.957 -10.205  0.00  0.00     0.087 H 
ENDROOT
BRANCH   1  11
ATOM     11  O5  3XN d   1     -27.276  -9.116 -10.262  0.00  0.00    -0.318 OA
BRANCH  11  12
ATOM     12  C   3XN d   1     -26.400  -8.075 -10.074  0.00  0.00     0.164 C 
ATOM     13  O   3XN d   1     -26.851  -7.074  -9.219  0.00  0.00    -0.348 OA
ATOM     14  C4  3XN d   1     -27.161  -7.589  -7.916  0.00  0.00     0.089 C 
ATOM     15  C3  3XN d   1     -25.911  -8.215  -7.292  0.00  0.00     0.090 C 
ATOM     16  H2  3XN d   1     -27.931  -8.370  -8.001  0.00  0.00     0.090 H 
ATOM     17  C2  3XN d   1     -25.330  -9.271  -8.222  0.00  0.00     0.092 C 
ATOM     18  H17 3XN d   1     -25.162  -7.428  -7.120  0.00  0.00     0.091 H 
ATOM     19  C1  3XN d   1     -25.108  -8.693  -9.614  0.00  0.00     0.110 C 
ATOM     20  H19 3XN d   1     -26.045 -10.103  -8.301  0.00  0.00     0.091 H 
ATOM     21  H20 3XN d   1     -24.804  -9.493 -10.305  0.00  0.00     0.094 H 
ATOM     22  H15 3XN d   1     -26.227  -7.599 -11.051  0.00  0.00     0.134 H 
BRANCH  14  23
ATOM     23  C5  3XN d   1     -27.720  -6.440  -7.124  0.00  0.00     0.043 C 
ATOM     24  H3  3XN d   1     -28.013  -6.802  -6.127  0.00  0.00     0.078 H 
ATOM     25  H4  3XN d   1     -28.604  -6.044  -7.645  0.00  0.00     0.078 H 
BRANCH  23  26
ATOM     26  O1  3XN d   1     -26.762  -5.392  -6.974  0.00  0.00    -0.398 OA
ATOM     27  H16 3XN d   1     -27.145  -4.684  -6.471  0.00  0.00     0.209 HD
ENDBRANCH  23  26
ENDBRANCH  14  23
BRANCH  15  28
ATOM     28  O2  3XN d   1     -26.240  -8.827  -6.065  0.00  0.00    -0.390 OA
ATOM     29  H18 3XN d   1     -26.593  -8.175  -5.472  0.00  0.00     0.210 HD
ENDBRANCH  15  28
BRANCH  17  30
ATOM     30  O3  3XN d   1     -24.111  -9.769  -7.679  0.00  0.00    -0.390 OA
ATOM     31  H1  3XN d   1     -23.752 -10.428  -8.262  0.00  0.00     0.210 HD
ENDBRANCH  17  30
BRANCH  19  32
ATOM     32  O4  3XN d   1     -24.102  -7.684  -9.577  0.00  0.00    -0.388 OA
ATOM     33  H5  3XN d   1     -23.282  -8.066  -9.287  0.00  0.00     0.210 HD
ENDBRANCH  19  32
ENDBRANCH  11  12
ENDBRANCH   1  11
BRANCH   4  34
ATOM     34  N   3XN d   1     -32.550  -8.660 -11.955  0.00  0.00    -0.322 N 
ATOM     35  C12 3XN d   1     -32.979  -7.905 -13.071  0.00  0.00    -0.013 A 
ATOM     36  C13 3XN d   1     -34.358  -8.077 -13.205  0.00  0.00    -0.055 A 
ATOM     37  H10 3XN d   1     -32.345  -7.296 -13.713  0.00  0.00     0.112 H 
ATOM     38  C14 3XN d   1     -34.797  -8.953 -12.116  0.00  0.00    -0.005 A 
ATOM     39  H11 3XN d   1     -34.990  -7.641 -13.977  0.00  0.00     0.087 H 
ATOM     40  C15 3XN d   1     -33.634  -9.299 -11.359  0.00  0.00     0.049 A 
ATOM     41  C19 3XN d   1     -36.069  -9.401 -11.703  0.00  0.00    -0.039 A 
ATOM     42  C16 3XN d   1     -33.740 -10.098 -10.181  0.00  0.00    -0.053 A 
ATOM     43  C17 3XN d   1     -34.991 -10.527  -9.777  0.00  0.00    -0.049 A 
ATOM     44  H14 3XN d   1     -32.856 -10.364  -9.613  0.00  0.00     0.087 H 
ATOM     45  C18 3XN d   1     -36.140 -10.177 -10.540  0.00  0.00     0.103 A 
ATOM     46  H13 3XN d   1     -35.096 -11.128  -8.881  0.00  0.00     0.087 H 
ATOM     47  H12 3XN d   1     -36.961  -9.153 -12.267  0.00  0.00     0.088 H 
BRANCH  45  48
ATOM     48  N1  3XN d   1     -37.475 -10.649 -10.059  0.00  0.00    -0.116 N 
ATOM     49  O6  3XN d   1     -37.543 -11.081  -8.910  0.00  0.00    -0.532 OA
ATOM     50  O7  3XN d   1     -38.439 -10.587 -10.809  0.00  0.00    -0.532 OA
ENDBRANCH  45  48
ENDBRANCH   4  34
TORSDOF 9
