REMARK  11 active torsions:
REMARK  status: ('A' for Active; 'I' for Inactive)
REMARK    1  A    between atoms: C17_31  and  O4_4 
REMARK    2  A    between atoms: N_22  and  C6_5 
REMARK    3  A    between atoms: C7_7  and  N1_6 
REMARK    4  A    between atoms: N2_9  and  C14_18 
REMARK    5  A    between atoms: C18_30  and  O5_11 
REMARK    6  A    between atoms: C19_29  and  O6_13 
REMARK    7  A    between atoms: C20_33  and  O7_17 
REMARK    8  A    between atoms: C15_19  and  O_28 
REMARK    9  A    between atoms: C3_23  and  N_22 
REMARK   10  A    between atoms: O_28  and  C_27 
REMARK   11  A    between atoms: C16_32  and  C20_33 
ROOT
ATOM      1  C4  3XO d   1       9.717  18.414 -16.147  0.00  0.00    -0.034 A 
ATOM      2  C5  3XO d   1       9.398  17.192 -15.573  0.00  0.00     0.069 A 
ATOM      3  C3  3XO d   1      10.668  18.441 -17.161  0.00  0.00     0.034 A 
ATOM      4  C2  3XO d   1      11.282  17.249 -17.596  0.00  0.00    -0.054 A 
ATOM      5  C1  3XO d   1      10.920  16.029 -16.991  0.00  0.00    -0.047 A 
ATOM      6 CL   3XO d   1       8.225  17.158 -14.329  0.00  0.00    -0.081 Cl
ATOM      7  C   3XO d   1       9.971  16.019 -15.971  0.00  0.00     0.094 A 
ATOM      8  H1  3XO d   1       9.236  19.326 -15.813  0.00  0.00     0.089 H 
ATOM      9  H20 3XO d   1      12.024  17.271 -18.386  0.00  0.00     0.087 H 
ATOM     10  H21 3XO d   1      11.378  15.102 -17.318  0.00  0.00     0.087 H 
ENDROOT
BRANCH   3  11
ATOM     11  N   3XO d   1      11.035  19.607 -17.825  0.00  0.00    -0.351 N 
ATOM     12  H19 3XO d   1      11.842  19.529 -18.460  0.00  0.00     0.166 HD
BRANCH  11  13
ATOM     13  C6  3XO d   1      10.453  20.856 -17.739  0.00  0.00     0.118 A 
ATOM     14  C7  3XO d   1      10.790  22.087 -18.377  0.00  0.00     0.116 A 
ATOM     15  C8  3XO d   1       9.695  22.807 -17.673  0.00  0.00     0.252 A 
ATOM     16  C9  3XO d   1       9.322  21.482 -16.994  0.00  0.00     0.253 A 
ATOM     17  O1  3XO d   1       9.321  23.924 -17.650  0.00  0.00    -0.281 OA
ATOM     18  O2  3XO d   1       8.491  21.183 -16.218  0.00  0.00    -0.281 OA
BRANCH  14  19
ATOM     19  N1  3XO d   1      11.714  22.545 -19.251  0.00  0.00    -0.372 N 
ATOM     20  C10 3XO d   1      12.840  21.749 -19.808  0.00  0.00     0.018 C 
ATOM     21  C11 3XO d   1      14.156  22.432 -19.513  0.00  0.00     0.098 C 
ATOM     22  H5  3XO d   1      12.715  21.655 -20.897  0.00  0.00     0.066 H 
ATOM     23  H6  3XO d   1      12.839  20.748 -19.351  0.00  0.00     0.066 H 
ATOM     24  N2  3XO d   1      14.155  23.807 -19.997  0.00  0.00    -0.072 N 
ATOM     25  H8  3XO d   1      14.324  22.434 -18.426  0.00  0.00     0.078 H 
ATOM     26  H9  3XO d   1      14.967  21.878 -20.008  0.00  0.00     0.078 H 
ATOM     27  C12 3XO d   1      13.043  24.541 -19.393  0.00  0.00     0.098 C 
ATOM     28  H3  3XO d   1      14.034  23.798 -20.998  0.00  0.00     0.279 HD
ATOM     29  C13 3XO d   1      11.718  23.914 -19.768  0.00  0.00     0.018 C 
ATOM     30  H10 3XO d   1      13.063  25.582 -19.748  0.00  0.00     0.078 H 
ATOM     31  H11 3XO d   1      13.152  24.525 -18.299  0.00  0.00     0.078 H 
ATOM     32  H12 3XO d   1      10.892  24.486 -19.320  0.00  0.00     0.066 H 
ATOM     33  H13 3XO d   1      11.605  23.902 -20.862  0.00  0.00     0.066 H 
BRANCH  24  34
ATOM     34  C14 3XO d   1      15.469  24.487 -19.675  0.00  0.00     0.066 C 
ATOM     35  H15 3XO d   1      16.295  23.925 -20.135  0.00  0.00     0.068 H 
ATOM     36  H16 3XO d   1      15.609  24.517 -18.584  0.00  0.00     0.068 H 
ATOM     37  H17 3XO d   1      15.458  25.513 -20.072  0.00  0.00     0.068 H 
ENDBRANCH  24  34
ENDBRANCH  14  19
ENDBRANCH  11  13
ENDBRANCH   3  11
BRANCH   7  38
ATOM     38  O   3XO d   1       9.564  14.851 -15.361  0.00  0.00    -0.316 OA
BRANCH  38  39
ATOM     39  C15 3XO d   1      10.413  13.730 -15.439  0.00  0.00     0.164 C 
ATOM     40  O3  3XO d   1      11.708  14.057 -14.979  0.00  0.00    -0.348 OA
ATOM     41  C16 3XO d   1      11.766  14.499 -13.608  0.00  0.00     0.089 C 
ATOM     42  C17 3XO d   1      11.184  13.436 -12.684  0.00  0.00     0.090 C 
ATOM     43  H25 3XO d   1      11.178  15.422 -13.494  0.00  0.00     0.090 H 
ATOM     44  C18 3XO d   1       9.776  13.075 -13.115  0.00  0.00     0.092 C 
ATOM     45  H24 3XO d   1      11.815  12.536 -12.729  0.00  0.00     0.091 H 
ATOM     46  C19 3XO d   1       9.790  12.638 -14.578  0.00  0.00     0.110 C 
ATOM     47  H23 3XO d   1       9.133  13.962 -13.020  0.00  0.00     0.091 H 
ATOM     48  H22 3XO d   1       8.753  12.471 -14.906  0.00  0.00     0.094 H 
ATOM     49  H18 3XO d   1      10.480  13.386 -16.482  0.00  0.00     0.134 H 
BRANCH  41  50
ATOM     50  C20 3XO d   1      13.216  14.791 -13.291  0.00  0.00     0.043 C 
ATOM     51  H26 3XO d   1      13.573  15.590 -13.957  0.00  0.00     0.078 H 
ATOM     52  H27 3XO d   1      13.293  15.124 -12.245  0.00  0.00     0.078 H 
BRANCH  50  53
ATOM     53  O7  3XO d   1      14.033  13.638 -13.471  0.00  0.00    -0.398 OA
ATOM     54  H14 3XO d   1      14.935  13.855 -13.264  0.00  0.00     0.209 HD
ENDBRANCH  50  53
ENDBRANCH  41  50
BRANCH  42  55
ATOM     55  O4  3XO d   1      11.163  13.926 -11.350  0.00  0.00    -0.390 OA
ATOM     56  H2  3XO d   1      12.046  14.151 -11.083  0.00  0.00     0.210 HD
ENDBRANCH  42  55
BRANCH  44  57
ATOM     57  O5  3XO d   1       9.267  12.052 -12.264  0.00  0.00    -0.390 OA
ATOM     58  H4  3XO d   1       8.377  11.841 -12.522  0.00  0.00     0.210 HD
ENDBRANCH  44  57
BRANCH  46  59
ATOM     59  O6  3XO d   1      10.530  11.420 -14.746  0.00  0.00    -0.388 OA
ATOM     60  H7  3XO d   1      10.142  10.739 -14.210  0.00  0.00     0.210 HD
ENDBRANCH  46  59
ENDBRANCH  38  39
ENDBRANCH   7  38
TORSDOF 11
