REMARK  9 active torsions:
REMARK  status: ('A' for Active; 'I' for Inactive)
REMARK    1  A    between atoms: C6_3  and  NAX_15 
REMARK    2  A    between atoms: CAT_10  and  CBN_7 
REMARK    3  A    between atoms: CBD_11  and  CAT_10 
REMARK    4  A    between atoms: NAX_15  and  CBK_16 
REMARK    5  A    between atoms: NBL_21  and  CAR_22 
REMARK    6  A    between atoms: CAR_22  and  CBE_23 
REMARK    7  A    between atoms: CBB_24  and  CAA_25 
REMARK    8  A    between atoms: NBM_34  and  CAS_35 
REMARK    9  A    between atoms: CAS_35  and  CBA_36 
ROOT
ATOM      1  CBE 3XW d   1      10.193  17.291  11.301  0.00  0.00    -0.026 A 
ATOM      2  CBB 3XW d   1       9.046  17.777  11.937  0.00  0.00    -0.042 A 
ATOM      3  CAH 3XW d   1      11.347  18.055  11.411  0.00  0.00    -0.072 A 
ATOM      4  CAI 3XW d   1      11.298  19.233  12.159  0.00  0.00    -0.056 A 
ATOM      5  CBJ 3XW d   1      10.175  19.646  12.755  0.00  0.00     0.046 A 
ATOM      6  CBG 3XW d   1       9.054  18.926  12.646  0.00  0.00     0.000 A 
ATOM      7  CAL 3XW d   1       8.099  19.578  13.340  0.00  0.00    -0.034 A 
ATOM      8  CBC 3XW d   1       8.640  20.689  13.858  0.00  0.00     0.117 A 
ATOM      9  CAF 3XW d   1       8.033  21.632  14.638  0.00  0.00     0.118 C 
ATOM     10  NAB 3XW d   1       7.600  22.358  15.228  0.00  0.00    -0.190 NA
ATOM     11  NBM 3XW d   1       9.901  20.731  13.494  0.00  0.00    -0.333 N 
ATOM     12  H21 3XW d   1      12.266  17.744  10.927  0.00  0.00     0.084 H 
ATOM     13  H22 3XW d   1      12.197  19.830  12.259  0.00  0.00     0.087 H 
ATOM     14  H23 3XW d   1       7.065  19.257  13.459  0.00  0.00     0.089 H 
ENDROOT
BRANCH  11  15
ATOM     15  CAS 3XW d   1      10.787  21.798  13.917  0.00  0.00     0.027 C 
ATOM     16  H24 3XW d   1      11.793  21.372  14.046  0.00  0.00     0.072 H 
ATOM     17  H25 3XW d   1      10.423  22.177  14.883  0.00  0.00     0.072 H 
BRANCH  15  18
ATOM     18  CBA 3XW d   1      10.898  22.977  12.964  0.00  0.00    -0.004 A 
ATOM     19  CAJ 3XW d   1       9.966  23.820  12.596  0.00  0.00     0.030 A 
ATOM     20  NAU 3XW d   1      10.614  24.630  11.765  0.00  0.00    -0.187 NA
ATOM     21  H26 3XW d   1       8.920  23.850  12.896  0.00  0.00     0.118 H 
ATOM     22  NAY 3XW d   1      11.759  24.349  11.629  0.00  0.00    -0.289 N 
ATOM     23  CAK 3XW d   1      12.036  23.288  12.370  0.00  0.00     0.005 A 
ATOM     24  H27 3XW d   1      12.430  24.851  11.030  0.00  0.00     0.188 HD
ATOM     25  H28 3XW d   1      12.995  22.781  12.469  0.00  0.00     0.114 H 
ENDBRANCH  15  18
ENDBRANCH  11  15
BRANCH   2  26
ATOM     26  CAA 3XW d   1       7.864  17.053  11.841  0.00  0.00    -0.050 C 
ATOM     27  H18 3XW d   1       8.034  16.152  11.233  0.00  0.00     0.033 H 
ATOM     28  H19 3XW d   1       7.090  17.675  11.367  0.00  0.00     0.033 H 
ATOM     29  H20 3XW d   1       7.532  16.758  12.847  0.00  0.00     0.033 H 
ENDBRANCH   2  26
BRANCH   1  30
ATOM     30  CAR 3XW d   1      10.148  16.089  10.542  0.00  0.00     0.107 C 
ATOM     31  H16 3XW d   1       9.138  15.670  10.657  0.00  0.00     0.083 H 
ATOM     32  H17 3XW d   1      10.313  16.363   9.490  0.00  0.00     0.083 H 
BRANCH  30  33
ATOM     33  NBL 3XW d   1      11.116  15.003  10.872  0.00  0.00    -0.067 N 
ATOM     34  CAQ 3XW d   1      10.709  14.404  12.139  0.00  0.00     0.086 C 
ATOM     35  CAO 3XW d   1      11.690  13.328  12.500  0.00  0.00    -0.023 C 
ATOM     36  H9  3XW d   1      10.697  15.173  12.925  0.00  0.00     0.076 H 
ATOM     37  H10 3XW d   1       9.704  13.969  12.037  0.00  0.00     0.076 H 
ATOM     38  CBK 3XW d   1      11.621  12.146  11.547  0.00  0.00     0.014 C 
ATOM     39  H7  3XW d   1      12.706  13.749  12.469  0.00  0.00     0.038 H 
ATOM     40  H8  3XW d   1      11.470  12.975  13.518  0.00  0.00     0.038 H 
ATOM     41  CAN 3XW d   1      11.854  12.702  10.139  0.00  0.00    -0.023 C 
ATOM     42  H6  3XW d   1      10.628  11.677  11.599  0.00  0.00     0.072 H 
ATOM     43  CAP 3XW d   1      10.959  13.944   9.871  0.00  0.00     0.086 C 
ATOM     44  H11 3XW d   1      11.616  11.922   9.401  0.00  0.00     0.038 H 
ATOM     45  H12 3XW d   1      12.910  12.992  10.038  0.00  0.00     0.038 H 
ATOM     46  H13 3XW d   1       9.907  13.621   9.867  0.00  0.00     0.076 H 
ATOM     47  H14 3XW d   1      11.220  14.355   8.885  0.00  0.00     0.076 H 
ATOM     48  H15 3XW d   1      12.061  15.351  10.907  0.00  0.00     0.280 HD
BRANCH  38  49
ATOM     49  NAX 3XW d   1      12.656  11.139  11.923  0.00  0.00    -0.369 N 
ATOM     50  H5  3XW d   1      13.601  11.489  12.134  0.00  0.00     0.161 HD
BRANCH  49  51
ATOM     51  C6  3XW d   1      12.454   9.801  12.010  0.00  0.00     0.138 A 
ATOM     52  C5  3XW d   1      13.472   8.979  12.390  0.00  0.00     0.046 A 
ATOM     53  C4  3XW d   1      13.219   7.646  12.476  0.00  0.00     0.113 A 
ATOM     54  CAM 3XW d   1      14.774   9.230  12.723  0.00  0.00    -0.053 A 
ATOM     55  N3  3XW d   1      12.034   7.103  12.177  0.00  0.00    -0.234 NA
ATOM     56  SAZ 3XW d   1      14.540   6.888  12.986  0.00  0.00    -0.074 SA
ATOM     57  C2  3XW d   1      10.985   7.942  11.816  0.00  0.00     0.090 A 
ATOM     58  N1  3XW d   1      11.242   9.310  11.723  0.00  0.00    -0.224 NA
ATOM     59  H4  3XW d   1       9.997   7.545  11.613  0.00  0.00     0.146 H 
ATOM     60  CBD 3XW d   1      15.459   8.137  13.041  0.00  0.00    -0.006 A 
ATOM     61  H3  3XW d   1      15.208  10.229  12.727  0.00  0.00     0.086 H 
BRANCH  60  62
ATOM     62  CAT 3XW d   1      16.921   8.096  13.428  0.00  0.00     0.056 C 
ATOM     63  H1  3XW d   1      17.231   9.091  13.779  0.00  0.00     0.054 H 
ATOM     64  H2  3XW d   1      17.062   7.362  14.236  0.00  0.00     0.054 H 
BRANCH  62  65
ATOM     65  CBN 3XW d   1      17.813   7.679  12.181  0.00  0.00     0.392 C 
ATOM     66  FAC 3XW d   1      17.589   8.518  11.175  0.00  0.00    -0.171 F 
ATOM     67  FAD 3XW d   1      19.097   7.726  12.519  0.00  0.00    -0.171 F 
ATOM     68  FAE 3XW d   1      17.499   6.443  11.805  0.00  0.00    -0.171 F 
ENDBRANCH  62  65
ENDBRANCH  60  62
ENDBRANCH  49  51
ENDBRANCH  38  49
ENDBRANCH  30  33
ENDBRANCH   1  30
TORSDOF 9
