REMARK  6 active torsions:
REMARK  status: ('A' for Active; 'I' for Inactive)
REMARK    1  A    between atoms: C6_3  and  NAT_15 
REMARK    2  A    between atoms: CAQ_10  and  CBG_7 
REMARK    3  A    between atoms: CAY_11  and  CAQ_10 
REMARK    4  A    between atoms: NAT_15  and  CBE_16 
REMARK    5  A    between atoms: NBF_21  and  CAP_22 
REMARK    6  A    between atoms: CAP_22  and  CAW_23 
ROOT
ATOM      1  CAW 3XY d   1      10.153  17.126  11.206  0.00  0.00    -0.032 A 
ATOM      2  CAI 3XY d   1       9.020  17.666  11.862  0.00  0.00    -0.063 A 
ATOM      3  CBA 3XY d   1       9.107  18.834  12.568  0.00  0.00    -0.006 A 
ATOM      4  CAJ 3XY d   1       8.180  19.528  13.289  0.00  0.00    -0.035 A 
ATOM      5  CAX 3XY d   1       8.807  20.595  13.818  0.00  0.00     0.115 A 
ATOM      6  CAE 3XY d   1       8.330  21.640  14.632  0.00  0.00     0.117 C 
ATOM      7  NAA 3XY d   1       7.923  22.452  15.280  0.00  0.00    -0.190 NA
ATOM      8  NAU 3XY d   1      10.068  20.572  13.484  0.00  0.00    -0.347 N 
ATOM      9  CBB 3XY d   1      10.264  19.493  12.705  0.00  0.00     0.043 A 
ATOM     10  CAH 3XY d   1      11.399  19.025  12.103  0.00  0.00    -0.056 A 
ATOM     11  CAG 3XY d   1      11.361  17.867  11.319  0.00  0.00    -0.073 A 
ATOM     12  H18 3XY d   1       8.070  17.146  11.804  0.00  0.00     0.085 H 
ATOM     13  H19 3XY d   1       7.130  19.268  13.413  0.00  0.00     0.089 H 
ATOM     14  H20 3XY d   1      10.784  21.256  13.766  0.00  0.00     0.167 HD
ATOM     15  H21 3XY d   1      12.335  19.555  12.234  0.00  0.00     0.087 H 
ATOM     16  H22 3XY d   1      12.252  17.535  10.798  0.00  0.00     0.084 H 
ENDROOT
BRANCH   1  17
ATOM     17  CAP 3XY d   1      10.069  15.907  10.381  0.00  0.00     0.107 C 
ATOM     18  H16 3XY d   1       9.052  15.497  10.464  0.00  0.00     0.083 H 
ATOM     19  H17 3XY d   1      10.271  16.178   9.334  0.00  0.00     0.083 H 
BRANCH  17  20
ATOM     20  NBF 3XY d   1      11.047  14.848  10.798  0.00  0.00    -0.067 N 
ATOM     21  CAO 3XY d   1      10.761  14.358  12.179  0.00  0.00     0.086 C 
ATOM     22  CAM 3XY d   1      11.809  13.280  12.499  0.00  0.00    -0.023 C 
ATOM     23  H9  3XY d   1      10.840  15.187  12.898  0.00  0.00     0.076 H 
ATOM     24  H10 3XY d   1       9.750  13.928  12.225  0.00  0.00     0.076 H 
ATOM     25  CBE 3XY d   1      11.716  12.102  11.545  0.00  0.00     0.014 C 
ATOM     26  H7  3XY d   1      12.812  13.724  12.420  0.00  0.00     0.038 H 
ATOM     27  H8  3XY d   1      11.648  12.920  13.526  0.00  0.00     0.038 H 
ATOM     28  CAL 3XY d   1      11.825  12.526  10.059  0.00  0.00    -0.023 C 
ATOM     29  H6  3XY d   1      10.758  11.582  11.692  0.00  0.00     0.072 H 
ATOM     30  CAN 3XY d   1      10.931  13.723   9.793  0.00  0.00     0.086 C 
ATOM     31  H11 3XY d   1      11.513  11.689   9.418  0.00  0.00     0.038 H 
ATOM     32  H12 3XY d   1      12.868  12.793   9.832  0.00  0.00     0.038 H 
ATOM     33  H13 3XY d   1       9.887  13.375   9.790  0.00  0.00     0.076 H 
ATOM     34  H14 3XY d   1      11.186  14.125   8.801  0.00  0.00     0.076 H 
ATOM     35  H15 3XY d   1      11.981  15.226  10.776  0.00  0.00     0.280 HD
BRANCH  25  36
ATOM     36  NAT 3XY d   1      12.846  11.207  11.920  0.00  0.00    -0.369 N 
ATOM     37  H5  3XY d   1      13.785  11.605  12.064  0.00  0.00     0.161 HD
BRANCH  36  38
ATOM     38  C6  3XY d   1      12.651   9.868  12.075  0.00  0.00     0.138 A 
ATOM     39  C5  3XY d   1      13.690   9.009  12.422  0.00  0.00     0.046 A 
ATOM     40  C4  3XY d   1      13.392   7.675  12.558  0.00  0.00     0.113 A 
ATOM     41  CAK 3XY d   1      14.999   9.264  12.695  0.00  0.00    -0.053 A 
ATOM     42  N3  3XY d   1      12.149   7.161  12.330  0.00  0.00    -0.234 NA
ATOM     43  SAV 3XY d   1      14.787   6.771  13.074  0.00  0.00    -0.074 SA
ATOM     44  C2  3XY d   1      11.123   8.026  11.983  0.00  0.00     0.090 A 
ATOM     45  N1  3XY d   1      11.401   9.371  11.803  0.00  0.00    -0.224 NA
ATOM     46  H4  3XY d   1      10.113   7.654  11.854  0.00  0.00     0.146 H 
ATOM     47  CAY 3XY d   1      15.747   8.162  13.027  0.00  0.00    -0.006 A 
ATOM     48  H3  3XY d   1      15.421  10.267  12.653  0.00  0.00     0.086 H 
BRANCH  47  49
ATOM     49  CAQ 3XY d   1      17.225   8.203  13.370  0.00  0.00     0.056 C 
ATOM     50  H1  3XY d   1      17.520   9.239  13.592  0.00  0.00     0.054 H 
ATOM     51  H2  3XY d   1      17.413   7.572  14.251  0.00  0.00     0.054 H 
BRANCH  49  52
ATOM     52  CBG 3XY d   1      18.045   7.685  12.191  0.00  0.00     0.392 C 
ATOM     53  FAB 3XY d   1      19.338   7.706  12.458  0.00  0.00    -0.171 F 
ATOM     54  FAC 3XY d   1      17.697   6.422  11.929  0.00  0.00    -0.171 F 
ATOM     55  FAD 3XY d   1      17.825   8.417  11.128  0.00  0.00    -0.171 F 
ENDBRANCH  49  52
ENDBRANCH  47  49
ENDBRANCH  36  38
ENDBRANCH  25  36
ENDBRANCH  17  20
ENDBRANCH   1  17
TORSDOF 6
