REMARK  10 active torsions:
REMARK  status: ('A' for Active; 'I' for Inactive)
REMARK    1  A    between atoms: C19_4  and  N20_27 
REMARK    2  A    between atoms: C27_12  and  C22_6 
REMARK    3  A    between atoms: C8_21  and  C11_9 
REMARK    4  A    between atoms: C3_16  and  C27_12 
REMARK    5  A    between atoms: C1_14  and  N2_15 
REMARK    6  A    between atoms: C30_32  and  C1_14 
REMARK       I    between atoms: N2_15  and  C28_30 
REMARK    7  A    between atoms: N4_17  and  C3_16 
REMARK    8  A    between atoms: C3_16  and  C5_18 
REMARK       I    between atoms: C28_30  and  N4_17 
REMARK    9  A    between atoms: C31_33  and  C37_37 
REMARK   10  A    between atoms: C37_37  and  N38_38 
ROOT
ATOM      1  C3  3Y3 d   1      39.796 -20.718  28.820  0.00  0.00     0.075 C 
ATOM      2  H12 3Y3 d   1      39.490 -20.940  29.853  0.00  0.00     0.085 H 
ENDROOT
BRANCH   1   3
ATOM      3  C27 3Y3 d   1      39.256 -21.853  27.932  0.00  0.00    -0.015 C 
ATOM      4  H6  3Y3 d   1      38.158 -21.867  28.002  0.00  0.00     0.043 H 
ATOM      5  H7  3Y3 d   1      39.554 -21.662  26.891  0.00  0.00     0.043 H 
BRANCH   3   6
ATOM      6  C22 3Y3 d   1      39.789 -23.203  28.352  0.00  0.00    -0.056 A 
ATOM      7  C21 3Y3 d   1      40.549 -23.960  27.475  0.00  0.00    -0.077 A 
ATOM      8  C26 3Y3 d   1      41.268 -25.055  27.927  0.00  0.00    -0.082 A 
ATOM      9  H2  3Y3 d   1      40.581 -23.693  26.425  0.00  0.00     0.084 H 
ATOM     10  C25 3Y3 d   1      41.212 -25.424  29.254  0.00  0.00    -0.083 A 
ATOM     11  H20 3Y3 d   1      41.877 -25.624  27.234  0.00  0.00     0.083 H 
ATOM     12  C24 3Y3 d   1      40.418 -24.716  30.124  0.00  0.00    -0.082 A 
ATOM     13  H19 3Y3 d   1      41.791 -26.268  29.610  0.00  0.00     0.083 H 
ATOM     14  C23 3Y3 d   1      39.699 -23.623  29.675  0.00  0.00    -0.077 A 
ATOM     15  H4  3Y3 d   1      40.355 -25.015  31.164  0.00  0.00     0.083 H 
ATOM     16  H3  3Y3 d   1      39.056 -23.086  30.364  0.00  0.00     0.084 H 
ENDBRANCH   3   6
ENDBRANCH   1   3
BRANCH   1  17
ATOM     17  N4  3Y3 d   1      39.222 -19.433  28.464  0.00  0.00    -0.331 N 
ATOM     18  C28 3Y3 d   1      39.116 -18.480  29.428  0.00  0.00     0.317 C 
ATOM     19  N2  3Y3 d   1      38.558 -17.323  29.035  0.00  0.00    -0.339 N 
ATOM     20  O29 3Y3 d   1      39.568 -18.633  30.560  0.00  0.00    -0.247 OA
ATOM     21  H11 3Y3 d   1      38.998 -16.464  29.295  0.00  0.00     0.164 HD
ATOM     22  H13 3Y3 d   1      38.911 -19.253  27.531  0.00  0.00     0.165 HD
BRANCH  19  23
ATOM     23  C1  3Y3 d   1      37.339 -17.273  28.246  0.00  0.00     0.021 C 
ATOM     24  H9  3Y3 d   1      36.612 -17.976  28.679  0.00  0.00     0.071 H 
ATOM     25  H10 3Y3 d   1      37.575 -17.578  27.216  0.00  0.00     0.071 H 
BRANCH  23  26
ATOM     26  C30 3Y3 d   1      36.722 -15.905  28.212  0.00  0.00    -0.031 A 
ATOM     27  C31 3Y3 d   1      37.363 -14.844  27.536  0.00  0.00    -0.025 A 
ATOM     28  C32 3Y3 d   1      36.815 -13.566  27.613  0.00  0.00    -0.073 A 
ATOM     29  C33 3Y3 d   1      35.647 -13.328  28.323  0.00  0.00    -0.061 A 
ATOM     30  H21 3Y3 d   1      37.309 -12.743  27.110  0.00  0.00     0.084 H 
ATOM     31  C34 3Y3 d   1      35.038 -14.376  28.974  0.00  0.00     0.034 A 
ATOM     32  H8  3Y3 d   1      35.221 -12.332  28.364  0.00  0.00     0.086 H 
ATOM     33  C35 3Y3 d   1      35.552 -15.649  28.919  0.00  0.00    -0.054 A 
ATOM     34 CL1  3Y3 d   1      33.618 -14.084  29.939  0.00  0.00    -0.084 Cl
ATOM     35  H22 3Y3 d   1      35.043 -16.458  29.430  0.00  0.00     0.087 H 
BRANCH  27  36
ATOM     36  C37 3Y3 d   1      38.633 -15.020  26.724  0.00  0.00     0.104 C 
ATOM     37  H23 3Y3 d   1      39.193 -15.873  27.135  0.00  0.00     0.082 H 
ATOM     38  H24 3Y3 d   1      39.236 -14.105  26.819  0.00  0.00     0.082 H 
BRANCH  36  39
ATOM     39  N38 3Y3 d   1      38.388 -15.272  25.282  0.00  0.00    -0.075 N 
ATOM     40  H25 3Y3 d   1      39.270 -15.379  24.805  0.00  0.00     0.274 HD
ATOM     41  H26 3Y3 d   1      37.884 -14.494  24.886  0.00  0.00     0.274 HD
ATOM     42  H27 3Y3 d   1      37.844 -16.114  25.176  0.00  0.00     0.274 HD
ENDBRANCH  36  39
ENDBRANCH  27  36
ENDBRANCH  23  26
ENDBRANCH  19  23
ENDBRANCH   1  17
BRANCH   1  43
ATOM     43  C5  3Y3 d   1      41.290 -20.657  28.799  0.00  0.00     0.129 A 
ATOM     44  N6  3Y3 d   1      42.018 -20.376  27.647  0.00  0.00    -0.331 N 
ATOM     45  C7  3Y3 d   1      43.333 -20.486  28.007  0.00  0.00     0.134 A 
ATOM     46  H14 3Y3 d   1      41.645 -20.136  26.718  0.00  0.00     0.168 HD
ATOM     47  C8  3Y3 d   1      43.352 -20.808  29.338  0.00  0.00     0.107 A 
ATOM     48 CL   3Y3 d   1      44.587 -20.259  26.871  0.00  0.00    -0.062 Cl
ATOM     49  N9  3Y3 d   1      42.068 -20.908  29.826  0.00  0.00    -0.229 NA
BRANCH  47  50
ATOM     50  C11 3Y3 d   1      44.476 -21.092  30.249  0.00  0.00    -0.002 A 
ATOM     51  C12 3Y3 d   1      45.728 -20.522  30.022  0.00  0.00    -0.043 A 
ATOM     52  C16 3Y3 d   1      46.793 -20.888  30.840  0.00  0.00     0.065 A 
ATOM     53  H5  3Y3 d   1      45.870 -19.805  29.221  0.00  0.00     0.088 H 
ATOM     54  C15 3Y3 d   1      46.623 -21.788  31.910  0.00  0.00     0.039 A 
ATOM     55  N17 3Y3 d   1      48.119 -20.592  30.776  0.00  0.00    -0.275 N 
ATOM     56  C13 3Y3 d   1      45.351 -22.306  32.149  0.00  0.00    -0.066 A 
ATOM     57  C19 3Y3 d   1      47.976 -21.975  32.430  0.00  0.00     0.153 A 
ATOM     58  C14 3Y3 d   1      44.297 -21.972  31.320  0.00  0.00    -0.070 A 
ATOM     59  H1  3Y3 d   1      45.188 -22.973  32.988  0.00  0.00     0.085 H 
ATOM     60  H15 3Y3 d   1      43.317 -22.399  31.503  0.00  0.00     0.084 H 
ATOM     61  N18 3Y3 d   1      48.850 -21.256  31.731  0.00  0.00    -0.156 NA
ATOM     62  H16 3Y3 d   1      48.529 -19.943  30.089  0.00  0.00     0.189 HD
BRANCH  57  63
ATOM     63  N20 3Y3 d   1      48.343 -22.709  33.493  0.00  0.00    -0.382 N 
ATOM     64  H17 3Y3 d   1      49.335 -22.764  33.763  0.00  0.00     0.157 HD
ATOM     65  H18 3Y3 d   1      47.632 -23.217  34.038  0.00  0.00     0.157 HD
ENDBRANCH  57  63
ENDBRANCH  47  50
ENDBRANCH   1  43
TORSDOF 10
