REMARK  9 active torsions:
REMARK  status: ('A' for Active; 'I' for Inactive)
REMARK    1  A    between atoms: C13_2  and  C16_5 
REMARK       I    between atoms: C20_7  and  N9_20 
REMARK       I    between atoms: N21_24  and  C20_7 
REMARK    2  A    between atoms: C24_9  and  C23_8 
REMARK    3  A    between atoms: C23_8  and  N21_24 
REMARK    4  A    between atoms: C7_18  and  C2_13 
REMARK    5  A    between atoms: C8_19  and  C7_18 
REMARK    6  A    between atoms: N9_20  and  C8_19 
REMARK    7  A    between atoms: C8_19  and  C10_21 
REMARK    8  A    between atoms: C25_26  and  N31_31 
REMARK    9  A    between atoms: C40_40  and  N41_41 
ROOT
ATOM      1  C8  3Y5 d   1      39.983 -20.873  28.689  0.00  0.00     0.075 C 
ATOM      2  H14 3Y5 d   1      39.687 -21.085  29.727  0.00  0.00     0.085 H 
ENDROOT
BRANCH   1   3
ATOM      3  C7  3Y5 d   1      39.486 -22.034  27.809  0.00  0.00    -0.015 C 
ATOM      4  H12 3Y5 d   1      38.387 -22.054  27.842  0.00  0.00     0.043 H 
ATOM      5  H13 3Y5 d   1      39.819 -21.858  26.775  0.00  0.00     0.043 H 
BRANCH   3   6
ATOM      6  C2  3Y5 d   1      40.007 -23.381  28.261  0.00  0.00    -0.056 A 
ATOM      7  C1  3Y5 d   1      40.796 -24.152  27.417  0.00  0.00    -0.077 A 
ATOM      8  C6  3Y5 d   1      41.419 -25.299  27.881  0.00  0.00    -0.082 A 
ATOM      9  H7  3Y5 d   1      40.926 -23.853  26.383  0.00  0.00     0.084 H 
ATOM     10  C5  3Y5 d   1      41.258 -25.696  29.196  0.00  0.00    -0.083 A 
ATOM     11  H11 3Y5 d   1      42.035 -25.888  27.211  0.00  0.00     0.083 H 
ATOM     12  C4  3Y5 d   1      40.459 -24.954  30.036  0.00  0.00    -0.082 A 
ATOM     13  H10 3Y5 d   1      41.758 -26.585  29.563  0.00  0.00     0.083 H 
ATOM     14  C3  3Y5 d   1      39.824 -23.815  29.568  0.00  0.00    -0.077 A 
ATOM     15  H9  3Y5 d   1      40.326 -25.262  31.067  0.00  0.00     0.083 H 
ATOM     16  H8  3Y5 d   1      39.175 -23.254  30.231  0.00  0.00     0.084 H 
ENDBRANCH   3   6
ENDBRANCH   1   3
BRANCH   1  17
ATOM     17  N9  3Y5 d   1      39.364 -19.604  28.314  0.00  0.00    -0.331 N 
ATOM     18  C20 3Y5 d   1      39.275 -18.613  29.259  0.00  0.00     0.317 C 
ATOM     19  N21 3Y5 d   1      38.681 -17.451  28.886  0.00  0.00    -0.339 N 
ATOM     20  O22 3Y5 d   1      39.778 -18.745  30.379  0.00  0.00    -0.247 OA
ATOM     21  H17 3Y5 d   1      39.011 -16.604  29.303  0.00  0.00     0.164 HD
ATOM     22  H15 3Y5 d   1      39.013 -19.461  27.389  0.00  0.00     0.165 HD
BRANCH  19  23
ATOM     23  C23 3Y5 d   1      37.592 -17.352  27.917  0.00  0.00     0.023 C 
ATOM     24  H4  3Y5 d   1      37.999 -17.550  26.914  0.00  0.00     0.071 H 
ATOM     25  H5  3Y5 d   1      36.837 -18.113  28.163  0.00  0.00     0.071 H 
BRANCH  23  26
ATOM     26  C24 3Y5 d   1      36.918 -15.994  27.902  0.00  0.00    -0.010 A 
ATOM     27  C25 3Y5 d   1      37.405 -14.950  27.096  0.00  0.00     0.069 A 
ATOM     28  C26 3Y5 d   1      36.790 -13.695  27.133  0.00  0.00    -0.053 A 
ATOM     29  C27 3Y5 d   1      35.693 -13.472  27.953  0.00  0.00    -0.060 A 
ATOM     30  H18 3Y5 d   1      37.173 -12.890  26.516  0.00  0.00     0.087 H 
ATOM     31  C28 3Y5 d   1      35.213 -14.511  28.725  0.00  0.00     0.034 A 
ATOM     32  H6  3Y5 d   1      35.220 -12.497  27.987  0.00  0.00     0.086 H 
ATOM     33  C29 3Y5 d   1      35.814 -15.753  28.715  0.00  0.00    -0.052 A 
ATOM     34 CL2  3Y5 d   1      33.781 -14.270  29.702  0.00  0.00    -0.084 Cl
ATOM     35  H19 3Y5 d   1      35.424 -16.545  29.344  0.00  0.00     0.087 H 
BRANCH  27  36
ATOM     36  N31 3Y5 d   1      38.555 -15.118  26.259  0.00  0.00    -0.206 N 
ATOM     37  C32 3Y5 d   1      38.717 -15.086  24.926  0.00  0.00     0.113 A 
ATOM     38  N33 3Y5 d   1      39.956 -15.366  24.626  0.00  0.00    -0.122 NA
ATOM     39  H20 3Y5 d   1      37.933 -14.861  24.205  0.00  0.00     0.149 H 
ATOM     40  N34 3Y5 d   1      40.582 -15.573  25.813  0.00  0.00    -0.023 NA
ATOM     41  N35 3Y5 d   1      39.760 -15.417  26.804  0.00  0.00    -0.040 NA
ENDBRANCH  27  36
ENDBRANCH  23  26
ENDBRANCH  19  23
ENDBRANCH   1  17
BRANCH   1  42
ATOM     42  C10 3Y5 d   1      41.479 -20.821  28.644  0.00  0.00     0.129 A 
ATOM     43  N14 3Y5 d   1      42.244 -21.017  29.696  0.00  0.00    -0.229 NA
ATOM     44  C13 3Y5 d   1      43.534 -20.976  29.217  0.00  0.00     0.107 A 
ATOM     45  C12 3Y5 d   1      43.524 -20.760  27.881  0.00  0.00     0.134 A 
ATOM     46  N11 3Y5 d   1      42.203 -20.655  27.507  0.00  0.00    -0.331 N 
ATOM     47 CL   3Y5 d   1      44.781 -20.606  26.750  0.00  0.00    -0.062 Cl
ATOM     48  H16 3Y5 d   1      41.838 -20.485  26.559  0.00  0.00     0.168 HD
BRANCH  44  49
ATOM     49  C16 3Y5 d   1      44.654 -21.182  30.154  0.00  0.00    -0.002 A 
ATOM     50  C17 3Y5 d   1      45.894 -20.601  29.888  0.00  0.00    -0.043 A 
ATOM     51  C37 3Y5 d   1      46.996 -21.006  30.635  0.00  0.00     0.065 A 
ATOM     52  H2  3Y5 d   1      45.997 -19.849  29.114  0.00  0.00     0.088 H 
ATOM     53  C36 3Y5 d   1      46.873 -21.922  31.699  0.00  0.00     0.039 A 
ATOM     54  N38 3Y5 d   1      48.320 -20.721  30.515  0.00  0.00    -0.275 N 
ATOM     55  C18 3Y5 d   1      45.610 -22.435  31.994  0.00  0.00    -0.066 A 
ATOM     56  C40 3Y5 d   1      48.243 -22.121  32.192  0.00  0.00     0.153 A 
ATOM     57  C19 3Y5 d   1      44.517 -22.076  31.224  0.00  0.00    -0.070 A 
ATOM     58  H1  3Y5 d   1      45.484 -23.116  32.828  0.00  0.00     0.085 H 
ATOM     59  H3  3Y5 d   1      43.542 -22.492  31.452  0.00  0.00     0.084 H 
ATOM     60  N39 3Y5 d   1      49.068 -21.384  31.447  0.00  0.00    -0.156 NA
ATOM     61  H21 3Y5 d   1      48.712 -20.083  29.808  0.00  0.00     0.189 HD
BRANCH  56  62
ATOM     62  N41 3Y5 d   1      48.677 -22.855  33.221  0.00  0.00    -0.382 N 
ATOM     63  H22 3Y5 d   1      49.683 -22.891  33.440  0.00  0.00     0.157 HD
ATOM     64  H23 3Y5 d   1      48.006 -23.385  33.795  0.00  0.00     0.157 HD
ENDBRANCH  56  62
ENDBRANCH  44  49
ENDBRANCH   1  42
TORSDOF 9
