REMARK  12 active torsions:
REMARK  status: ('A' for Active; 'I' for Inactive)
REMARK    1  A    between atoms: C17_1  and  C16_2 
REMARK    2  A    between atoms: C20_3  and  C17_1 
REMARK    3  A    between atoms: C23_4  and  C20_3 
REMARK       I    between atoms: N25_19  and  C23_4 
REMARK    4  A    between atoms: C27_6  and  N25_19 
REMARK    5  A    between atoms: C29_20  and  C27_6 
REMARK    6  A    between atoms: C27_6  and  C43_26 
REMARK    7  A    between atoms: C7_12  and  N8_13 
REMARK    8  A    between atoms: C29_20  and  C32_21 
REMARK    9  A    between atoms: C46_28  and  C50_32 
REMARK   10  A    between atoms: C55_35  and  N60_38 
REMARK       I    between atoms: N60_38  and  C62_39 
REMARK   11  A    between atoms: C62_39  and  O64_41 
REMARK   12  A    between atoms: O64_41  and  C65_42 
ROOT
ATOM      1  C27 3Y4 d   1      39.952 -20.758  28.832  0.00  0.00     0.073 C 
ATOM      2  H6  3Y4 d   1      39.680 -20.973  29.876  0.00  0.00     0.085 H 
ENDROOT
BRANCH   1   3
ATOM      3  N25 3Y4 d   1      39.328 -19.474  28.524  0.00  0.00    -0.349 N 
ATOM      4  C23 3Y4 d   1      39.269 -18.529  29.473  0.00  0.00     0.218 C 
ATOM      5  O24 3Y4 d   1      39.775 -18.670  30.586  0.00  0.00    -0.274 OA
ATOM      6  H11 3Y4 d   1      38.949 -19.302  27.615  0.00  0.00     0.163 HD
BRANCH   4   7
ATOM      7  C20 3Y4 d   1      38.549 -17.249  29.109  0.00  0.00     0.013 C 
ATOM      8  H3  3Y4 d   1      38.094 -16.864  30.033  0.00  0.00     0.047 H 
ATOM      9  H4  3Y4 d   1      39.313 -16.542  28.754  0.00  0.00     0.047 H 
BRANCH   7  10
ATOM     10  C17 3Y4 d   1      37.431 -17.283  28.035  0.00  0.00    -0.031 C 
ATOM     11  H1  3Y4 d   1      37.864 -17.562  27.063  0.00  0.00     0.040 H 
ATOM     12  H2  3Y4 d   1      36.668 -18.022  28.322  0.00  0.00     0.040 H 
BRANCH  10  13
ATOM     13  C16 3Y4 d   1      36.791 -15.906  27.930  0.00  0.00    -0.027 A 
ATOM     14  C7  3Y4 d   1      37.330 -14.871  27.151  0.00  0.00     0.067 A 
ATOM     15  C5  3Y4 d   1      36.744 -13.605  27.158  0.00  0.00    -0.053 A 
ATOM     16  C3  3Y4 d   1      35.614 -13.364  27.935  0.00  0.00    -0.060 A 
ATOM     17  H9  3Y4 d   1      37.169 -12.808  26.558  0.00  0.00     0.087 H 
ATOM     18  C2  3Y4 d   1      35.090 -14.390  28.698  0.00  0.00     0.034 A 
ATOM     19  H8  3Y4 d   1      35.151 -12.384  27.941  0.00  0.00     0.086 H 
ATOM     20 CL1  3Y4 d   1      33.688 -14.089  29.690  0.00  0.00    -0.084 Cl
ATOM     21  C14 3Y4 d   1      35.661 -15.647  28.707  0.00  0.00    -0.054 A 
ATOM     22  H10 3Y4 d   1      35.231 -16.433  29.318  0.00  0.00     0.087 H 
BRANCH  14  23
ATOM     23  N8  3Y4 d   1      38.473 -15.103  26.329  0.00  0.00    -0.206 N 
ATOM     24  C12 3Y4 d   1      38.498 -15.132  24.977  0.00  0.00     0.113 A 
ATOM     25  N11 3Y4 d   1      39.706 -15.408  24.567  0.00  0.00    -0.122 NA
ATOM     26  H5  3Y4 d   1      37.641 -14.953  24.329  0.00  0.00     0.149 H 
ATOM     27  N10 3Y4 d   1      40.447 -15.558  25.690  0.00  0.00    -0.023 NA
ATOM     28  N9  3Y4 d   1      39.733 -15.371  26.759  0.00  0.00    -0.040 NA
ENDBRANCH  14  23
ENDBRANCH  10  13
ENDBRANCH   7  10
ENDBRANCH   4   7
ENDBRANCH   1   3
BRANCH   1  29
ATOM     29  C29 3Y4 d   1      39.395 -21.935  28.002  0.00  0.00    -0.015 C 
ATOM     30  H12 3Y4 d   1      39.603 -21.748  26.938  0.00  0.00     0.043 H 
ATOM     31  H13 3Y4 d   1      38.308 -21.996  28.158  0.00  0.00     0.043 H 
BRANCH  29  32
ATOM     32  C32 3Y4 d   1      40.020 -23.255  28.397  0.00  0.00    -0.056 A 
ATOM     33  C33 3Y4 d   1      39.812 -23.790  29.670  0.00  0.00    -0.077 A 
ATOM     34  C35 3Y4 d   1      40.561 -24.863  30.123  0.00  0.00    -0.082 A 
ATOM     35  H7  3Y4 d   1      39.053 -23.359  30.313  0.00  0.00     0.084 H 
ATOM     36  C37 3Y4 d   1      41.510 -25.444  29.306  0.00  0.00    -0.083 A 
ATOM     37  H14 3Y4 d   1      40.401 -25.248  31.123  0.00  0.00     0.083 H 
ATOM     38  C39 3Y4 d   1      41.695 -24.960  28.021  0.00  0.00    -0.082 A 
ATOM     39  H15 3Y4 d   1      42.107 -26.274  29.668  0.00  0.00     0.083 H 
ATOM     40  C41 3Y4 d   1      40.950 -23.878  27.567  0.00  0.00    -0.077 A 
ATOM     41  H16 3Y4 d   1      42.423 -25.427  27.368  0.00  0.00     0.083 H 
ATOM     42  H17 3Y4 d   1      41.094 -23.515  26.556  0.00  0.00     0.084 H 
ENDBRANCH  29  32
ENDBRANCH   1  29
BRANCH   1  43
ATOM     43  C43 3Y4 d   1      41.452 -20.716  28.800  0.00  0.00     0.129 A 
ATOM     44  N44 3Y4 d   1      42.233 -20.982  29.893  0.00  0.00    -0.229 NA
ATOM     45  C46 3Y4 d   1      43.552 -20.933  29.496  0.00  0.00     0.107 A 
ATOM     46  C47 3Y4 d   1      43.533 -20.625  28.130  0.00  0.00     0.134 A 
ATOM     47 CL2  3Y4 d   1      44.831 -20.402  27.023  0.00  0.00    -0.062 Cl
ATOM     48  N49 3Y4 d   1      42.245 -20.492  27.715  0.00  0.00    -0.331 N 
ATOM     49  H18 3Y4 d   1      41.929 -20.265  26.761  0.00  0.00     0.168 HD
BRANCH  45  50
ATOM     50  C50 3Y4 d   1      44.625 -21.215  30.464  0.00  0.00    -0.004 A 
ATOM     51  C51 3Y4 d   1      45.903 -20.682  30.293  0.00  0.00    -0.069 A 
ATOM     52  C53 3Y4 d   1      46.928 -21.016  31.165  0.00  0.00    -0.056 A 
ATOM     53  H19 3Y4 d   1      46.096 -20.001  29.472  0.00  0.00     0.085 H 
ATOM     54  C55 3Y4 d   1      46.683 -21.864  32.248  0.00  0.00     0.036 A 
ATOM     55  H20 3Y4 d   1      47.923 -20.618  31.006  0.00  0.00     0.086 H 
ATOM     56  C56 3Y4 d   1      45.401 -22.367  32.439  0.00  0.00    -0.056 A 
ATOM     57  C58 3Y4 d   1      44.389 -22.053  31.553  0.00  0.00    -0.069 A 
ATOM     58  H21 3Y4 d   1      45.195 -23.009  33.288  0.00  0.00     0.086 H 
ATOM     59  H22 3Y4 d   1      43.398 -22.464  31.706  0.00  0.00     0.085 H 
BRANCH  54  60
ATOM     60  N60 3Y4 d   1      47.669 -22.284  33.177  0.00  0.00    -0.303 N 
ATOM     61  C62 3Y4 d   1      48.971 -21.883  33.240  0.00  0.00     0.364 C 
ATOM     62  O63 3Y4 d   1      49.551 -21.174  32.442  0.00  0.00    -0.238 OA
ATOM     63  H23 3Y4 d   1      47.376 -22.950  33.864  0.00  0.00     0.171 HD
BRANCH  61  64
ATOM     64  O64 3Y4 d   1      49.533 -22.400  34.347  0.00  0.00    -0.309 OA
BRANCH  64  65
ATOM     65  C65 3Y4 d   1      50.971 -22.236  34.471  0.00  0.00     0.015 C 
ATOM     66  H24 3Y4 d   1      51.313 -22.696  35.410  0.00  0.00     0.067 H 
ATOM     67  H25 3Y4 d   1      51.219 -21.164  34.477  0.00  0.00     0.067 H 
ATOM     68  H26 3Y4 d   1      51.470 -22.723  33.621  0.00  0.00     0.067 H 
ENDBRANCH  64  65
ENDBRANCH  61  64
ENDBRANCH  54  60
ENDBRANCH  45  50
ENDBRANCH   1  43
TORSDOF 12
