REMARK  22 active torsions:
REMARK  status: ('A' for Active; 'I' for Inactive)
REMARK    1  A    between atoms: PA_1  and  O3A_4 
REMARK    2  A    between atoms: PA_1  and  O5F_20 
REMARK    3  A    between atoms: O3A_4  and  PB_5 
REMARK    4  A    between atoms: PB_5  and  O3B_8 
REMARK    5  A    between atoms: O3B_8  and  PG_9 
REMARK    6  A    between atoms: PG_9  and  O3G_12 
REMARK    7  A    between atoms: O3G_12  and  PD_13 
REMARK    8  A    between atoms: PD_13  and  O3D_16 
REMARK    9  A    between atoms: O3D_16  and  PE_17 
REMARK   10  A    between atoms: PE_17  and  O5J_39 
REMARK   11  A    between atoms: O5F_20  and  C5F_21 
REMARK   12  A    between atoms: C5F_21  and  C4F_22 
REMARK   13  A    between atoms: C3F_24  and  O3F_25 
REMARK   14  A    between atoms: C2F_26  and  O2F_27 
REMARK   15  A    between atoms: C1F_28  and  N9A_29 
REMARK   16  A    between atoms: C6A_33  and  N6A_34 
REMARK   17  A    between atoms: O5J_39  and  C5J_40 
REMARK   18  A    between atoms: C5J_40  and  C4J_41 
REMARK   19  A    between atoms: C3J_43  and  O3J_44 
REMARK   20  A    between atoms: C2J_45  and  O2J_46 
REMARK   21  A    between atoms: C1J_47  and  N9B_48 
REMARK   22  A    between atoms: C6B_52  and  N6B_53 
ROOT
ATOM      1  PG  AP5 d   1     -19.805  17.821 -36.210  0.00  0.00     0.427 P 
ATOM      2  O1G AP5 d   1     -18.475  18.475 -36.627  0.00  0.00    -0.624 OA
ATOM      3  O2G AP5 d   1     -20.280  18.416 -34.868  0.00  0.00    -0.624 OA
ENDROOT
BRANCH   1   4
ATOM      4  O3B AP5 d   1     -19.610  16.236 -36.048  0.00  0.00    -0.180 OA
BRANCH   4   5
ATOM      5  PB  AP5 d   1     -18.266  15.550 -35.694  0.00  0.00     0.427 P 
ATOM      6  O1B AP5 d   1     -17.423  15.367 -36.947  0.00  0.00    -0.624 OA
ATOM      7  O2B AP5 d   1     -17.518  16.375 -34.670  0.00  0.00    -0.624 OA
BRANCH   5   8
ATOM      8  O3A AP5 d   1     -18.603  14.072 -35.105  0.00  0.00    -0.180 OA
BRANCH   8   9
ATOM      9  PA  AP5 d   1     -18.768  13.685 -33.592  0.00  0.00     0.417 P 
ATOM     10  O1A AP5 d   1     -17.440  13.623 -32.904  0.00  0.00    -0.624 OA
ATOM     11  O2A AP5 d   1     -19.664  14.656 -32.887  0.00  0.00    -0.624 OA
BRANCH   9  12
ATOM     12  O5F AP5 d   1     -19.430  12.211 -33.600  0.00  0.00    -0.287 OA
BRANCH  12  13
ATOM     13  C5F AP5 d   1     -20.745  12.049 -34.102  0.00  0.00     0.058 C 
ATOM     14  H1  AP5 d   1     -20.701  11.721 -35.151  0.00  0.00     0.079 H 
ATOM     15  H2  AP5 d   1     -21.284  13.006 -34.039  0.00  0.00     0.079 H 
BRANCH  13  16
ATOM     16  C4F AP5 d   1     -21.482  10.980 -33.253  0.00  0.00     0.089 C 
ATOM     17  O4F AP5 d   1     -21.016   9.808 -33.520  0.00  0.00    -0.353 OA
ATOM     18  C1F AP5 d   1     -20.173   9.281 -32.230  0.00  0.00     0.139 C 
ATOM     19  C2F AP5 d   1     -20.061  10.260 -31.405  0.00  0.00     0.105 C 
ATOM     20  H8  AP5 d   1     -20.705   8.451 -31.743  0.00  0.00     0.122 H 
ATOM     21  C3F AP5 d   1     -21.218  11.221 -31.760  0.00  0.00     0.091 C 
ATOM     22  H6  AP5 d   1     -19.091  10.761 -31.541  0.00  0.00     0.093 H 
ATOM     23  H4  AP5 d   1     -20.918  12.264 -31.584  0.00  0.00     0.091 H 
ATOM     24  H3  AP5 d   1     -22.561  11.020 -33.462  0.00  0.00     0.090 H 
BRANCH  18  25
ATOM     25  N9A AP5 d   1     -18.908   8.828 -32.684  0.00  0.00    -0.294 N 
ATOM     26  C8A AP5 d   1     -17.778   9.564 -32.835  0.00  0.00     0.071 A 
ATOM     27  N7A AP5 d   1     -16.801   8.742 -33.299  0.00  0.00    -0.236 NA
ATOM     28  H9  AP5 d   1     -17.673  10.627 -32.622  0.00  0.00     0.144 H 
ATOM     29  C5A AP5 d   1     -17.331   7.491 -33.440  0.00  0.00     0.149 A 
ATOM     30  C6A AP5 d   1     -16.787   6.299 -33.869  0.00  0.00     0.155 A 
ATOM     31  C4A AP5 d   1     -18.628   7.541 -33.066  0.00  0.00     0.167 A 
ATOM     32  N1A AP5 d   1     -17.555   5.180 -33.913  0.00  0.00    -0.222 NA
ATOM     33  C2A AP5 d   1     -18.865   5.226 -33.536  0.00  0.00     0.091 A 
ATOM     34  N3A AP5 d   1     -19.405   6.399 -33.113  0.00  0.00    -0.222 NA
ATOM     35  H12 AP5 d   1     -19.473   4.330 -33.574  0.00  0.00     0.146 H 
BRANCH  30  36
ATOM     36  N6A AP5 d   1     -15.425   5.965 -34.327  0.00  0.00    -0.382 N 
ATOM     37  H10 AP5 d   1     -15.200   5.002 -34.614  0.00  0.00     0.157 HD
ATOM     38  H11 AP5 d   1     -14.699   6.695 -34.360  0.00  0.00     0.157 HD
ENDBRANCH  30  36
ENDBRANCH  18  25
BRANCH  19  39
ATOM     39  O2F AP5 d   1     -20.179   9.806 -29.996  0.00  0.00    -0.388 OA
ATOM     40  H7  AP5 d   1     -20.145  10.559 -29.418  0.00  0.00     0.210 HD
ENDBRANCH  19  39
BRANCH  21  41
ATOM     41  O3F AP5 d   1     -22.336  10.943 -31.025  0.00  0.00    -0.390 OA
ATOM     42  H5  AP5 d   1     -22.155  11.097 -30.105  0.00  0.00     0.210 HD
ENDBRANCH  21  41
ENDBRANCH  13  16
ENDBRANCH  12  13
ENDBRANCH   9  12
ENDBRANCH   8   9
ENDBRANCH   5   8
ENDBRANCH   4   5
ENDBRANCH   1   4
BRANCH   1  43
ATOM     43  O3G AP5 d   1     -20.895  18.048 -37.396  0.00  0.00    -0.180 OA
BRANCH  43  44
ATOM     44  PD  AP5 d   1     -22.225  18.949 -37.275  0.00  0.00     0.427 P 
ATOM     45  O1D AP5 d   1     -23.362  18.059 -36.890  0.00  0.00    -0.624 OA
ATOM     46  O2D AP5 d   1     -22.504  19.583 -38.627  0.00  0.00    -0.624 OA
BRANCH  44  47
ATOM     47  O3D AP5 d   1     -22.060  20.031 -36.157  0.00  0.00    -0.180 OA
BRANCH  47  48
ATOM     48  PE  AP5 d   1     -21.300  21.422 -36.242  0.00  0.00     0.417 P 
ATOM     49  O1E AP5 d   1     -19.928  21.260 -36.859  0.00  0.00    -0.624 OA
ATOM     50  O2E AP5 d   1     -21.157  21.973 -34.838  0.00  0.00    -0.624 OA
BRANCH  48  51
ATOM     51  O5J AP5 d   1     -22.162  22.450 -37.096  0.00  0.00    -0.287 OA
BRANCH  51  52
ATOM     52  C5J AP5 d   1     -23.415  22.858 -36.554  0.00  0.00     0.058 C 
ATOM     53  H13 AP5 d   1     -23.336  22.932 -35.459  0.00  0.00     0.079 H 
ATOM     54  H14 AP5 d   1     -24.187  22.120 -36.817  0.00  0.00     0.079 H 
BRANCH  52  55
ATOM     55  C4J AP5 d   1     -23.805  24.266 -37.151  0.00  0.00     0.089 C 
ATOM     56  O4J AP5 d   1     -23.013  25.189 -36.699  0.00  0.00    -0.353 OA
ATOM     57  C1J AP5 d   1     -22.698  26.201 -37.923  0.00  0.00     0.139 C 
ATOM     58  C2J AP5 d   1     -23.349  25.754 -38.959  0.00  0.00     0.105 C 
ATOM     59  H20 AP5 d   1     -23.046  27.217 -37.683  0.00  0.00     0.122 H 
ATOM     60  C3J AP5 d   1     -23.592  24.264 -38.671  0.00  0.00     0.091 C 
ATOM     61  H18 AP5 d   1     -22.772  25.894 -39.885  0.00  0.00     0.093 H 
ATOM     62  H16 AP5 d   1     -22.725  23.652 -38.960  0.00  0.00     0.091 H 
ATOM     63  H15 AP5 d   1     -24.852  24.497 -36.903  0.00  0.00     0.090 H 
BRANCH  57  64
ATOM     64  N9B AP5 d   1     -21.305  26.220 -38.110  0.00  0.00    -0.294 N 
ATOM     65  C8B AP5 d   1     -20.389  25.594 -37.355  0.00  0.00     0.071 A 
ATOM     66  N7B AP5 d   1     -19.150  25.870 -37.865  0.00  0.00    -0.236 NA
ATOM     67  H21 AP5 d   1     -20.596  24.973 -36.485  0.00  0.00     0.144 H 
ATOM     68  C5B AP5 d   1     -19.316  26.675 -38.946  0.00  0.00     0.149 A 
ATOM     69  C6B AP5 d   1     -18.404  27.244 -39.814  0.00  0.00     0.155 A 
ATOM     70  C4B AP5 d   1     -20.643  26.902 -39.107  0.00  0.00     0.167 A 
ATOM     71  N1B AP5 d   1     -18.836  28.028 -40.834  0.00  0.00    -0.222 NA
ATOM     72  C2B AP5 d   1     -20.166  28.254 -40.996  0.00  0.00     0.091 A 
ATOM     73  N3B AP5 d   1     -21.069  27.692 -40.132  0.00  0.00    -0.222 NA
ATOM     74  H24 AP5 d   1     -20.513  28.880 -41.810  0.00  0.00     0.146 H 
BRANCH  69  75
ATOM     75  N6B AP5 d   1     -16.977  27.247 -39.979  0.00  0.00    -0.382 N 
ATOM     76  H22 AP5 d   1     -16.549  27.782 -40.748  0.00  0.00     0.157 HD
ATOM     77  H23 AP5 d   1     -16.382  26.714 -39.329  0.00  0.00     0.157 HD
ENDBRANCH  69  75
ENDBRANCH  57  64
BRANCH  58  78
ATOM     78  O2J AP5 d   1     -24.683  26.462 -39.052  0.00  0.00    -0.388 OA
ATOM     79  H19 AP5 d   1     -25.195  26.079 -39.754  0.00  0.00     0.210 HD
ENDBRANCH  58  78
BRANCH  60  80
ATOM     80  O3J AP5 d   1     -24.692  23.813 -39.290  0.00  0.00    -0.390 OA
ATOM     81  H17 AP5 d   1     -24.549  23.816 -40.229  0.00  0.00     0.210 HD
ENDBRANCH  60  80
ENDBRANCH  52  55
ENDBRANCH  51  52
ENDBRANCH  48  51
ENDBRANCH  47  48
ENDBRANCH  44  47
ENDBRANCH  43  44
ENDBRANCH   1  43
TORSDOF 22
