REMARK  1 active torsions:
REMARK  status: ('A' for Active; 'I' for Inactive)
REMARK    1  A    between atoms: C7_7  and  C10_10 
ROOT
ATOM      1  C1  3ZB d   1       9.528  34.782  29.123  0.00  0.00     0.043 A 
ATOM      2  C2  3ZB d   1       9.401  34.411  27.772  0.00  0.00    -0.005 A 
ATOM      3  N3  3ZB d   1       9.178  36.113  29.233  0.00  0.00    -0.350 N 
ATOM      4  C4  3ZB d   1       9.897  33.863  30.100  0.00  0.00    -0.055 A 
ATOM      5  C5  3ZB d   1       8.974  35.584  27.064  0.00  0.00    -0.038 A 
ATOM      6  C6  3ZB d   1       9.622  33.085  27.418  0.00  0.00    -0.050 A 
ATOM      7  C7  3ZB d   1       8.831  36.588  27.984  0.00  0.00     0.111 A 
ATOM      8  C8  3ZB d   1      10.103  32.536  29.728  0.00  0.00    -0.060 A 
ATOM      9  C9  3ZB d   1       9.952  32.167  28.399  0.00  0.00     0.035 A 
ATOM     10 CL   3ZB d   1      10.128  30.490  27.958  0.00  0.00    -0.084 Cl
ATOM     11  H1  3ZB d   1       9.176  36.662  30.105  0.00  0.00     0.166 HD
ATOM     12  H2  3ZB d   1      10.022  34.173  31.131  0.00  0.00     0.087 H 
ATOM     13  H3  3ZB d   1       8.796  35.661  25.992  0.00  0.00     0.088 H 
ATOM     14  H4  3ZB d   1       9.537  32.773  26.383  0.00  0.00     0.087 H 
ATOM     15  H5  3ZB d   1      10.379  31.797  30.472  0.00  0.00     0.086 H 
ENDROOT
BRANCH   7  16
ATOM     16  C10 3ZB d   1       8.415  38.003  27.863  0.00  0.00     0.226 C 
ATOM     17  O12 3ZB d   1       8.246  38.423  26.633  0.00  0.00    -0.643 OA
ATOM     18  O13 3ZB d   1       8.191  38.693  28.859  0.00  0.00    -0.643 OA
ENDBRANCH   7  16
TORSDOF 1
