REMARK  16 active torsions:
REMARK  status: ('A' for Active; 'I' for Inactive)
REMARK    1  A    between atoms: C13_1  and  C15_3 
REMARK    2  A    between atoms: N12_24  and  C13_1 
REMARK    3  A    between atoms: C13_1  and  C14_25 
REMARK    4  A    between atoms: C18_2  and  C22_7 
REMARK       I    between atoms: C15_3  and  N17_27 
REMARK    5  A    between atoms: C24_9  and  O30_32 
REMARK    6  A    between atoms: C33_12  and  N43_43 
REMARK    7  A    between atoms: C4_16  and  N12_24 
REMARK    8  A    between atoms: C25_28  and  O28_30 
REMARK    9  A    between atoms: O28_30  and  C29_31 
REMARK   10  A    between atoms: O30_32  and  C31_33 
REMARK   11  A    between atoms: C36_36  and  S37_37 
REMARK   12  A    between atoms: S37_37  and  C38_38 
REMARK   13  A    between atoms: C38_38  and  C41_41 
REMARK   14  A    between atoms: C38_38  and  C42_42 
REMARK       I    between atoms: N43_43  and  C44_44 
REMARK   15  A    between atoms: C44_44  and  O45_45 
REMARK   16  A    between atoms: O45_45  and  C47_47 
ROOT
ATOM      1  C18 3Z9 d   1       6.772  40.318  23.357  0.00  0.00     0.042 C 
ATOM      2  C15 3Z9 d   1       7.259  38.275  24.598  0.00  0.00     0.247 C 
ATOM      3  C19 3Z9 d   1       6.516  41.750  23.851  0.00  0.00    -0.041 C 
ATOM      4  C20 3Z9 d   1       5.685  41.551  25.111  0.00  0.00    -0.048 C 
ATOM      5  C21 3Z9 d   1       6.153  40.257  25.736  0.00  0.00    -0.001 C 
ATOM      6  O16 3Z9 d   1       7.775  37.816  23.602  0.00  0.00    -0.271 OA
ATOM      7  N17 3Z9 d   1       6.758  39.522  24.612  0.00  0.00    -0.341 N 
ATOM      8  H2  3Z9 d   1       7.768  40.260  22.893  0.00  0.00     0.080 H 
ATOM      9  H3  3Z9 d   1       5.959  42.331  23.101  0.00  0.00     0.036 H 
ATOM     10  H4  3Z9 d   1       7.462  42.261  24.081  0.00  0.00     0.036 H 
ATOM     11  H5  3Z9 d   1       4.617  41.485  24.855  0.00  0.00     0.035 H 
ATOM     12  H6  3Z9 d   1       5.844  42.388  25.807  0.00  0.00     0.035 H 
ATOM     13  H7  3Z9 d   1       5.306  39.697  26.159  0.00  0.00     0.064 H 
ATOM     14  H8  3Z9 d   1       6.896  40.449  26.524  0.00  0.00     0.064 H 
ENDROOT
BRANCH   2  15
ATOM     15  C13 3Z9 d   1       7.267  37.431  25.885  0.00  0.00     0.113 C 
ATOM     16  H1  3Z9 d   1       7.616  38.055  26.721  0.00  0.00     0.095 H 
BRANCH  15  17
ATOM     17  N12 3Z9 d   1       8.187  36.315  25.731  0.00  0.00    -0.373 N 
ATOM     18  H20 3Z9 d   1       8.506  36.103  24.775  0.00  0.00     0.161 HD
BRANCH  17  19
ATOM     19  C4  3Z9 d   1       8.680  35.503  26.756  0.00  0.00     0.029 A 
ATOM     20  C1  3Z9 d   1       8.465  35.806  28.098  0.00  0.00    -0.042 A 
ATOM     21  C6  3Z9 d   1       8.858  34.911  29.101  0.00  0.00     0.040 A 
ATOM     22  H12 3Z9 d   1       7.990  36.742  28.369  0.00  0.00     0.088 H 
ATOM     23  C5  3Z9 d   1       9.489  33.704  28.748  0.00  0.00    -0.041 A 
ATOM     24  C7  3Z9 d   1       8.535  35.218  30.513  0.00  0.00     0.252 C 
ATOM     25  C2  3Z9 d   1       9.738  33.445  27.405  0.00  0.00    -0.074 A 
ATOM     26  C10 3Z9 d   1       9.761  32.650  29.793  0.00  0.00    -0.025 C 
ATOM     27  C3  3Z9 d   1       9.343  34.326  26.419  0.00  0.00    -0.057 A 
ATOM     28  H13 3Z9 d   1      10.253  32.533  27.127  0.00  0.00     0.084 H 
ATOM     29  H14 3Z9 d   1       9.550  34.101  25.379  0.00  0.00     0.086 H 
ATOM     30  C9  3Z9 d   1       9.928  33.264  31.165  0.00  0.00    -0.001 C 
ATOM     31  H18 3Z9 d   1      10.683  32.112  29.527  0.00  0.00     0.042 H 
ATOM     32  H19 3Z9 d   1       8.918  31.944  29.817  0.00  0.00     0.042 H 
ATOM     33  N8  3Z9 d   1       9.045  34.376  31.427  0.00  0.00    -0.357 N 
ATOM     34  H16 3Z9 d   1       9.735  32.485  31.917  0.00  0.00     0.064 H 
ATOM     35  H17 3Z9 d   1      10.965  33.617  31.261  0.00  0.00     0.064 H 
ATOM     36  H15 3Z9 d   1       8.789  34.535  32.380  0.00  0.00     0.162 HD
ATOM     37  O11 3Z9 d   1       7.837  36.168  30.849  0.00  0.00    -0.268 OA
ENDBRANCH  17  19
ENDBRANCH  15  17
BRANCH  15  38
ATOM     38  C14 3Z9 d   1       5.849  36.971  26.187  0.00  0.00    -0.024 A 
ATOM     39  C23 3Z9 d   1       5.116  36.322  25.200  0.00  0.00    -0.040 A 
ATOM     40  C24 3Z9 d   1       3.819  35.899  25.452  0.00  0.00     0.102 A 
ATOM     41  H9  3Z9 d   1       5.561  36.145  24.227  0.00  0.00     0.088 H 
ATOM     42  C25 3Z9 d   1       3.232  36.146  26.723  0.00  0.00     0.101 A 
ATOM     43  C26 3Z9 d   1       3.982  36.770  27.719  0.00  0.00    -0.047 A 
ATOM     44  C27 3Z9 d   1       5.278  37.177  27.441  0.00  0.00    -0.072 A 
ATOM     45  H21 3Z9 d   1       3.556  36.935  28.702  0.00  0.00     0.087 H 
ATOM     46  H11 3Z9 d   1       5.859  37.665  28.215  0.00  0.00     0.084 H 
BRANCH  40  47
ATOM     47  O30 3Z9 d   1       3.051  35.171  24.574  0.00  0.00    -0.353 OA
BRANCH  47  48
ATOM     48  C31 3Z9 d   1       3.571  34.909  23.268  0.00  0.00     0.010 C 
ATOM     49  H25 3Z9 d   1       2.841  34.320  22.694  0.00  0.00     0.066 H 
ATOM     50  H26 3Z9 d   1       4.511  34.344  23.354  0.00  0.00     0.066 H 
ATOM     51  H27 3Z9 d   1       3.762  35.861  22.751  0.00  0.00     0.066 H 
ENDBRANCH  47  48
ENDBRANCH  40  47
BRANCH  42  52
ATOM     52  O28 3Z9 d   1       1.916  35.778  26.843  0.00  0.00    -0.353 OA
BRANCH  52  53
ATOM     53  C29 3Z9 d   1       1.283  35.911  28.115  0.00  0.00     0.010 C 
ATOM     54  H22 3Z9 d   1       0.238  35.576  28.041  0.00  0.00     0.066 H 
ATOM     55  H23 3Z9 d   1       1.309  36.965  28.429  0.00  0.00     0.066 H 
ATOM     56  H24 3Z9 d   1       1.814  35.295  28.855  0.00  0.00     0.066 H 
ENDBRANCH  52  53
ENDBRANCH  42  52
ENDBRANCH  15  38
ENDBRANCH   2  15
BRANCH   1  57
ATOM     57  C22 3Z9 d   1       5.759  39.841  22.331  0.00  0.00    -0.012 A 
ATOM     58  C32 3Z9 d   1       4.612  39.174  22.788  0.00  0.00    -0.048 A 
ATOM     59  C33 3Z9 d   1       3.622  38.712  21.923  0.00  0.00     0.037 A 
ATOM     60  H28 3Z9 d   1       4.492  39.012  23.853  0.00  0.00     0.087 H 
ATOM     61  C34 3Z9 d   1       3.780  38.909  20.556  0.00  0.00    -0.056 A 
ATOM     62  C35 3Z9 d   1       4.896  39.571  20.074  0.00  0.00    -0.059 A 
ATOM     63  H10 3Z9 d   1       3.028  38.544  19.866  0.00  0.00     0.087 H 
ATOM     64  C36 3Z9 d   1       5.873  40.032  20.949  0.00  0.00     0.068 A 
ATOM     65  H29 3Z9 d   1       5.009  39.731  19.008  0.00  0.00     0.085 H 
BRANCH  59  66
ATOM     66  N43 3Z9 d   1       2.390  38.143  22.338  0.00  0.00    -0.303 N 
ATOM     67  C44 3Z9 d   1       1.860  38.129  23.589  0.00  0.00     0.364 C 
ATOM     68  O46 3Z9 d   1       2.258  38.759  24.544  0.00  0.00    -0.238 OA
ATOM     69  H37 3Z9 d   1       1.847  37.700  21.625  0.00  0.00     0.171 HD
BRANCH  67  70
ATOM     70  O45 3Z9 d   1       0.762  37.357  23.593  0.00  0.00    -0.309 OA
BRANCH  70  71
ATOM     71  C47 3Z9 d   1      -0.074  37.444  24.774  0.00  0.00     0.015 C 
ATOM     72  H38 3Z9 d   1      -0.937  36.771  24.663  0.00  0.00     0.067 H 
ATOM     73  H39 3Z9 d   1      -0.428  38.478  24.897  0.00  0.00     0.067 H 
ATOM     74  H40 3Z9 d   1       0.509  37.148  25.659  0.00  0.00     0.067 H 
ENDBRANCH  70  71
ENDBRANCH  67  70
ENDBRANCH  59  66
BRANCH  64  75
ATOM     75  S37 3Z9 d   1       7.194  40.920  20.139  0.00  0.00     0.179 S 
ATOM     76  O39 3Z9 d   1       6.623  41.573  18.992  0.00  0.00    -0.222 OA
ATOM     77  O40 3Z9 d   1       7.894  41.722  21.104  0.00  0.00    -0.222 OA
BRANCH  75  78
ATOM     78  C38 3Z9 d   1       8.357  39.666  19.520  0.00  0.00     0.042 C 
ATOM     79  H30 3Z9 d   1       7.799  39.012  18.834  0.00  0.00     0.063 H 
BRANCH  78  80
ATOM     80  C41 3Z9 d   1       8.932  38.769  20.599  0.00  0.00    -0.060 C 
ATOM     81  H31 3Z9 d   1       9.622  38.043  20.143  0.00  0.00     0.029 H 
ATOM     82  H32 3Z9 d   1       8.115  38.232  21.103  0.00  0.00     0.029 H 
ATOM     83  H33 3Z9 d   1       9.476  39.381  21.333  0.00  0.00     0.029 H 
ENDBRANCH  78  80
BRANCH  78  84
ATOM     84  C42 3Z9 d   1       9.433  40.369  18.711  0.00  0.00    -0.060 C 
ATOM     85  H34 3Z9 d   1      10.148  39.626  18.327  0.00  0.00     0.029 H 
ATOM     86  H35 3Z9 d   1       9.962  41.089  19.352  0.00  0.00     0.029 H 
ATOM     87  H36 3Z9 d   1       8.969  40.901  17.867  0.00  0.00     0.029 H 
ENDBRANCH  78  84
ENDBRANCH  75  78
ENDBRANCH  64  75
ENDBRANCH   1  57
TORSDOF 16
