REMARK  3 active torsions:
REMARK  status: ('A' for Active; 'I' for Inactive)
REMARK    1  A    between atoms: C1_5  and  N_11 
REMARK    2  A    between atoms: C1_5  and  C_12 
REMARK    3  A    between atoms: C4_7  and  C3_8 
ROOT
ATOM      1  C7  40F d   1      -8.145  37.044  27.896  0.00  0.00    -0.023 C 
ATOM      2  C6  40F d   1      -7.721  36.503  29.314  0.00  0.00    -0.058 C 
ATOM      3  C1  40F d   1      -8.047  35.837  26.913  0.00  0.00     0.215 C 
ATOM      4  C5  40F d   1      -7.994  35.012  29.248  0.00  0.00    -0.034 A 
ATOM      5  C3  40F d   1      -9.388  34.663  28.719  0.00  0.00     0.041 A 
ATOM      6  C2  40F d   1      -8.212  34.626  27.788  0.00  0.00     0.006 A 
ATOM      7  H1  40F d   1      -7.466  37.849  27.578  0.00  0.00     0.037 H 
ATOM      8  H2  40F d   1      -9.176  37.425  27.928  0.00  0.00     0.037 H 
ATOM      9  H3  40F d   1      -8.322  36.974  30.106  0.00  0.00     0.033 H 
ATOM     10  H4  40F d   1      -6.654  36.695  29.501  0.00  0.00     0.033 H 
ATOM     11  H5  40F d   1      -7.456  34.409  29.994  0.00  0.00     0.042 H 
ATOM     12  H6  40F d   1     -10.140  35.461  28.628  0.00  0.00     0.058 H 
ATOM     13  H7  40F d   1      -7.848  33.694  27.331  0.00  0.00     0.046 H 
ENDROOT
BRANCH   3  14
ATOM     14  N   40F d   1      -9.070  35.849  25.845  0.00  0.00    -0.060 N 
ATOM     15  H8  40F d   1      -8.945  36.666  25.269  0.00  0.00     0.275 HD
ATOM     16  H9  40F d   1      -9.989  35.868  26.260  0.00  0.00     0.275 HD
ATOM     17  H10 40F d   1      -8.974  35.021  25.279  0.00  0.00     0.275 HD
ENDBRANCH   3  14
BRANCH   3  18
ATOM     18  C   40F d   1      -6.619  35.790  26.301  0.00  0.00     0.210 C 
ATOM     19  O1  40F d   1      -5.575  35.760  26.937  0.00  0.00    -0.646 OA
ATOM     20  O   40F d   1      -6.501  35.806  24.957  0.00  0.00    -0.646 OA
ENDBRANCH   3  18
BRANCH   5  21
ATOM     21  C4  40F d   1     -10.066  33.398  29.058  0.00  0.00     0.177 C 
ATOM     22  O2  40F d   1      -9.246  32.363  29.364  0.00  0.00    -0.648 OA
ATOM     23  O3  40F d   1     -11.278  33.256  29.067  0.00  0.00    -0.648 OA
ENDBRANCH   5  21
TORSDOF 3
