REMARK  3 active torsions:
REMARK  status: ('A' for Active; 'I' for Inactive)
REMARK    1  A    between atoms: C1_5  and  N_11 
REMARK    2  A    between atoms: C1_5  and  C_12 
REMARK    3  A    between atoms: C4_7  and  C3_8 
ROOT
ATOM      1  C7  40F d   1      52.151 -24.728   8.785  0.00  0.00    -0.023 C 
ATOM      2  C6  40F d   1      52.305 -25.581  10.052  0.00  0.00    -0.058 C 
ATOM      3  C1  40F d   1      51.009 -25.368   7.928  0.00  0.00     0.215 C 
ATOM      4  C5  40F d   1      51.025 -26.377  10.162  0.00  0.00    -0.034 A 
ATOM      5  C3  40F d   1      49.732 -25.557  10.154  0.00  0.00     0.041 A 
ATOM      6  C2  40F d   1      50.222 -26.246   8.880  0.00  0.00     0.006 A 
ATOM      7  H1  40F d   1      53.092 -24.726   8.216  0.00  0.00     0.037 H 
ATOM      8  H2  40F d   1      51.884 -23.696   9.056  0.00  0.00     0.037 H 
ATOM      9  H3  40F d   1      52.435 -24.938  10.935  0.00  0.00     0.033 H 
ATOM     10  H4  40F d   1      53.170 -26.255   9.959  0.00  0.00     0.033 H 
ATOM     11  H5  40F d   1      51.131 -27.309  10.736  0.00  0.00     0.042 H 
ATOM     12  H6  40F d   1      49.749 -24.462  10.255  0.00  0.00     0.058 H 
ATOM     13  H7  40F d   1      49.666 -27.061   8.393  0.00  0.00     0.046 H 
ENDROOT
BRANCH   3  14
ATOM     14  N   40F d   1      50.179 -24.346   7.236  0.00  0.00    -0.060 N 
ATOM     15  H8  40F d   1      50.762 -23.800   6.621  0.00  0.00     0.275 HD
ATOM     16  H9  40F d   1      49.752 -23.741   7.920  0.00  0.00     0.275 HD
ATOM     17  H10 40F d   1      49.461 -24.805   6.698  0.00  0.00     0.275 HD
ENDBRANCH   3  14
BRANCH   3  18
ATOM     18  C   40F d   1      51.613 -26.289   6.884  0.00  0.00     0.210 C 
ATOM     19  O1  40F d   1      52.505 -27.241   7.200  0.00  0.00    -0.646 OA
ATOM     20  O   40F d   1      51.337 -26.183   5.721  0.00  0.00    -0.646 OA
ENDBRANCH   3  18
BRANCH   5  21
ATOM     21  C4  40F d   1      48.554 -26.131  10.826  0.00  0.00     0.177 C 
ATOM     22  O2  40F d   1      47.641 -25.233  11.152  0.00  0.00    -0.648 OA
ATOM     23  O3  40F d   1      48.357 -27.272  11.089  0.00  0.00    -0.648 OA
ENDBRANCH   5  21
TORSDOF 3
