REMARK  3 active torsions:
REMARK  status: ('A' for Active; 'I' for Inactive)
REMARK    1  A    between atoms: C1_5  and  C9_11 
REMARK    2  A    between atoms: C1_5  and  N_12 
REMARK    3  A    between atoms: C3_8  and  C8_13 
ROOT
ATOM      1  C7  40H d   1     -29.154  32.451 -27.999  0.00  0.00    -0.057 A 
ATOM      2  C6  40H d   1     -27.736  32.845 -28.375  0.00  0.00    -0.057 A 
ATOM      3  C1  40H d   1     -27.689  31.216 -24.917  0.00  0.00     0.215 C 
ATOM      4  C5  40H d   1     -27.968  31.940 -27.222  0.00  0.00    -0.033 A 
ATOM      5  C4  40H d   1     -27.561  30.476 -27.286  0.00  0.00    -0.026 A 
ATOM      6  C3  40H d   1     -26.178  30.122 -26.754  0.00  0.00     0.042 A 
ATOM      7  C2  40H d   1     -27.409  30.011 -25.846  0.00  0.00     0.006 A 
ATOM      8  C   40H d   1     -27.749  32.461 -25.843  0.00  0.00    -0.016 C 
ATOM      9  H1  40H d   1     -29.729  31.770 -28.644  0.00  0.00     0.034 H 
ATOM     10  H2  40H d   1     -29.833  33.190 -27.550  0.00  0.00     0.034 H 
ATOM     11  H3  40H d   1     -27.388  33.874 -28.204  0.00  0.00     0.034 H 
ATOM     12  H4  40H d   1     -27.284  32.454 -29.298  0.00  0.00     0.034 H 
ATOM     13  H5  40H d   1     -28.040  29.907 -28.096  0.00  0.00     0.043 H 
ATOM     14  H6  40H d   1     -25.405  30.896 -26.637  0.00  0.00     0.058 H 
ATOM     15  H7  40H d   1     -27.765  29.048 -25.451  0.00  0.00     0.046 H 
ATOM     16  H11 40H d   1     -26.803  33.021 -25.792  0.00  0.00     0.038 H 
ATOM     17  H12 40H d   1     -28.580  33.118 -25.547  0.00  0.00     0.038 H 
ENDROOT
BRANCH   3  18
ATOM     18  C9  40H d   1     -29.043  31.078 -24.260  0.00  0.00     0.210 C 
ATOM     19  O2  40H d   1     -30.050  30.777 -25.091  0.00  0.00    -0.646 OA
ATOM     20  O3  40H d   1     -29.274  31.222 -23.098  0.00  0.00    -0.646 OA
ENDBRANCH   3  18
BRANCH   3  21
ATOM     21  N   40H d   1     -26.663  31.345 -23.867  0.00  0.00    -0.060 N 
ATOM     22  H8  40H d   1     -26.878  32.138 -23.283  0.00  0.00     0.275 HD
ATOM     23  H9  40H d   1     -25.760  31.477 -24.294  0.00  0.00     0.275 HD
ATOM     24  H10 40H d   1     -26.650  30.508 -23.305  0.00  0.00     0.275 HD
ENDBRANCH   3  21
BRANCH   6  25
ATOM     25  C8  40H d   1     -25.593  28.797 -27.043  0.00  0.00     0.177 C 
ATOM     26  O1  40H d   1     -24.262  28.732 -26.892  0.00  0.00    -0.648 OA
ATOM     27  O   40H d   1     -26.222  27.759 -27.363  0.00  0.00    -0.648 OA
ENDBRANCH   6  25
TORSDOF 3
