REMARK  5 active torsions:
REMARK  status: ('A' for Active; 'I' for Inactive)
REMARK       I    between atoms: C17_10  and  N1_1 
REMARK    1  A    between atoms: C7_5  and  C10_7 
REMARK    2  A    between atoms: C7_5  and  C9_19 
REMARK    3  A    between atoms: C14_12  and  C17_10 
REMARK    4  A    between atoms: N_16  and  C11_15 
REMARK    5  A    between atoms: C1_21  and  C_22 
ROOT
ATOM      1  C4  40W d   1       6.507 -11.969 -24.084  0.00  0.00     0.040 A 
ATOM      2  C5  40W d   1       7.594 -12.930 -24.330  0.00  0.00     0.162 C 
ATOM      3  C6  40W d   1       7.221 -14.339 -24.738  0.00  0.00     0.002 C 
ATOM      4  C7  40W d   1       5.939 -14.460 -25.580  0.00  0.00    -0.036 C 
ATOM      5  C8  40W d   1       4.809 -13.726 -24.850  0.00  0.00    -0.019 C 
ATOM      6  N   40W d   1       4.363 -11.316 -24.022  0.00  0.00    -0.325 N 
ATOM      7  C2  40W d   1       5.145 -10.248 -23.619  0.00  0.00    -0.008 A 
ATOM      8  C3  40W d   1       5.207 -12.381 -24.316  0.00  0.00     0.031 A 
ATOM      9  O   40W d   1       8.771 -12.592 -24.268  0.00  0.00    -0.292 OA
ATOM     10  C1  40W d   1       6.457 -10.601 -23.641  0.00  0.00    -0.030 A 
ATOM     11  H3  40W d   1       7.084 -14.933 -23.823  0.00  0.00     0.046 H 
ATOM     12  H4  40W d   1       8.053 -14.755 -25.324  0.00  0.00     0.046 H 
ATOM     13  H5  40W d   1       4.478 -14.350 -24.007  0.00  0.00     0.043 H 
ATOM     14  H6  40W d   1       3.974 -13.587 -25.553  0.00  0.00     0.043 H 
ATOM     15  H14 40W d   1       4.765  -9.270 -23.328  0.00  0.00     0.113 H 
ENDROOT
BRANCH   6  16
ATOM     16  C11 40W d   1       2.942 -11.258 -24.251  0.00  0.00     0.038 A 
ATOM     17  C12 40W d   1       2.396 -10.193 -24.970  0.00  0.00    -0.056 A 
ATOM     18  C13 40W d   1       1.035 -10.162 -25.228  0.00  0.00    -0.066 A 
ATOM     19  H12 40W d   1       3.035  -9.393 -25.325  0.00  0.00     0.087 H 
ATOM     20  C14 40W d   1       0.196 -11.191 -24.779  0.00  0.00     0.032 A 
ATOM     21  H10 40W d   1       0.614  -9.332 -25.784  0.00  0.00     0.085 H 
ATOM     22  C15 40W d   1       0.750 -12.247 -24.047  0.00  0.00    -0.066 A 
ATOM     23  C16 40W d   1       2.108 -12.280 -23.777  0.00  0.00    -0.056 A 
ATOM     24  H11 40W d   1       0.111 -13.046 -23.688  0.00  0.00     0.085 H 
ATOM     25  H13 40W d   1       2.526 -13.096 -23.199  0.00  0.00     0.087 H 
BRANCH  20  26
ATOM     26  C17 40W d   1      -1.262 -11.168 -25.103  0.00  0.00     0.249 C 
ATOM     27  N1  40W d   1      -1.619 -10.603 -26.225  0.00  0.00    -0.366 N 
ATOM     28  H1  40W d   1      -0.928 -10.189 -26.818  0.00  0.00     0.159 HD
ATOM     29  H2  40W d   1      -2.583 -10.584 -26.491  0.00  0.00     0.159 HD
ATOM     30  O1  40W d   1      -2.083 -11.703 -24.318  0.00  0.00    -0.268 OA
ENDBRANCH  20  26
ENDBRANCH   6  16
BRANCH  10  31
ATOM     31  C   40W d   1       7.605  -9.695 -23.280  0.00  0.00    -0.049 C 
ATOM     32  H18 40W d   1       8.553 -10.243 -23.388  0.00  0.00     0.033 H 
ATOM     33  H19 40W d   1       7.493  -9.358 -22.239  0.00  0.00     0.033 H 
ATOM     34  H20 40W d   1       7.608  -8.822 -23.950  0.00  0.00     0.033 H 
ENDBRANCH  10  31
BRANCH   4  35
ATOM     35  C10 40W d   1       6.162 -13.850 -26.968  0.00  0.00    -0.069 C 
ATOM     36  H7  40W d   1       6.975 -14.387 -27.478  0.00  0.00     0.028 H 
ATOM     37  H8  40W d   1       6.433 -12.789 -26.863  0.00  0.00     0.028 H 
ATOM     38  H9  40W d   1       5.238 -13.936 -27.559  0.00  0.00     0.028 H 
ENDBRANCH   4  35
BRANCH   4  39
ATOM     39  C9  40W d   1       5.558 -15.928 -25.751  0.00  0.00    -0.069 C 
ATOM     40  H15 40W d   1       5.394 -16.382 -24.762  0.00  0.00     0.028 H 
ATOM     41  H16 40W d   1       6.370 -16.460 -26.268  0.00  0.00     0.028 H 
ATOM     42  H17 40W d   1       4.635 -16.000 -26.345  0.00  0.00     0.028 H 
ENDBRANCH   4  39
TORSDOF 5
