REMARK  4 active torsions:
REMARK  status: ('A' for Active; 'I' for Inactive)
REMARK       I    between atoms: C19_12  and  N1_1 
REMARK    1  A    between atoms: C7_5  and  C10_7 
REMARK    2  A    between atoms: C7_5  and  C9_22 
REMARK    3  A    between atoms: C14_13  and  C19_12 
REMARK    4  A    between atoms: C1_24  and  C_25 
ROOT
ATOM      1  C4  40Y d   1       6.250 -11.714 -24.100  0.00  0.00     0.041 A 
ATOM      2  C5  40Y d   1       7.386 -12.645 -24.307  0.00  0.00     0.162 C 
ATOM      3  C6  40Y d   1       7.091 -14.077 -24.698  0.00  0.00     0.002 C 
ATOM      4  C7  40Y d   1       5.813 -14.291 -25.526  0.00  0.00    -0.036 C 
ATOM      5  C8  40Y d   1       4.651 -13.587 -24.816  0.00  0.00    -0.019 C 
ATOM      6  C13 40Y d   1       0.487 -12.155 -24.034  0.00  0.00    -0.065 A 
ATOM      7  C15 40Y d   1       0.711 -10.117 -25.312  0.00  0.00    -0.033 A 
ATOM      8  C17 40Y d   1       3.303  -8.087 -24.621  0.00  0.00     0.031 C 
ATOM      9  C14 40Y d   1      -0.091 -11.141 -24.804  0.00  0.00     0.034 A 
ATOM     10  C12 40Y d   1       1.850 -12.168 -23.780  0.00  0.00    -0.053 A 
ATOM     11  C16 40Y d   1       2.074 -10.131 -25.066  0.00  0.00     0.097 A 
ATOM     12  O1  40Y d   1       2.836  -9.088 -25.565  0.00  0.00    -0.348 OA
ATOM     13  C18 40Y d   1       4.217  -8.652 -23.551  0.00  0.00    -0.005 C 
ATOM     14  C2  40Y d   1       4.779 -10.030 -23.769  0.00  0.00     0.026 A 
ATOM     15  C11 40Y d   1       2.657 -11.157 -24.311  0.00  0.00     0.073 A 
ATOM     16  N   40Y d   1       4.083 -11.183 -24.121  0.00  0.00    -0.315 N 
ATOM     17  C3  40Y d   1       4.979 -12.208 -24.328  0.00  0.00     0.032 A 
ATOM     18  O   40Y d   1       8.554 -12.273 -24.208  0.00  0.00    -0.292 OA
ATOM     19  C1  40Y d   1       6.118 -10.316 -23.743  0.00  0.00    -0.023 A 
ATOM     20  H3  40Y d   1       6.998 -14.668 -23.775  0.00  0.00     0.046 H 
ATOM     21  H4  40Y d   1       7.942 -14.449 -25.287  0.00  0.00     0.046 H 
ATOM     22  H5  40Y d   1       4.353 -14.198 -23.951  0.00  0.00     0.043 H 
ATOM     23  H6  40Y d   1       3.809 -13.513 -25.520  0.00  0.00     0.043 H 
ATOM     24  H10 40Y d   1      -0.139 -12.942 -23.630  0.00  0.00     0.085 H 
ATOM     25  H11 40Y d   1       0.270  -9.317 -25.895  0.00  0.00     0.089 H 
ATOM     26  H12 40Y d   1       2.429  -7.635 -24.130  0.00  0.00     0.075 H 
ATOM     27  H13 40Y d   1       3.853  -7.313 -25.176  0.00  0.00     0.075 H 
ATOM     28  H14 40Y d   1       2.286 -12.955 -23.175  0.00  0.00     0.087 H 
ATOM     29  H15 40Y d   1       3.647  -8.675 -22.610  0.00  0.00     0.045 H 
ATOM     30  H16 40Y d   1       5.068  -7.963 -23.448  0.00  0.00     0.045 H 
ENDROOT
BRANCH   4  31
ATOM     31  C10 40Y d   1       5.996 -13.723 -26.936  0.00  0.00    -0.069 C 
ATOM     32  H7  40Y d   1       6.832 -14.237 -27.433  0.00  0.00     0.028 H 
ATOM     33  H8  40Y d   1       6.213 -12.647 -26.872  0.00  0.00     0.028 H 
ATOM     34  H9  40Y d   1       5.074 -13.877 -27.516  0.00  0.00     0.028 H 
ENDBRANCH   4  31
BRANCH   4  35
ATOM     35  C9  40Y d   1       5.507 -15.781 -25.636  0.00  0.00    -0.069 C 
ATOM     36  H17 40Y d   1       5.373 -16.203 -24.629  0.00  0.00     0.028 H 
ATOM     37  H18 40Y d   1       6.342 -16.291 -26.139  0.00  0.00     0.028 H 
ATOM     38  H19 40Y d   1       4.585 -15.924 -26.219  0.00  0.00     0.028 H 
ENDBRANCH   4  35
BRANCH  19  39
ATOM     39  C   40Y d   1       7.272  -9.394 -23.456  0.00  0.00    -0.048 C 
ATOM     40  H20 40Y d   1       8.215  -9.956 -23.519  0.00  0.00     0.033 H 
ATOM     41  H21 40Y d   1       7.163  -8.974 -22.445  0.00  0.00     0.033 H 
ATOM     42  H22 40Y d   1       7.282  -8.578 -24.194  0.00  0.00     0.033 H 
ENDBRANCH  19  39
BRANCH   9  43
ATOM     43  C19 40Y d   1      -1.559 -11.150 -25.135  0.00  0.00     0.249 C 
ATOM     44  N1  40Y d   1      -2.398 -11.643 -24.236  0.00  0.00    -0.366 N 
ATOM     45  H1  40Y d   1      -2.050 -11.991 -23.366  0.00  0.00     0.159 HD
ATOM     46  H2  40Y d   1      -3.379 -11.667 -24.428  0.00  0.00     0.159 HD
ATOM     47  O2  40Y d   1      -1.933 -10.710 -26.218  0.00  0.00    -0.268 OA
ENDBRANCH   9  43
TORSDOF 4
