REMARK  7 active torsions:
REMARK  status: ('A' for Active; 'I' for Inactive)
REMARK       I    between atoms: C15_9  and  N1_1 
REMARK    1  A    between atoms: C6_4  and  C22_13 
REMARK    2  A    between atoms: C12_21  and  C15_9 
REMARK    3  A    between atoms: C17_10  and  C20_11 
REMARK    4  A    between atoms: C17_10  and  C21_12 
REMARK    5  A    between atoms: C3_26  and  C2_27 
REMARK    6  A    between atoms: C2_27  and  C1_28 
REMARK    7  A    between atoms: C1_28  and  C_29 
ROOT
ATOM      1  C4  40X d   1       4.244  -8.676 -23.165  0.00  0.00    -0.001 C 
ATOM      2  C5  40X d   1       4.803  -9.976 -23.523  0.00  0.00     0.026 A 
ATOM      3  C6  40X d   1       6.146 -10.234 -23.550  0.00  0.00    -0.023 A 
ATOM      4  C7  40X d   1       6.285 -11.599 -24.007  0.00  0.00     0.041 A 
ATOM      5  C8  40X d   1       5.013 -12.089 -24.259  0.00  0.00     0.032 A 
ATOM      6  C10 40X d   1       1.927 -12.132 -23.667  0.00  0.00    -0.032 A 
ATOM      7  C13 40X d   1       0.686  -9.992 -25.000  0.00  0.00    -0.032 A 
ATOM      8  C17 40X d   1       5.831 -14.122 -25.544  0.00  0.00    -0.036 C 
ATOM      9  O2  40X d   1       8.580 -12.129 -24.175  0.00  0.00    -0.292 OA
ATOM     10  C19 40X d   1       7.414 -12.503 -24.287  0.00  0.00     0.162 C 
ATOM     11  C18 40X d   1       7.125 -13.920 -24.735  0.00  0.00     0.002 C 
ATOM     12  C16 40X d   1       4.674 -13.442 -24.805  0.00  0.00    -0.019 C 
ATOM     13  N   40X d   1       4.114 -11.094 -23.958  0.00  0.00    -0.315 N 
ATOM     14  C9  40X d   1       2.685 -11.060 -24.113  0.00  0.00     0.074 A 
ATOM     15  C14 40X d   1       2.059  -9.993 -24.777  0.00  0.00     0.097 A 
ATOM     16  C12 40X d   1      -0.077 -11.106 -24.597  0.00  0.00     0.056 A 
ATOM     17  C11 40X d   1       0.572 -12.164 -23.938  0.00  0.00     0.052 A 
ATOM     18 CL   40X d   1      -0.249 -13.624 -23.511  0.00  0.00    -0.083 Cl
ATOM     19  O   40X d   1       2.822  -8.963 -25.308  0.00  0.00    -0.343 OA
ATOM     20  C3  40X d   1       3.470  -8.082 -24.339  0.00  0.00     0.050 C 
ATOM     21  H3  40X d   1       5.062  -7.994 -22.890  0.00  0.00     0.046 H 
ATOM     22  H4  40X d   1       3.564  -8.798 -22.309  0.00  0.00     0.046 H 
ATOM     23  H5  40X d   1       2.393 -12.938 -23.111  0.00  0.00     0.089 H 
ATOM     24  H6  40X d   1       0.209  -9.144 -25.478  0.00  0.00     0.089 H 
ATOM     25  H16 40X d   1       7.967 -14.254 -25.359  0.00  0.00     0.046 H 
ATOM     26  H17 40X d   1       7.062 -14.551 -23.836  0.00  0.00     0.046 H 
ATOM     27  H18 40X d   1       3.833 -13.332 -25.505  0.00  0.00     0.043 H 
ATOM     28  H19 40X d   1       4.371 -14.088 -23.967  0.00  0.00     0.043 H 
ATOM     29  H20 40X d   1       4.303  -7.684 -24.937  0.00  0.00     0.084 H 
ENDROOT
BRANCH  20  30
ATOM     30  C2  40X d   1       2.663  -6.843 -24.079  0.00  0.00    -0.040 C 
ATOM     31  H21 40X d   1       2.255  -6.897 -23.059  0.00  0.00     0.036 H 
ATOM     32  H22 40X d   1       1.836  -6.805 -24.803  0.00  0.00     0.036 H 
BRANCH  30  33
ATOM     33  C1  40X d   1       3.470  -5.582 -24.206  0.00  0.00    -0.066 C 
ATOM     34  H23 40X d   1       4.356  -5.669 -23.559  0.00  0.00     0.032 H 
ATOM     35  H24 40X d   1       2.851  -4.737 -23.869  0.00  0.00     0.032 H 
BRANCH  33  36
ATOM     36  C   40X d   1       3.939  -5.300 -25.635  0.00  0.00    -0.076 C 
ATOM     37  H25 40X d   1       4.521  -4.367 -25.652  0.00  0.00     0.027 H 
ATOM     38  H26 40X d   1       3.065  -5.200 -26.295  0.00  0.00     0.027 H 
ATOM     39  H27 40X d   1       4.569  -6.131 -25.985  0.00  0.00     0.027 H 
ENDBRANCH  33  36
ENDBRANCH  30  33
ENDBRANCH  20  30
BRANCH   3  40
ATOM     40  C22 40X d   1       7.298  -9.309 -23.258  0.00  0.00    -0.048 C 
ATOM     41  H13 40X d   1       6.911  -8.334 -22.927  0.00  0.00     0.033 H 
ATOM     42  H14 40X d   1       7.900  -9.175 -24.169  0.00  0.00     0.033 H 
ATOM     43  H15 40X d   1       7.925  -9.743 -22.465  0.00  0.00     0.033 H 
ENDBRANCH   3  40
BRANCH  16  44
ATOM     44  C15 40X d   1      -1.539 -11.099 -24.948  0.00  0.00     0.251 C 
ATOM     45  N1  40X d   1      -2.412 -11.543 -24.054  0.00  0.00    -0.366 N 
ATOM     46  H1  40X d   1      -3.389 -11.547 -24.268  0.00  0.00     0.159 HD
ATOM     47  H2  40X d   1      -2.094 -11.874 -23.166  0.00  0.00     0.159 HD
ATOM     48  O1  40X d   1      -1.902 -10.666 -26.037  0.00  0.00    -0.268 OA
ENDBRANCH  16  44
BRANCH   8  49
ATOM     49  C20 40X d   1       5.980 -13.517 -26.945  0.00  0.00    -0.069 C 
ATOM     50  H7  40X d   1       6.812 -14.009 -27.470  0.00  0.00     0.028 H 
ATOM     51  H8  40X d   1       6.186 -12.440 -26.859  0.00  0.00     0.028 H 
ATOM     52  H9  40X d   1       5.049 -13.668 -27.511  0.00  0.00     0.028 H 
ENDBRANCH   8  49
BRANCH   8  53
ATOM     53  C21 40X d   1       5.532 -15.611 -25.675  0.00  0.00    -0.069 C 
ATOM     54  H10 40X d   1       5.424 -16.053 -24.673  0.00  0.00     0.028 H 
ATOM     55  H11 40X d   1       6.358 -16.106 -26.206  0.00  0.00     0.028 H 
ATOM     56  H12 40X d   1       4.598 -15.749 -26.240  0.00  0.00     0.028 H 
ENDBRANCH   8  53
TORSDOF 7
