REMARK  6 active torsions:
REMARK  status: ('A' for Active; 'I' for Inactive)
REMARK    1  A    between atoms: N1_1  and  C19_21 
REMARK    2  A    between atoms: C7_5  and  C10_7 
REMARK    3  A    between atoms: C7_5  and  C9_29 
REMARK    4  A    between atoms: C19_21  and  C20_11 
REMARK    5  A    between atoms: C14_17  and  C24_14 
REMARK       I    between atoms: C24_14  and  N2_18 
REMARK    6  A    between atoms: C1_31  and  C_32 
ROOT
ATOM      1  N1  40Z d   1       2.744  -8.803 -25.615  0.00  0.00    -0.372 N 
ATOM      2  C4  40Z d   1       6.416 -11.583 -24.317  0.00  0.00     0.041 A 
ATOM      3  C5  40Z d   1       7.547 -12.536 -24.470  0.00  0.00     0.162 C 
ATOM      4  C6  40Z d   1       7.259 -13.972 -24.852  0.00  0.00     0.002 C 
ATOM      5  C7  40Z d   1       6.009 -14.201 -25.717  0.00  0.00    -0.036 C 
ATOM      6  C8  40Z d   1       4.831 -13.446 -25.092  0.00  0.00    -0.019 C 
ATOM      7  C13 40Z d   1       0.756 -12.250 -24.176  0.00  0.00     0.052 A 
ATOM      8  C15 40Z d   1       0.717 -10.121 -25.271  0.00  0.00    -0.038 A 
ATOM      9  C17 40Z d   1       3.601  -7.919 -24.817  0.00  0.00     0.001 C 
ATOM     10 CL   40Z d   1       0.015 -13.718 -23.643  0.00  0.00    -0.083 Cl
ATOM     11  C12 40Z d   1       2.119 -12.144 -23.993  0.00  0.00    -0.033 A 
ATOM     12  C14 40Z d   1       0.025 -11.246 -24.816  0.00  0.00     0.055 A 
ATOM     13  C16 40Z d   1       2.100 -10.000 -25.115  0.00  0.00     0.059 A 
ATOM     14  C18 40Z d   1       4.309  -8.588 -23.645  0.00  0.00    -0.011 C 
ATOM     15  C2  40Z d   1       4.930  -9.913 -23.977  0.00  0.00     0.025 A 
ATOM     16  C11 40Z d   1       2.819 -11.045 -24.492  0.00  0.00     0.067 A 
ATOM     17  N   40Z d   1       4.253 -11.041 -24.383  0.00  0.00    -0.315 N 
ATOM     18  C3  40Z d   1       5.155 -12.066 -24.600  0.00  0.00     0.032 A 
ATOM     19  O   40Z d   1       8.711 -12.184 -24.330  0.00  0.00    -0.292 OA
ATOM     20  C1  40Z d   1       6.272 -10.195 -23.921  0.00  0.00    -0.023 A 
ATOM     21  H1  40Z d   1       7.136 -14.549 -23.924  0.00  0.00     0.046 H 
ATOM     22  H2  40Z d   1       8.128 -14.353 -25.409  0.00  0.00     0.046 H 
ATOM     23  H3  40Z d   1       4.461 -14.035 -24.239  0.00  0.00     0.043 H 
ATOM     24  H4  40Z d   1       4.038 -13.361 -25.850  0.00  0.00     0.043 H 
ATOM     25  H8  40Z d   1       0.168  -9.323 -25.757  0.00  0.00     0.088 H 
ATOM     26  H9  40Z d   1       2.975  -7.107 -24.418  0.00  0.00     0.064 H 
ATOM     27  H10 40Z d   1       4.369  -7.497 -25.483  0.00  0.00     0.064 H 
ATOM     28  H13 40Z d   1       2.651 -12.921 -23.457  0.00  0.00     0.089 H 
ATOM     29  H19 40Z d   1       3.574  -8.743 -22.841  0.00  0.00     0.044 H 
ATOM     30  H20 40Z d   1       5.103  -7.914 -23.291  0.00  0.00     0.044 H 
ENDROOT
BRANCH   1  31
ATOM     31  C19 40Z d   1       2.390  -8.408 -26.970  0.00  0.00     0.039 C 
ATOM     32  H16 40Z d   1       1.362  -8.027 -26.884  0.00  0.00     0.074 H 
ATOM     33  H17 40Z d   1       2.385  -9.351 -27.537  0.00  0.00     0.074 H 
BRANCH  31  34
ATOM     34  C20 40Z d   1       3.067  -7.442 -27.867  0.00  0.00     0.070 A 
ATOM     35  C21 40Z d   1       3.461  -6.169 -27.732  0.00  0.00    -0.051 A 
ATOM     36  C22 40Z d   1       3.987  -5.778 -28.961  0.00  0.00    -0.059 A 
ATOM     37  H11 40Z d   1       3.385  -5.557 -26.834  0.00  0.00     0.087 H 
ATOM     38  C23 40Z d   1       3.883  -6.824 -29.765  0.00  0.00     0.019 A 
ATOM     39  H12 40Z d   1       4.402  -4.803 -29.211  0.00  0.00     0.086 H 
ATOM     40  O1  40Z d   1       3.327  -7.873 -29.124  0.00  0.00    -0.325 OA
ATOM     41  H18 40Z d   1       4.204  -6.836 -30.806  0.00  0.00     0.123 H 
ENDBRANCH  31  34
ENDBRANCH   1  31
BRANCH  12  42
ATOM     42  C24 40Z d   1      -1.451 -11.295 -25.069  0.00  0.00     0.251 C 
ATOM     43  N2  40Z d   1      -2.233 -11.792 -24.123  0.00  0.00    -0.366 N 
ATOM     44  H14 40Z d   1      -3.222 -11.837 -24.264  0.00  0.00     0.159 HD
ATOM     45  H15 40Z d   1      -1.835 -12.122 -23.267  0.00  0.00     0.159 HD
ATOM     46  O2  40Z d   1      -1.898 -10.868 -26.144  0.00  0.00    -0.268 OA
ENDBRANCH  12  42
BRANCH  20  47
ATOM     47  C   40Z d   1       7.415  -9.293 -23.547  0.00  0.00    -0.048 C 
ATOM     48  H24 40Z d   1       8.360  -9.853 -23.611  0.00  0.00     0.033 H 
ATOM     49  H25 40Z d   1       7.273  -8.929 -22.519  0.00  0.00     0.033 H 
ATOM     50  H26 40Z d   1       7.448  -8.438 -24.238  0.00  0.00     0.033 H 
ENDBRANCH  20  47
BRANCH   5  51
ATOM     51  C10 40Z d   1       5.682 -15.690 -25.769  0.00  0.00    -0.069 C 
ATOM     52  H5  40Z d   1       6.526 -16.235 -26.217  0.00  0.00     0.028 H 
ATOM     53  H6  40Z d   1       4.779 -15.846 -26.378  0.00  0.00     0.028 H 
ATOM     54  H7  40Z d   1       5.505 -16.062 -24.749  0.00  0.00     0.028 H 
ENDBRANCH   5  51
BRANCH   5  55
ATOM     55  C9  40Z d   1       6.256 -13.708 -27.147  0.00  0.00    -0.069 C 
ATOM     56  H21 40Z d   1       6.494 -12.634 -27.129  0.00  0.00     0.028 H 
ATOM     57  H22 40Z d   1       5.353 -13.873 -27.753  0.00  0.00     0.028 H 
ATOM     58  H23 40Z d   1       7.099 -14.263 -27.586  0.00  0.00     0.028 H 
ENDBRANCH   5  55
TORSDOF 6
