REMARK  7 active torsions:
REMARK  status: ('A' for Active; 'I' for Inactive)
REMARK    1  A    between atoms: C8_4  and  C2_2 
REMARK    2  A    between atoms: C29_44  and  C6_3 
REMARK    3  A    between atoms: C46_45  and  C22_11 
REMARK    4  A    between atoms: C51_13  and  O52_12 
REMARK    5  A    between atoms: C51_13  and  C53_14 
REMARK    6  A    between atoms: C63_31  and  C67_32 
REMARK    7  A    between atoms: C62_33  and  O66_34 
ROOT
ATOM      1  C8  41J d   1      65.826  -6.365  23.621  0.00  0.00    -0.062 C 
ATOM      2  C10 41J d   1      66.821  -4.965  21.753  0.00  0.00    -0.049 C 
ATOM      3  C13 41J d   1      66.273  -7.456  22.988  0.00  0.00    -0.089 C 
ATOM      4  C15 41J d   1      68.032  -8.682  21.720  0.00  0.00     0.077 C 
ATOM      5  C17 41J d   1      68.696 -10.330  20.236  0.00  0.00     0.168 C 
ATOM      6  C18 41J d   1      69.990 -10.988  19.760  0.00  0.00     0.011 C 
ATOM      7  C21 41J d   1      71.298 -10.363  20.243  0.00  0.00     0.047 C 
ATOM      8  C51 41J d   1      75.378  -8.415  17.636  0.00  0.00     0.110 C 
ATOM      9  C50 41J d   1      74.595  -7.116  17.825  0.00  0.00    -0.029 C 
ATOM     10  C49 41J d   1      73.267  -7.091  17.067  0.00  0.00    -0.038 C 
ATOM     11  C48 41J d   1      72.472  -8.390  17.220  0.00  0.00     0.045 C 
ATOM     12  O47 41J d   1      73.319  -9.535  17.093  0.00  0.00    -0.347 OA
ATOM     13  C43 41J d   1      74.455  -9.584  17.962  0.00  0.00     0.198 C 
ATOM     14  O44 41J d   1      74.024  -9.507  19.313  0.00  0.00    -0.316 OA
ATOM     15  C42 41J d   1      75.091 -10.968  17.865  0.00  0.00    -0.005 C 
ATOM     16  C55 41J d   1      74.616 -11.727  19.096  0.00  0.00    -0.008 C 
ATOM     17  C23 41J d   1      73.699 -10.772  19.855  0.00  0.00     0.168 C 
ATOM     18  O48 41J d   1      72.326 -11.065  19.532  0.00  0.00    -0.349 OA
ATOM     19  C80 41J d   1      73.929 -10.814  21.358  0.00  0.00    -0.013 C 
ATOM     20  C60 41J d   1      72.880  -9.998  22.099  0.00  0.00    -0.058 C 
ATOM     21  C81 41J d   1      71.488 -10.513  21.746  0.00  0.00    -0.040 C 
ATOM     22  O65 41J d   1      68.315 -10.922  21.463  0.00  0.00    -0.344 OA
ATOM     23  O16 41J d   1      68.762  -8.922  20.506  0.00  0.00    -0.346 OA
ATOM     24  C64 41J d   1      67.588 -10.636  19.237  0.00  0.00    -0.007 C 
ATOM     25  C63 41J d   1      66.221 -10.139  19.703  0.00  0.00    -0.025 C 
ATOM     26  C62 41J d   1      66.037 -10.286  21.213  0.00  0.00     0.066 C 
ATOM     27  C37 41J d   1      71.368  -8.509  16.160  0.00  0.00    -0.021 C 
ATOM     28  C36 41J d   1      70.341  -7.399  16.261  0.00  0.00    -0.087 C 
ATOM     29  C38 41J d   1      70.090  -6.675  15.189  0.00  0.00    -0.119 C 
ATOM     30  C35 41J d   1      69.660  -7.187  17.599  0.00  0.00    -0.045 C 
ATOM     31  C34 41J d   1      68.424  -6.297  17.574  0.00  0.00    -0.057 C 
ATOM     32  C33 41J d   1      67.664  -6.392  18.893  0.00  0.00    -0.028 C 
ATOM     33  C32 41J d   1      68.327  -5.783  20.122  0.00  0.00     0.016 C 
ATOM     34  N31 41J d   1      69.254  -4.957  19.893  0.00  0.00    -0.297 NA
ATOM     35  C30 41J d   1      70.120  -4.162  20.753  0.00  0.00     0.018 C 
ATOM     36  C29 41J d   1      71.067  -5.083  21.522  0.00  0.00    -0.037 C 
ATOM     37  C46 41J d   1      70.380  -6.282  22.169  0.00  0.00    -0.052 C 
ATOM     38  C28 41J d   1      68.954  -5.944  22.625  0.00  0.00    -0.049 C 
ATOM     39  C27 41J d   1      67.852  -6.074  21.548  0.00  0.00     0.010 C 
ATOM     40  C9  41J d   1      66.158  -4.973  23.126  0.00  0.00    -0.040 C 
ATOM     41  C12 41J d   1      67.115  -7.431  21.718  0.00  0.00     0.003 C 
ATOM     42  C61 41J d   1      67.344 -10.030  21.971  0.00  0.00     0.092 C 
ATOM     43  H7  41J d   1      66.036  -5.078  20.991  0.00  0.00     0.035 H 
ATOM     44  H8  41J d   1      67.325  -3.997  21.619  0.00  0.00     0.035 H 
ATOM     45  H9  41J d   1      66.018  -8.427  23.409  0.00  0.00     0.078 H 
ATOM     46  H10 41J d   1      68.758  -8.514  22.529  0.00  0.00     0.088 H 
ATOM     47  H11 41J d   1      69.993 -10.959  18.660  0.00  0.00     0.044 H 
ATOM     48  H12 41J d   1      69.976 -12.034  20.099  0.00  0.00     0.044 H 
ATOM     49  H13 41J d   1      71.320  -9.293  19.988  0.00  0.00     0.083 H 
ATOM     50  H21 41J d   1      75.215  -6.280  17.469  0.00  0.00     0.037 H 
ATOM     51  H22 41J d   1      74.387  -6.987  18.897  0.00  0.00     0.037 H 
ATOM     52  H23 41J d   1      73.475  -6.930  15.999  0.00  0.00     0.036 H 
ATOM     53  H24 41J d   1      72.659  -6.259  17.451  0.00  0.00     0.036 H 
ATOM     54  H25 41J d   1      72.010  -8.395  18.218  0.00  0.00     0.083 H 
ATOM     55  H26 41J d   1      76.188 -10.887  17.864  0.00  0.00     0.041 H 
ATOM     56  H27 41J d   1      74.760 -11.479  16.948  0.00  0.00     0.041 H 
ATOM     57  H28 41J d   1      75.474 -12.012  19.723  0.00  0.00     0.041 H 
ATOM     58  H29 41J d   1      74.064 -12.630  18.798  0.00  0.00     0.041 H 
ATOM     59  H30 41J d   1      74.925 -10.404  21.580  0.00  0.00     0.041 H 
ATOM     60  H31 41J d   1      73.878 -11.858  21.700  0.00  0.00     0.041 H 
ATOM     61  H32 41J d   1      72.964  -8.941  21.806  0.00  0.00     0.033 H 
ATOM     62  H33 41J d   1      73.041 -10.092  23.183  0.00  0.00     0.033 H 
ATOM     63  H34 41J d   1      71.399 -11.572  22.030  0.00  0.00     0.036 H 
ATOM     64  H35 41J d   1      70.726  -9.925  22.279  0.00  0.00     0.036 H 
ATOM     65  H36 41J d   1      67.536 -11.725  19.092  0.00  0.00     0.041 H 
ATOM     66  H37 41J d   1      67.832 -10.150  18.281  0.00  0.00     0.041 H 
ATOM     67  H38 41J d   1      66.182  -9.062  19.480  0.00  0.00     0.043 H 
ATOM     68  H42 41J d   1      65.280  -9.563  21.550  0.00  0.00     0.087 H 
ATOM     69  H44 41J d   1      70.857  -9.474  16.290  0.00  0.00     0.043 H 
ATOM     70  H45 41J d   1      71.831  -8.471  15.163  0.00  0.00     0.043 H 
ATOM     71  H46 41J d   1      69.357  -5.871  15.234  0.00  0.00     0.067 H 
ATOM     72  H47 41J d   1      70.616  -6.880  14.258  0.00  0.00     0.067 H 
ATOM     73  H48 41J d   1      70.391  -6.731  18.283  0.00  0.00     0.039 H 
ATOM     74  H49 41J d   1      69.360  -8.172  17.986  0.00  0.00     0.039 H 
ATOM     75  H50 41J d   1      67.765  -6.617  16.754  0.00  0.00     0.034 H 
ATOM     76  H51 41J d   1      68.733  -5.254  17.410  0.00  0.00     0.034 H 
ATOM     77  H52 41J d   1      67.495  -7.459  19.102  0.00  0.00     0.041 H 
ATOM     78  H53 41J d   1      66.696  -5.888  18.755  0.00  0.00     0.041 H 
ATOM     79  H54 41J d   1      69.505  -3.592  21.465  0.00  0.00     0.067 H 
ATOM     80  H55 41J d   1      70.707  -3.465  20.137  0.00  0.00     0.067 H 
ATOM     81  H56 41J d   1      71.505  -4.490  22.338  0.00  0.00     0.042 H 
ATOM     82  H57 41J d   1      70.307  -7.074  21.410  0.00  0.00     0.040 H 
ATOM     83  H58 41J d   1      68.953  -4.904  22.985  0.00  0.00     0.035 H 
ATOM     84  H59 41J d   1      68.696  -6.619  23.454  0.00  0.00     0.035 H 
ATOM     85  H60 41J d   1      66.841  -4.500  23.847  0.00  0.00     0.040 H 
ATOM     86  H61 41J d   1      65.226  -4.391  23.067  0.00  0.00     0.040 H 
ATOM     87  H62 41J d   1      66.435  -7.528  20.859  0.00  0.00     0.051 H 
ATOM     88  H63 41J d   1      67.168 -10.175  23.047  0.00  0.00     0.091 H 
ENDROOT
BRANCH   8  89
ATOM     89  O52 41J d   1      76.427  -8.405  18.611  0.00  0.00    -0.385 OA
ATOM     90  H17 41J d   1      76.049  -8.349  19.481  0.00  0.00     0.210 HD
ENDBRANCH   8  89
BRANCH   8  91
ATOM     91  C53 41J d   1      75.963  -8.505  16.218  0.00  0.00    -0.043 C 
ATOM     92  H18 41J d   1      75.144  -8.511  15.483  0.00  0.00     0.031 H 
ATOM     93  H19 41J d   1      76.550  -9.431  16.121  0.00  0.00     0.031 H 
ATOM     94  H20 41J d   1      76.614  -7.637  16.034  0.00  0.00     0.031 H 
ENDBRANCH   8  91
BRANCH  25  95
ATOM     95  C67 41J d   1      65.078 -10.792  18.933  0.00  0.00    -0.070 C 
ATOM     96  H39 41J d   1      64.118 -10.404  19.303  0.00  0.00     0.028 H 
ATOM     97  H40 41J d   1      65.113 -11.882  19.079  0.00  0.00     0.028 H 
ATOM     98  H41 41J d   1      65.178 -10.562  17.862  0.00  0.00     0.028 H 
ENDBRANCH  25  95
BRANCH  26  99
ATOM     99  O66 41J d   1      65.597 -11.607  21.510  0.00  0.00    -0.393 OA
ATOM    100  H43 41J d   1      65.483 -11.698  22.449  0.00  0.00     0.210 HD
ENDBRANCH  26  99
BRANCH  36 101
ATOM    101  C6  41J d   1      72.206  -5.521  20.602  0.00  0.00    -0.071 C 
ATOM    102  H4  41J d   1      72.677  -4.634  20.154  0.00  0.00     0.028 H 
ATOM    103  H5  41J d   1      71.806  -6.166  19.805  0.00  0.00     0.028 H 
ATOM    104  H6  41J d   1      72.954  -6.079  21.184  0.00  0.00     0.028 H 
ENDBRANCH  36 101
BRANCH  37 105
ATOM    105  C22 41J d   1      71.215  -6.824  23.332  0.00  0.00    -0.072 C 
ATOM    106  H14 41J d   1      70.701  -7.686  23.782  0.00  0.00     0.028 H 
ATOM    107  H15 41J d   1      71.343  -6.037  24.090  0.00  0.00     0.028 H 
ATOM    108  H16 41J d   1      72.201  -7.138  22.960  0.00  0.00     0.028 H 
ENDBRANCH  37 105
BRANCH   1 109
ATOM    109  C2  41J d   1      64.985  -6.580  24.819  0.00  0.00    -0.086 C 
ATOM    110  C1  41J d   1      64.437  -5.601  25.519  0.00  0.00    -0.121 C 
ATOM    111  H1  41J d   1      63.828  -5.831  26.392  0.00  0.00     0.066 H 
ATOM    112  H2  41J d   1      64.595  -4.565  25.222  0.00  0.00     0.066 H 
ATOM    113  H3  41J d   1      64.807  -7.604  25.143  0.00  0.00     0.083 H 
ENDBRANCH   1 109
TORSDOF 7
