REMARK  14 active torsions:
REMARK  status: ('A' for Active; 'I' for Inactive)
REMARK    1  A    between atoms: C11_1  and  C12_2 
REMARK    2  A    between atoms: N10_12  and  C11_1 
REMARK       I    between atoms: C12_2  and  N13_13 
REMARK    3  A    between atoms: O02_4  and  C01_3 
REMARK    4  A    between atoms: C03_5  and  O02_4 
REMARK    5  A    between atoms: S09_11  and  C08_10 
REMARK    6  A    between atoms: S09_11  and  N10_12 
REMARK    7  A    between atoms: N10_12  and  C15_15 
REMARK    8  A    between atoms: C18_18  and  N19_19 
REMARK    9  A    between atoms: N19_19  and  C20_20 
REMARK   10  A    between atoms: N19_19  and  S24_24 
REMARK   11  A    between atoms: C20_20  and  C21_21 
REMARK       I    between atoms: C21_21  and  N22_22 
REMARK   12  A    between atoms: S24_24  and  C25_25 
REMARK   13  A    between atoms: C28_28  and  O29_29 
REMARK   14  A    between atoms: O29_29  and  C30_30 
ROOT
ATOM      1  C15 41P d   1       3.126  -0.486 -21.984  0.00  0.00     0.057 A 
ATOM      2  C16 41P d   1       4.434  -0.200 -22.389  0.00  0.00    -0.053 A 
ATOM      3  C17 41P d   1       5.032   1.066 -22.052  0.00  0.00    -0.053 A 
ATOM      4  C18 41P d   1       4.322   1.977 -21.326  0.00  0.00     0.057 A 
ATOM      5  C35 41P d   1       2.974   1.695 -20.919  0.00  0.00     0.004 A 
ATOM      6  C36 41P d   1       2.389   0.452 -21.249  0.00  0.00     0.004 A 
ATOM      7  C37 41P d   1       1.077   0.166 -20.841  0.00  0.00    -0.070 A 
ATOM      8  C38 41P d   1       0.342   1.114 -20.107  0.00  0.00    -0.082 A 
ATOM      9  C39 41P d   1       0.936   2.382 -19.769  0.00  0.00    -0.082 A 
ATOM     10  C40 41P d   1       2.222   2.665 -20.166  0.00  0.00    -0.070 A 
ATOM     11  H12 41P d   1       4.998  -0.931 -22.957  0.00  0.00     0.087 H 
ATOM     12  H13 41P d   1       6.042   1.294 -22.374  0.00  0.00     0.087 H 
ATOM     13  H25 41P d   1       0.629  -0.788 -21.092  0.00  0.00     0.084 H 
ATOM     14  H26 41P d   1      -0.672   0.890 -19.796  0.00  0.00     0.083 H 
ATOM     15  H27 41P d   1       0.370   3.112 -19.202  0.00  0.00     0.083 H 
ATOM     16  H28 41P d   1       2.670   3.619 -19.912  0.00  0.00     0.084 H 
ENDROOT
BRANCH   1  17
ATOM     17  N10 41P d   1       2.570  -1.797 -22.359  0.00  0.00    -0.262 N 
BRANCH  17  18
ATOM     18  C11 41P d   1       2.859  -2.935 -21.504  0.00  0.00     0.084 C 
ATOM     19  H1  41P d   1       3.346  -3.693 -22.134  0.00  0.00     0.080 H 
ATOM     20  H2  41P d   1       3.566  -2.587 -20.736  0.00  0.00     0.080 H 
BRANCH  18  21
ATOM     21  C12 41P d   1       1.697  -3.644 -20.761  0.00  0.00     0.234 C 
ATOM     22  N13 41P d   1       1.992  -4.767 -19.901  0.00  0.00    -0.369 N 
ATOM     23  H10 41P d   1       1.252  -5.233 -19.416  0.00  0.00     0.159 HD
ATOM     24  H11 41P d   1       2.936  -5.078 -19.791  0.00  0.00     0.159 HD
ATOM     25  O14 41P d   1       0.617  -3.275 -20.889  0.00  0.00    -0.272 OA
ENDBRANCH  18  21
ENDBRANCH  17  18
BRANCH  17  26
ATOM     26  S09 41P d   1       1.709  -1.922 -23.747  0.00  0.00     0.265 S 
ATOM     27  O41 41P d   1       0.894  -3.152 -23.777  0.00  0.00    -0.200 OA
ATOM     28  O42 41P d   1       0.692  -0.910 -23.851  0.00  0.00    -0.200 OA
BRANCH  26  29
ATOM     29  C08 41P d   1       2.849  -1.856 -25.167  0.00  0.00     0.080 A 
ATOM     30  C05 41P d   1       3.327  -3.024 -25.702  0.00  0.00    -0.058 A 
ATOM     31  C04 41P d   1       4.236  -2.987 -26.822  0.00  0.00    -0.049 A 
ATOM     32  H7  41P d   1       3.022  -3.976 -25.283  0.00  0.00     0.086 H 
ATOM     33  C03 41P d   1       4.650  -1.696 -27.392  0.00  0.00     0.068 A 
ATOM     34  H6  41P d   1       4.614  -3.911 -27.244  0.00  0.00     0.087 H 
ATOM     35  C06 41P d   1       4.178  -0.539 -26.859  0.00  0.00    -0.049 A 
ATOM     36  C07 41P d   1       3.258  -0.580 -25.720  0.00  0.00    -0.058 A 
ATOM     37  H8  41P d   1       4.482   0.414 -27.276  0.00  0.00     0.087 H 
ATOM     38  H9  41P d   1       2.884   0.343 -25.291  0.00  0.00     0.086 H 
BRANCH  33  39
ATOM     39  O02 41P d   1       5.555  -1.668 -28.506  0.00  0.00    -0.356 OA
BRANCH  39  40
ATOM     40  C01 41P d   1       5.063  -1.783 -29.817  0.00  0.00     0.010 C 
ATOM     41  H3  41P d   1       5.901  -1.740 -30.528  0.00  0.00     0.066 H 
ATOM     42  H4  41P d   1       4.367  -0.956 -30.021  0.00  0.00     0.066 H 
ATOM     43  H5  41P d   1       4.536  -2.742 -29.928  0.00  0.00     0.066 H 
ENDBRANCH  39  40
ENDBRANCH  33  39
ENDBRANCH  26  29
ENDBRANCH  17  26
ENDBRANCH   1  17
BRANCH   4  44
ATOM     44  N19 41P d   1       4.947   3.236 -21.039  0.00  0.00    -0.262 N 
BRANCH  44  45
ATOM     45  C20 41P d   1       5.907   3.415 -19.947  0.00  0.00     0.084 C 
ATOM     46  H14 41P d   1       6.015   4.499 -19.794  0.00  0.00     0.080 H 
ATOM     47  H15 41P d   1       6.863   2.997 -20.294  0.00  0.00     0.080 H 
BRANCH  45  48
ATOM     48  C21 41P d   1       5.646   2.834 -18.644  0.00  0.00     0.234 C 
ATOM     49  N22 41P d   1       5.359   3.721 -17.502  0.00  0.00    -0.369 N 
ATOM     50  H16 41P d   1       5.178   3.331 -16.599  0.00  0.00     0.159 HD
ATOM     51  H17 41P d   1       5.346   4.713 -17.630  0.00  0.00     0.159 HD
ATOM     52  O23 41P d   1       5.672   1.671 -18.499  0.00  0.00    -0.272 OA
ENDBRANCH  45  48
ENDBRANCH  44  45
BRANCH  44  53
ATOM     53  S24 41P d   1       4.588   4.446 -22.078  0.00  0.00     0.265 S 
ATOM     54  O33 41P d   1       4.863   5.723 -21.527  0.00  0.00    -0.200 OA
ATOM     55  O34 41P d   1       3.175   4.546 -22.378  0.00  0.00    -0.200 OA
BRANCH  53  56
ATOM     56  C25 41P d   1       5.549   4.097 -23.570  0.00  0.00     0.080 A 
ATOM     57  C26 41P d   1       6.786   4.641 -23.719  0.00  0.00    -0.058 A 
ATOM     58  C27 41P d   1       7.527   4.366 -24.852  0.00  0.00    -0.049 A 
ATOM     59  H18 41P d   1       7.190   5.289 -22.950  0.00  0.00     0.086 H 
ATOM     60  C28 41P d   1       7.012   3.523 -25.841  0.00  0.00     0.068 A 
ATOM     61  H19 41P d   1       8.511   4.805 -24.974  0.00  0.00     0.087 H 
ATOM     62  C31 41P d   1       5.773   2.966 -25.692  0.00  0.00    -0.049 A 
ATOM     63  C32 41P d   1       5.029   3.236 -24.562  0.00  0.00    -0.058 A 
ATOM     64  H23 41P d   1       5.375   2.313 -26.460  0.00  0.00     0.087 H 
ATOM     65  H24 41P d   1       4.049   2.789 -24.436  0.00  0.00     0.086 H 
BRANCH  60  66
ATOM     66  O29 41P d   1       7.751   3.264 -26.947  0.00  0.00    -0.356 OA
BRANCH  66  67
ATOM     67  C30 41P d   1       8.962   2.540 -26.812  0.00  0.00     0.010 C 
ATOM     68  H20 41P d   1       9.430   2.420 -27.800  0.00  0.00     0.066 H 
ATOM     69  H21 41P d   1       8.751   1.549 -26.384  0.00  0.00     0.066 H 
ATOM     70  H22 41P d   1       9.645   3.089 -26.147  0.00  0.00     0.066 H 
ENDBRANCH  66  67
ENDBRANCH  60  66
ENDBRANCH  53  56
ENDBRANCH  44  53
ENDBRANCH   4  44
TORSDOF 14
