REMARK  6 active torsions:
REMARK  status: ('A' for Active; 'I' for Inactive)
REMARK    1  A    between atoms: N_1  and  CA_2 
REMARK    2  A    between atoms: CA_2  and  C_3 
REMARK    3  A    between atoms: CA_2  and  CB_5 
REMARK    4  A    between atoms: CB_5  and  CG1_6 
REMARK    5  A    between atoms: CB_5  and  CG2_7 
REMARK    6  A    between atoms: CG1_6  and  CD1_8 
ROOT
ATOM      1  CB  ILE d   1     -14.361 -31.449 -40.022  0.00  0.00    -0.021 C 
ATOM      2  H5  ILE d   1     -14.785 -30.947 -39.140  0.00  0.00     0.043 H 
ENDROOT
BRANCH   1   3
ATOM      3  CA  ILE d   1     -13.098 -30.661 -40.457  0.00  0.00     0.185 C 
ATOM      4  H4  ILE d   1     -12.296 -30.872 -39.735  0.00  0.00     0.101 H 
BRANCH   3   5
ATOM      5  N   ILE d   1     -13.344 -29.224 -40.481  0.00  0.00    -0.065 N 
ATOM      6  H1  ILE d   1     -12.505 -28.744 -40.767  0.00  0.00     0.275 HD
ATOM      7  H2  ILE d   1     -13.611 -28.913 -39.560  0.00  0.00     0.275 HD
ATOM      8  H3  ILE d   1     -14.086 -29.021 -41.133  0.00  0.00     0.275 HD
ENDBRANCH   3   5
BRANCH   3   9
ATOM      9  C   ILE d   1     -12.638 -31.079 -41.838  0.00  0.00     0.204 C 
ATOM     10  O   ILE d   1     -12.858 -30.352 -42.819  0.00  0.00    -0.646 OA
ATOM     11  OXT ILE d   1     -12.030 -32.131 -41.980  0.00  0.00    -0.646 OA
ENDBRANCH   3   9
ENDBRANCH   1   3
BRANCH   1  12
ATOM     12  CG1 ILE d   1     -13.998 -32.878 -39.624  0.00  0.00    -0.063 C 
ATOM     13  H6  ILE d   1     -13.155 -32.844 -38.918  0.00  0.00     0.033 H 
ATOM     14  H7  ILE d   1     -13.698 -33.430 -40.527  0.00  0.00     0.033 H 
BRANCH  12  15
ATOM     15  CD1 ILE d   1     -15.139 -33.604 -38.975  0.00  0.00    -0.076 C 
ATOM     16  H11 ILE d   1     -14.822 -34.624 -38.711  0.00  0.00     0.027 H 
ATOM     17  H12 ILE d   1     -15.987 -33.653 -39.674  0.00  0.00     0.027 H 
ATOM     18  H13 ILE d   1     -15.445 -33.068 -38.065  0.00  0.00     0.027 H 
ENDBRANCH  12  15
ENDBRANCH   1  12
BRANCH   1  19
ATOM     19  CG2 ILE d   1     -15.420 -31.450 -41.113  0.00  0.00    -0.070 C 
ATOM     20  H8  ILE d   1     -15.667 -30.413 -41.385  0.00  0.00     0.028 H 
ATOM     21  H9  ILE d   1     -16.324 -31.958 -40.746  0.00  0.00     0.028 H 
ATOM     22  H10 ILE d   1     -15.035 -31.979 -41.997  0.00  0.00     0.028 H 
ENDBRANCH   1  19
TORSDOF 6
