REMARK  13 active torsions:
REMARK  status: ('A' for Active; 'I' for Inactive)
REMARK    1  A    between atoms: C6_2  and  O6_1 
REMARK    2  A    between atoms: C5_3  and  C6_2 
REMARK    3  A    between atoms: C10_4  and  C9_16 
REMARK    4  A    between atoms: C11_19  and  C10_4 
REMARK    5  A    between atoms: C4_6  and  O4_7 
REMARK    6  A    between atoms: C3_8  and  O3_9 
REMARK    7  A    between atoms: C2_10  and  O2_11 
REMARK    8  A    between atoms: O1_13  and  C1_12 
REMARK    9  A    between atoms: C7_14  and  O1_13 
REMARK   10  A    between atoms: C8_15  and  C7_14 
REMARK   11  A    between atoms: C9_16  and  C8_15 
REMARK   12  A    between atoms: C12_18  and  C13_17 
REMARK   13  A    between atoms: C12_18  and  C11_19 
ROOT
ATOM      1  O1  KGM d   1     -19.297  -5.905 -14.462  0.00  0.00    -0.359 OA
ENDROOT
BRANCH   1   2
ATOM      2  C1  KGM d   1     -19.062  -5.372 -13.167  0.00  0.00     0.158 C 
ATOM      3  O5  KGM d   1     -20.230  -4.826 -12.659  0.00  0.00    -0.348 OA
ATOM      4  C5  KGM d   1     -21.332  -5.683 -12.543  0.00  0.00     0.089 C 
ATOM      5  C4  KGM d   1     -20.984  -6.829 -11.611  0.00  0.00     0.090 C 
ATOM      6  H4  KGM d   1     -21.580  -6.088 -13.535  0.00  0.00     0.090 H 
ATOM      7  C3  KGM d   1     -19.714  -7.518 -12.113  0.00  0.00     0.092 C 
ATOM      8  H7  KGM d   1     -20.813  -6.439 -10.597  0.00  0.00     0.091 H 
ATOM      9  C2  KGM d   1     -18.602  -6.495 -12.269  0.00  0.00     0.110 C 
ATOM     10  H9  KGM d   1     -19.916  -7.986 -13.088  0.00  0.00     0.091 H 
ATOM     11  H11 KGM d   1     -17.721  -6.983 -12.711  0.00  0.00     0.094 H 
ATOM     12  H13 KGM d   1     -18.286  -4.594 -13.221  0.00  0.00     0.133 H 
BRANCH   4  13
ATOM     13  C6  KGM d   1     -22.528  -4.924 -12.006  0.00  0.00     0.043 C 
ATOM     14  H2  KGM d   1     -22.807  -4.135 -12.719  0.00  0.00     0.078 H 
ATOM     15  H3  KGM d   1     -23.372  -5.619 -11.879  0.00  0.00     0.078 H 
BRANCH  13  16
ATOM     16  O6  KGM d   1     -22.216  -4.338 -10.762  0.00  0.00    -0.398 OA
ATOM     17  H1  KGM d   1     -22.974  -3.866 -10.437  0.00  0.00     0.209 HD
ENDBRANCH  13  16
ENDBRANCH   4  13
BRANCH   5  18
ATOM     18  O4  KGM d   1     -22.038  -7.746 -11.585  0.00  0.00    -0.390 OA
ATOM     19  H8  KGM d   1     -22.825  -7.313 -11.275  0.00  0.00     0.210 HD
ENDBRANCH   5  18
BRANCH   7  20
ATOM     20  O3  KGM d   1     -19.320  -8.504 -11.200  0.00  0.00    -0.390 OA
ATOM     21  H10 KGM d   1     -18.531  -8.929 -11.516  0.00  0.00     0.210 HD
ENDBRANCH   7  20
BRANCH   9  22
ATOM     22  O2  KGM d   1     -18.259  -5.954 -11.018  0.00  0.00    -0.388 OA
ATOM     23  H12 KGM d   1     -17.963  -6.650 -10.444  0.00  0.00     0.210 HD
ENDBRANCH   9  22
ENDBRANCH   1   2
BRANCH   1  24
ATOM     24  C7  KGM d   1     -19.566  -4.957 -15.473  0.00  0.00     0.023 C 
ATOM     25  H14 KGM d   1     -18.646  -4.410 -15.728  0.00  0.00     0.074 H 
ATOM     26  H15 KGM d   1     -20.331  -4.247 -15.127  0.00  0.00     0.074 H 
BRANCH  24  27
ATOM     27  C8  KGM d   1     -20.072  -5.709 -16.687  0.00  0.00    -0.045 C 
ATOM     28  H16 KGM d   1     -20.836  -6.434 -16.369  0.00  0.00     0.036 H 
ATOM     29  H17 KGM d   1     -19.232  -6.243 -17.155  0.00  0.00     0.036 H 
BRANCH  27  30
ATOM     30  C9  KGM d   1     -20.680  -4.759 -17.697  0.00  0.00    -0.063 C 
ATOM     31  H18 KGM d   1     -21.619  -4.346 -17.300  0.00  0.00     0.033 H 
ATOM     32  H19 KGM d   1     -19.977  -3.939 -17.905  0.00  0.00     0.033 H 
BRANCH  30  33
ATOM     33  C10 KGM d   1     -20.958  -5.531 -18.970  0.00  0.00    -0.065 C 
ATOM     34  H5  KGM d   1     -21.770  -6.250 -18.785  0.00  0.00     0.033 H 
ATOM     35  H6  KGM d   1     -20.049  -6.074 -19.268  0.00  0.00     0.033 H 
BRANCH  33  36
ATOM     36  C11 KGM d   1     -21.367  -4.598 -20.088  0.00  0.00    -0.065 C 
ATOM     37  H25 KGM d   1     -20.549  -3.893 -20.300  0.00  0.00     0.033 H 
ATOM     38  H26 KGM d   1     -22.266  -4.038 -19.792  0.00  0.00     0.033 H 
BRANCH  36  39
ATOM     39  C12 KGM d   1     -21.663  -5.422 -21.323  0.00  0.00    -0.069 C 
ATOM     40  H23 KGM d   1     -20.756  -5.969 -21.621  0.00  0.00     0.032 H 
ATOM     41  H24 KGM d   1     -22.466  -6.139 -21.097  0.00  0.00     0.032 H 
BRANCH  39  42
ATOM     42  C13 KGM d   1     -22.100  -4.524 -22.459  0.00  0.00    -0.077 C 
ATOM     43  H20 KGM d   1     -22.311  -5.135 -23.349  0.00  0.00     0.027 H 
ATOM     44  H21 KGM d   1     -21.298  -3.807 -22.689  0.00  0.00     0.027 H 
ATOM     45  H22 KGM d   1     -23.008  -3.977 -22.166  0.00  0.00     0.027 H 
ENDBRANCH  39  42
ENDBRANCH  36  39
ENDBRANCH  33  36
ENDBRANCH  30  33
ENDBRANCH  27  30
ENDBRANCH  24  27
ENDBRANCH   1  24
TORSDOF 13
