REMARK  13 active torsions:
REMARK  status: ('A' for Active; 'I' for Inactive)
REMARK    1  A    between atoms: C6_2  and  O6_1 
REMARK    2  A    between atoms: C5_3  and  C6_2 
REMARK    3  A    between atoms: C10_4  and  C9_16 
REMARK    4  A    between atoms: C11_19  and  C10_4 
REMARK    5  A    between atoms: C4_6  and  O4_7 
REMARK    6  A    between atoms: C3_8  and  O3_9 
REMARK    7  A    between atoms: C2_10  and  O2_11 
REMARK    8  A    between atoms: O1_13  and  C1_12 
REMARK    9  A    between atoms: C7_14  and  O1_13 
REMARK   10  A    between atoms: C8_15  and  C7_14 
REMARK   11  A    between atoms: C9_16  and  C8_15 
REMARK   12  A    between atoms: C12_18  and  C13_17 
REMARK   13  A    between atoms: C12_18  and  C11_19 
ROOT
ATOM      1  O1  KGM d   1     -57.626  -2.380   1.827  0.00  0.00    -0.359 OA
ENDROOT
BRANCH   1   2
ATOM      2  C1  KGM d   1     -56.820  -3.544   1.850  0.00  0.00     0.158 C 
ATOM      3  O5  KGM d   1     -56.147  -3.699   3.082  0.00  0.00    -0.348 OA
ATOM      4  C5  KGM d   1     -57.002  -3.783   4.199  0.00  0.00     0.089 C 
ATOM      5  C4  KGM d   1     -57.983  -4.962   4.085  0.00  0.00     0.090 C 
ATOM      6  H4  KGM d   1     -57.594  -2.860   4.283  0.00  0.00     0.090 H 
ATOM      7  C3  KGM d   1     -58.765  -4.827   2.754  0.00  0.00     0.092 C 
ATOM      8  H7  KGM d   1     -57.423  -5.909   4.096  0.00  0.00     0.091 H 
ATOM      9  C2  KGM d   1     -57.778  -4.699   1.606  0.00  0.00     0.110 C 
ATOM     10  H9  KGM d   1     -59.398  -3.928   2.790  0.00  0.00     0.091 H 
ATOM     11  H11 KGM d   1     -58.343  -4.518   0.680  0.00  0.00     0.094 H 
ATOM     12  H13 KGM d   1     -56.073  -3.497   1.044  0.00  0.00     0.133 H 
BRANCH   4  13
ATOM     13  C6  KGM d   1     -56.058  -3.886   5.388  0.00  0.00     0.043 C 
ATOM     14  H2  KGM d   1     -55.362  -3.034   5.371  0.00  0.00     0.078 H 
ATOM     15  H3  KGM d   1     -56.645  -3.862   6.318  0.00  0.00     0.078 H 
BRANCH  13  16
ATOM     16  O6  KGM d   1     -55.311  -5.102   5.337  0.00  0.00    -0.398 OA
ATOM     17  H1  KGM d   1     -55.908  -5.840   5.354  0.00  0.00     0.209 HD
ENDBRANCH  13  16
ENDBRANCH   4  13
BRANCH   5  18
ATOM     18  O4  KGM d   1     -58.901  -4.948   5.150  0.00  0.00    -0.390 OA
ATOM     19  H8  KGM d   1     -58.431  -5.017   5.973  0.00  0.00     0.210 HD
ENDBRANCH   5  18
BRANCH   7  20
ATOM     20  O3  KGM d   1     -59.583  -5.965   2.575  0.00  0.00    -0.390 OA
ATOM     21  H10 KGM d   1     -60.063  -5.883   1.759  0.00  0.00     0.210 HD
ENDBRANCH   7  20
BRANCH   9  22
ATOM     22  O2  KGM d   1     -56.992  -5.859   1.449  0.00  0.00    -0.388 OA
ATOM     23  H12 KGM d   1     -57.557  -6.602   1.272  0.00  0.00     0.210 HD
ENDBRANCH   9  22
ENDBRANCH   1   2
BRANCH   1  24
ATOM     24  C7  KGM d   1     -56.877  -1.162   1.994  0.00  0.00     0.023 C 
ATOM     25  H14 KGM d   1     -56.167  -1.054   1.161  0.00  0.00     0.074 H 
ATOM     26  H15 KGM d   1     -56.325  -1.201   2.944  0.00  0.00     0.074 H 
BRANCH  24  27
ATOM     27  C8  KGM d   1     -57.822   0.032   2.009  0.00  0.00    -0.045 C 
ATOM     28  H16 KGM d   1     -58.725  -0.237   2.577  0.00  0.00     0.036 H 
ATOM     29  H17 KGM d   1     -58.100   0.278   0.974  0.00  0.00     0.036 H 
BRANCH  27  30
ATOM     30  C9  KGM d   1     -57.179   1.268   2.656  0.00  0.00    -0.063 C 
ATOM     31  H18 KGM d   1     -56.736   0.994   3.625  0.00  0.00     0.033 H 
ATOM     32  H19 KGM d   1     -56.396   1.670   1.996  0.00  0.00     0.033 H 
BRANCH  30  33
ATOM     33  C10 KGM d   1     -58.271   2.314   2.862  0.00  0.00    -0.065 C 
ATOM     34  H5  KGM d   1     -59.214   1.790   3.077  0.00  0.00     0.033 H 
ATOM     35  H6  KGM d   1     -58.376   2.890   1.931  0.00  0.00     0.033 H 
BRANCH  33  36
ATOM     36  C11 KGM d   1     -58.001   3.284   3.991  0.00  0.00    -0.065 C 
ATOM     37  H25 KGM d   1     -56.980   3.686   3.915  0.00  0.00     0.033 H 
ATOM     38  H26 KGM d   1     -58.127   2.785   4.963  0.00  0.00     0.033 H 
BRANCH  36  39
ATOM     39  C12 KGM d   1     -59.027   4.406   3.832  0.00  0.00    -0.069 C 
ATOM     40  H23 KGM d   1     -58.885   4.874   2.847  0.00  0.00     0.032 H 
ATOM     41  H24 KGM d   1     -60.035   3.970   3.889  0.00  0.00     0.032 H 
BRANCH  39  42
ATOM     42  C13 KGM d   1     -58.902   5.479   4.900  0.00  0.00    -0.077 C 
ATOM     43  H20 KGM d   1     -59.664   6.254   4.732  0.00  0.00     0.027 H 
ATOM     44  H21 KGM d   1     -57.901   5.932   4.849  0.00  0.00     0.027 H 
ATOM     45  H22 KGM d   1     -59.051   5.028   5.892  0.00  0.00     0.027 H 
ENDBRANCH  39  42
ENDBRANCH  36  39
ENDBRANCH  33  36
ENDBRANCH  30  33
ENDBRANCH  27  30
ENDBRANCH  24  27
ENDBRANCH   1  24
TORSDOF 13
