REMARK  2 active torsions:
REMARK  status: ('A' for Active; 'I' for Inactive)
REMARK    1  A    between atoms: CAS_7  and  CAV_8 
REMARK    2  A    between atoms: CAU_16  and  CAR_17 
ROOT
ATOM      1  CAV 43L d   1      13.604   0.049  28.778  0.00  0.00     0.081 C 
ATOM      2  CAK 43L d   1      12.162   0.090  29.030  0.00  0.00    -0.016 C 
ATOM      3  NAW 43L d   1      13.810   0.872  27.613  0.00  0.00    -0.069 N 
ATOM      4  NAN 43L d   1      15.046   1.232  27.095  0.00  0.00    -0.029 NA
ATOM      5  NAL 43L d   1      14.791   1.916  26.072  0.00  0.00    -0.008 NA
ATOM      6  NAM 43L d   1      13.473   2.067  25.801  0.00  0.00     0.065 NA
ATOM      7  CAT 43L d   1      12.821   1.400  26.783  0.00  0.00     0.741 A 
ATOM      8  NAO 43L d   1      11.505   1.178  27.017  0.00  0.00    -0.213 N 
ATOM      9  CAU 43L d   1      11.205   0.044  27.901  0.00  0.00     0.054 C 
ATOM     10  H5  43L d   1      13.866  -0.986  28.512  0.00  0.00     0.084 H 
ATOM     11  H6  43L d   1      11.963   1.024  29.575  0.00  0.00     0.040 H 
ATOM     12  H7  43L d   1      11.930  -0.769  29.677  0.00  0.00     0.040 H 
ATOM     13  H8  43L d   1      10.766   1.764  26.603  0.00  0.00     0.178 HD
ATOM     14  H9  43L d   1      11.471  -0.858  27.331  0.00  0.00     0.081 H 
ENDROOT
BRANCH   1  15
ATOM     15  CAS 43L d   1      14.470   0.404  29.931  0.00  0.00    -0.031 A 
ATOM     16  CAJ 43L d   1      15.133  -0.589  30.597  0.00  0.00    -0.058 A 
ATOM     17  CAQ 43L d   1      15.923  -0.316  31.691  0.00  0.00     0.011 A 
ATOM     18  H1  43L d   1      15.034  -1.613  30.256  0.00  0.00     0.086 H 
ATOM     19 BRB  43L d   1      16.847  -1.758  32.534  0.00  0.00    -0.051 Br
ATOM     20  CAF 43L d   1      16.057   0.959  32.179  0.00  0.00    -0.066 A 
ATOM     21  CAD 43L d   1      15.375   1.977  31.546  0.00  0.00    -0.081 A 
ATOM     22  H2  43L d   1      16.683   1.161  33.040  0.00  0.00     0.085 H 
ATOM     23  CAH 43L d   1      14.584   1.713  30.439  0.00  0.00    -0.075 A 
ATOM     24  H3  43L d   1      15.458   2.992  31.917  0.00  0.00     0.083 H 
ATOM     25  H4  43L d   1      14.047   2.523  29.959  0.00  0.00     0.084 H 
ENDBRANCH   1  15
BRANCH   9  26
ATOM     26  CAR 43L d   1       9.769  -0.150  28.222  0.00  0.00    -0.034 A 
ATOM     27  CAI 43L d   1       9.031   0.970  28.499  0.00  0.00    -0.058 A 
ATOM     28  CAP 43L d   1       7.727   0.852  28.825  0.00  0.00     0.011 A 
ATOM     29  H10 43L d   1       9.494   1.949  28.456  0.00  0.00     0.086 H 
ATOM     30 BRA  43L d   1       6.760   2.405  29.183  0.00  0.00    -0.051 Br
ATOM     31  CAE 43L d   1       7.075  -0.333  28.901  0.00  0.00    -0.066 A 
ATOM     32  CAC 43L d   1       7.803  -1.484  28.626  0.00  0.00    -0.081 A 
ATOM     33  H11 43L d   1       6.025  -0.381  29.166  0.00  0.00     0.085 H 
ATOM     34  CAG 43L d   1       9.136  -1.407  28.316  0.00  0.00    -0.075 A 
ATOM     35  H12 43L d   1       7.313  -2.450  28.657  0.00  0.00     0.083 H 
ATOM     36  H13 43L d   1       9.705  -2.313  28.143  0.00  0.00     0.084 H 
ENDBRANCH   9  26
TORSDOF 2
