REMARK  11 active torsions:
REMARK  status: ('A' for Active; 'I' for Inactive)
REMARK    1  A    between atoms: CBH_9  and  CAK_10 
REMARK    2  A    between atoms: CAK_10  and  CAI_11 
REMARK    3  A    between atoms: CAI_11  and  CAH_12 
REMARK    4  A    between atoms: CAH_12  and  CAJ_13 
REMARK    5  A    between atoms: CAJ_13  and  CAZ_14 
REMARK       I    between atoms: CAZ_14  and  NAV_16 
REMARK    6  A    between atoms: NAV_16  and  SBK_17 
REMARK    7  A    between atoms: SBK_17  and  NAW_20 
REMARK    8  A    between atoms: NAW_20  and  CAN_21 
REMARK    9  A    between atoms: CAN_21  and  CBE_22 
REMARK   10  A    between atoms: CBG_26  and  N9_27 
REMARK   11  A    between atoms: C6_35  and  N6_36 
ROOT
ATOM      1  SBK 44K d   1      -4.032  -4.992   6.231  0.00  0.00     0.321 S 
ATOM      2  OAD 44K d   1      -5.238  -5.411   5.576  0.00  0.00    -0.182 OA
ATOM      3  OAE 44K d   1      -2.955  -4.911   5.272  0.00  0.00    -0.182 OA
ENDROOT
BRANCH   1   4
ATOM      4  NAV 44K d   1      -3.637  -6.030   7.391  0.00  0.00    -0.237 N 
ATOM      5  CAZ 44K d   1      -4.530  -6.440   8.298  0.00  0.00     0.232 C 
ATOM      6  OAB 44K d   1      -5.626  -5.921   8.447  0.00  0.00    -0.273 OA
ATOM      7  H16 44K d   1      -2.701  -6.378   7.436  0.00  0.00     0.183 HD
BRANCH   5   8
ATOM      8  CAJ 44K d   1      -4.137  -7.620   9.159  0.00  0.00     0.010 C 
ATOM      9  H14 44K d   1      -4.909  -8.400   9.084  0.00  0.00     0.047 H 
ATOM     10  H15 44K d   1      -3.174  -8.022   8.810  0.00  0.00     0.047 H 
BRANCH   8  11
ATOM     11  CAH 44K d   1      -4.004  -7.177  10.613  0.00  0.00    -0.057 C 
ATOM     12  H12 44K d   1      -3.191  -6.440  10.686  0.00  0.00     0.033 H 
ATOM     13  H13 44K d   1      -4.950  -6.713  10.930  0.00  0.00     0.033 H 
BRANCH  11  14
ATOM     14  CAI 44K d   1      -3.693  -8.346  11.546  0.00  0.00    -0.064 C 
ATOM     15  H10 44K d   1      -4.566  -9.014  11.582  0.00  0.00     0.033 H 
ATOM     16  H11 44K d   1      -2.826  -8.896  11.151  0.00  0.00     0.033 H 
BRANCH  14  17
ATOM     17  CAK 44K d   1      -3.374  -7.874  12.964  0.00  0.00    -0.051 C 
ATOM     18  H8  44K d   1      -2.360  -7.448  12.985  0.00  0.00     0.034 H 
ATOM     19  H9  44K d   1      -4.101  -7.105  13.262  0.00  0.00     0.034 H 
BRANCH  17  20
ATOM     20  CBH 44K d   1      -3.448  -9.042  13.942  0.00  0.00     0.012 C 
ATOM     21  CBI 44K d   1      -2.253  -9.973  13.799  0.00  0.00     0.046 C 
ATOM     22  NAU 44K d   1      -1.042  -9.232  13.526  0.00  0.00    -0.335 N 
ATOM     23  CBF 44K d   1      -1.927 -10.659  15.122  0.00  0.00     0.042 C 
ATOM     24  H1  44K d   1      -2.455 -10.710  13.008  0.00  0.00     0.077 H 
ATOM     25  CBA 44K d   1      -0.113  -9.451  14.452  0.00  0.00     0.316 C 
ATOM     26  H2  44K d   1      -0.918  -8.629  12.738  0.00  0.00     0.164 HD
ATOM     27  OAC 44K d   1       0.967  -8.874  14.518  0.00  0.00    -0.247 OA
ATOM     28  NAT 44K d   1      -0.523 -10.376  15.312  0.00  0.00    -0.336 N 
ATOM     29  H3  44K d   1       0.059 -10.816  15.996  0.00  0.00     0.164 HD
ATOM     30  CAO 44K d   1      -2.669 -10.026  16.282  0.00  0.00    -0.002 C 
ATOM     31  H4  44K d   1      -2.132 -11.739  15.074  0.00  0.00     0.077 H 
ATOM     32  SAY 44K d   1      -3.420  -8.577  15.642  0.00  0.00    -0.160 SA
ATOM     33  H5  44K d   1      -1.968  -9.768  17.089  0.00  0.00     0.052 H 
ATOM     34  H6  44K d   1      -3.435 -10.715  16.668  0.00  0.00     0.052 H 
ATOM     35  H7  44K d   1      -4.377  -9.594  13.733  0.00  0.00     0.059 H 
ENDBRANCH  17  20
ENDBRANCH  14  17
ENDBRANCH  11  14
ENDBRANCH   8  11
ENDBRANCH   5   8
ENDBRANCH   1   4
BRANCH   1  36
ATOM     36  NAW 44K d   1      -4.287  -3.535   6.842  0.00  0.00    -0.302 N 
ATOM     37  H17 44K d   1      -5.144  -3.066   6.627  0.00  0.00     0.173 HD
BRANCH  36  38
ATOM     38  CAN 44K d   1      -3.323  -2.869   7.696  0.00  0.00     0.007 C 
ATOM     39  H18 44K d   1      -2.307  -3.023   7.305  0.00  0.00     0.065 H 
ATOM     40  H19 44K d   1      -3.387  -3.271   8.718  0.00  0.00     0.065 H 
BRANCH  38  41
ATOM     41  CBE 44K d   1      -3.659  -1.381   7.700  0.00  0.00    -0.036 C 
ATOM     42  CAX 44K d   1      -4.861  -1.127   8.604  0.00  0.00    -0.041 C 
ATOM     43  CBG 44K d   1      -4.593   0.134   9.418  0.00  0.00     0.020 C 
ATOM     44  H21 44K d   1      -5.004  -1.982   9.281  0.00  0.00     0.036 H 
ATOM     45  H22 44K d   1      -5.764  -0.989   7.991  0.00  0.00     0.036 H 
ATOM     46  CAM 44K d   1      -3.158   0.552   9.130  0.00  0.00    -0.045 C 
ATOM     47  H27 44K d   1      -5.297   0.931   9.137  0.00  0.00     0.073 H 
ATOM     48  CAL 44K d   1      -2.529  -0.519   8.249  0.00  0.00    -0.058 C 
ATOM     49  H25 44K d   1      -3.148   1.520   8.607  0.00  0.00     0.036 H 
ATOM     50  H26 44K d   1      -2.597   0.638  10.072  0.00  0.00     0.036 H 
ATOM     51  H23 44K d   1      -1.979  -0.049   7.421  0.00  0.00     0.033 H 
ATOM     52  H24 44K d   1      -1.840  -1.137   8.843  0.00  0.00     0.033 H 
ATOM     53  H20 44K d   1      -3.889  -1.069   6.670  0.00  0.00     0.042 H 
BRANCH  43  54
ATOM     54  N9  44K d   1      -4.710  -0.167  10.865  0.00  0.00    -0.319 N 
ATOM     55  C8  44K d   1      -3.692  -0.237  11.733  0.00  0.00     0.069 A 
ATOM     56  N7  44K d   1      -4.168  -0.534  12.959  0.00  0.00    -0.236 NA
ATOM     57  H28 44K d   1      -2.643  -0.079  11.487  0.00  0.00     0.143 H 
ATOM     58  C5  44K d   1      -5.506  -0.652  12.852  0.00  0.00     0.149 A 
ATOM     59  C4  44K d   1      -5.838  -0.424  11.527  0.00  0.00     0.165 A 
ATOM     60  C6  44K d   1      -6.509  -0.947  13.764  0.00  0.00     0.155 A 
ATOM     61  N3  44K d   1      -7.130  -0.480  11.134  0.00  0.00    -0.222 NA
ATOM     62  C2  44K d   1      -8.078  -0.770  12.036  0.00  0.00     0.091 A 
ATOM     63  N1  44K d   1      -7.782  -0.994  13.324  0.00  0.00    -0.222 NA
ATOM     64  H29 44K d   1      -9.112  -0.825  11.715  0.00  0.00     0.146 H 
BRANCH  60  65
ATOM     65  N6  44K d   1      -6.218  -1.177  15.069  0.00  0.00    -0.382 N 
ATOM     66  H30 44K d   1      -6.973  -1.395  15.734  0.00  0.00     0.157 HD
ATOM     67  H31 44K d   1      -5.242  -1.134  15.394  0.00  0.00     0.157 HD
ENDBRANCH  60  65
ENDBRANCH  43  54
ENDBRANCH  38  41
ENDBRANCH  36  38
ENDBRANCH   1  36
TORSDOF 11
