REMARK  13 active torsions:
REMARK  status: ('A' for Active; 'I' for Inactive)
REMARK    1  A    between atoms: C6_3  and  N6_38 
REMARK    2  A    between atoms: CAK_13  and  CBH_12 
REMARK    3  A    between atoms: CAI_14  and  CAK_13 
REMARK    4  A    between atoms: CAH_15  and  CAI_14 
REMARK    5  A    between atoms: CAJ_16  and  CAH_15 
REMARK    6  A    between atoms: CAZ_17  and  CAJ_16 
REMARK       I    between atoms: NAV_19  and  CAZ_17 
REMARK    7  A    between atoms: SBK_20  and  NAV_19 
REMARK    8  A    between atoms: NAW_23  and  SBK_20 
REMARK    9  A    between atoms: CAN_24  and  NAW_23 
REMARK   10  A    between atoms: CBE_25  and  CAN_24 
REMARK   11  A    between atoms: CAL_27  and  OAL_28 
REMARK   12  A    between atoms: N8Q_40  and  CAM_29 
REMARK   13  A    between atoms: CBG_30  and  N9_31 
ROOT
ATOM      1  N2  44M d   1      -4.703   1.635   5.963  0.00  0.00     0.068 N 
ATOM      2  N5  44M d   1      -4.020   1.732   6.894  0.00  0.00    -0.167 NA
ATOM      3  N8Q 44M d   1      -3.222   1.846   8.011  0.00  0.00    -0.103 NA
ENDROOT
BRANCH   3   4
ATOM      4  CAM 44M d   1      -3.066   0.715   8.909  0.00  0.00     0.135 C 
ATOM      5  CAL 44M d   1      -2.312  -0.411   8.232  0.00  0.00     0.090 C 
ATOM      6  CBE 44M d   1      -3.415  -1.307   7.696  0.00  0.00     0.084 C 
ATOM      7  H21 44M d   1      -1.676  -0.951   8.949  0.00  0.00     0.090 H 
ATOM      8  OAX 44M d   1      -4.530  -1.118   8.571  0.00  0.00    -0.354 OA
ATOM      9  H20 44M d   1      -3.683  -0.970   6.684  0.00  0.00     0.090 H 
ATOM     10  CBG 44M d   1      -4.428   0.134   9.256  0.00  0.00     0.139 C 
ATOM     11  H24 44M d   1      -5.228   0.817   8.935  0.00  0.00     0.122 H 
ATOM     12  H23 44M d   1      -2.539   1.038   9.819  0.00  0.00     0.091 H 
BRANCH   5  13
ATOM     13  OAL 44M d   1      -1.510   0.098   7.163  0.00  0.00    -0.391 OA
ATOM     14  H22 44M d   1      -0.827   0.655   7.518  0.00  0.00     0.210 HD
ENDBRANCH   5  13
BRANCH   6  15
ATOM     15  CAN 44M d   1      -3.036  -2.782   7.611  0.00  0.00     0.031 C 
ATOM     16  H18 44M d   1      -2.260  -2.926   6.845  0.00  0.00     0.069 H 
ATOM     17  H19 44M d   1      -2.659  -3.129   8.584  0.00  0.00     0.069 H 
BRANCH  15  18
ATOM     18  NAW 44M d   1      -4.249  -3.533   7.245  0.00  0.00    -0.300 N 
ATOM     19  H17 44M d   1      -5.179  -3.237   7.462  0.00  0.00     0.173 HD
BRANCH  18  20
ATOM     20  SBK 44M d   1      -3.894  -4.890   6.452  0.00  0.00     0.321 S 
ATOM     21  OAD 44M d   1      -5.032  -5.261   5.657  0.00  0.00    -0.182 OA
ATOM     22  OAE 44M d   1      -2.771  -4.672   5.586  0.00  0.00    -0.182 OA
BRANCH  20  23
ATOM     23  NAV 44M d   1      -3.563  -6.016   7.421  0.00  0.00    -0.237 N 
ATOM     24  CAZ 44M d   1      -4.442  -6.398   8.346  0.00  0.00     0.232 C 
ATOM     25  OAB 44M d   1      -5.537  -5.872   8.472  0.00  0.00    -0.273 OA
ATOM     26  H16 44M d   1      -2.676  -6.474   7.363  0.00  0.00     0.183 HD
BRANCH  24  27
ATOM     27  CAJ 44M d   1      -4.023  -7.538   9.248  0.00  0.00     0.010 C 
ATOM     28  H14 44M d   1      -4.853  -8.256   9.318  0.00  0.00     0.047 H 
ATOM     29  H15 44M d   1      -3.146  -8.034   8.806  0.00  0.00     0.047 H 
BRANCH  27  30
ATOM     30  CAH 44M d   1      -3.663  -7.067  10.653  0.00  0.00    -0.057 C 
ATOM     31  H12 44M d   1      -2.711  -6.517  10.622  0.00  0.00     0.033 H 
ATOM     32  H13 44M d   1      -4.457  -6.406  11.032  0.00  0.00     0.033 H 
BRANCH  30  33
ATOM     33  CAI 44M d   1      -3.522  -8.272  11.578  0.00  0.00    -0.064 C 
ATOM     34  H10 44M d   1      -4.464  -8.839  11.565  0.00  0.00     0.033 H 
ATOM     35  H11 44M d   1      -2.706  -8.909  11.206  0.00  0.00     0.033 H 
BRANCH  33  36
ATOM     36  CAK 44M d   1      -3.213  -7.870  13.016  0.00  0.00    -0.051 C 
ATOM     37  H8  44M d   1      -2.196  -7.453  13.066  0.00  0.00     0.034 H 
ATOM     38  H9  44M d   1      -3.937  -7.110  13.344  0.00  0.00     0.034 H 
BRANCH  36  39
ATOM     39  CBH 44M d   1      -3.305  -9.082  13.937  0.00  0.00     0.012 C 
ATOM     40  CBI 44M d   1      -2.117 -10.037  13.826  0.00  0.00     0.046 A 
ATOM     41  NAU 44M d   1      -0.950  -9.203  13.570  0.00  0.00    -0.335 N 
ATOM     42  CBF 44M d   1      -1.774 -10.660  15.195  0.00  0.00     0.042 A 
ATOM     43  H1  44M d   1      -2.285 -10.800  13.052  0.00  0.00     0.077 H 
ATOM     44  CBA 44M d   1      -0.019  -9.328  14.502  0.00  0.00     0.316 A 
ATOM     45  H2  44M d   1      -0.862  -8.601  12.776  0.00  0.00     0.164 HD
ATOM     46  OAC 44M d   1       1.064  -8.762  14.497  0.00  0.00    -0.247 OA
ATOM     47  NAT 44M d   1      -0.431 -10.159  15.443  0.00  0.00    -0.336 N 
ATOM     48  H3  44M d   1       0.119 -10.415  16.238  0.00  0.00     0.164 HD
ATOM     49  CAO 44M d   1      -2.615 -10.057  16.317  0.00  0.00    -0.002 C 
ATOM     50  H4  44M d   1      -1.841 -11.758  15.179  0.00  0.00     0.077 H 
ATOM     51  SAY 44M d   1      -3.309  -8.603  15.626  0.00  0.00    -0.160 SA
ATOM     52  H5  44M d   1      -1.985  -9.811  17.184  0.00  0.00     0.052 H 
ATOM     53  H6  44M d   1      -3.407 -10.755  16.626  0.00  0.00     0.052 H 
ATOM     54  H7  44M d   1      -4.233  -9.622  13.697  0.00  0.00     0.059 H 
ENDBRANCH  36  39
ENDBRANCH  33  36
ENDBRANCH  30  33
ENDBRANCH  27  30
ENDBRANCH  24  27
ENDBRANCH  20  23
ENDBRANCH  18  20
ENDBRANCH  15  18
ENDBRANCH   6  15
BRANCH  10  55
ATOM     55  N9  44M d   1      -4.527  -0.109  10.716  0.00  0.00    -0.294 N 
ATOM     56  C4  44M d   1      -5.663  -0.324  11.383  0.00  0.00     0.167 A 
ATOM     57  C5  44M d   1      -5.339  -0.520  12.714  0.00  0.00     0.149 A 
ATOM     58  N3  44M d   1      -6.958  -0.373  10.994  0.00  0.00    -0.222 NA
ATOM     59  C6  44M d   1      -6.358  -0.762  13.624  0.00  0.00     0.155 A 
ATOM     60  N7  44M d   1      -3.997  -0.421  12.821  0.00  0.00    -0.236 NA
ATOM     61  N1  44M d   1      -7.635  -0.799  13.187  0.00  0.00    -0.222 NA
ATOM     62  C2  44M d   1      -7.921  -0.608  11.892  0.00  0.00     0.091 A 
ATOM     63  H26 44M d   1      -8.954  -0.645  11.565  0.00  0.00     0.146 H 
ATOM     64  C8  44M d   1      -3.507  -0.172  11.585  0.00  0.00     0.071 A 
ATOM     65  H25 44M d   1      -2.455  -0.043  11.336  0.00  0.00     0.144 H 
BRANCH  59  66
ATOM     66  N6  44M d   1      -6.082  -0.959  14.936  0.00  0.00    -0.382 N 
ATOM     67  H27 44M d   1      -6.847  -1.138  15.602  0.00  0.00     0.157 HD
ATOM     68  H28 44M d   1      -5.107  -0.930  15.267  0.00  0.00     0.157 HD
ENDBRANCH  59  66
ENDBRANCH  10  55
ENDBRANCH   3   4
TORSDOF 13
