REMARK  13 active torsions:
REMARK  status: ('A' for Active; 'I' for Inactive)
REMARK    1  A    between atoms: CAK_10  and  CBH_9 
REMARK    2  A    between atoms: CAI_11  and  CAK_10 
REMARK    3  A    between atoms: CAH_12  and  CAI_11 
REMARK    4  A    between atoms: CAJ_13  and  CAH_12 
REMARK    5  A    between atoms: CAZ_14  and  CAJ_13 
REMARK       I    between atoms: NAV_16  and  CAZ_14 
REMARK    6  A    between atoms: SBK_17  and  NAV_16 
REMARK    7  A    between atoms: OAW_20  and  SBK_17 
REMARK    8  A    between atoms: CAN_21  and  OAW_20 
REMARK    9  A    between atoms: CBE_22  and  CAN_21 
REMARK   10  A    between atoms: CAL_24  and  OAL_25 
REMARK   11  A    between atoms: N8Q_40  and  CAM_26 
REMARK   12  A    between atoms: CBG_27  and  N9_28 
REMARK   13  A    between atoms: C6_36  and  N6_37 
ROOT
ATOM      1  N5  590 d   1      -0.719   0.953  11.045  0.00  0.00     0.068 N 
ATOM      2  N2  590 d   1      -1.713   1.278  10.547  0.00  0.00    -0.167 NA
ATOM      3  N8Q 590 d   1      -2.894   1.708   9.986  0.00  0.00    -0.103 NA
ENDROOT
BRANCH   3   4
ATOM      4  CAM 590 d   1      -3.567   0.926   8.968  0.00  0.00     0.135 C 
ATOM      5  CAL 590 d   1      -2.711  -0.225   8.486  0.00  0.00     0.091 C 
ATOM      6  CBE 590 d   1      -3.737  -1.191   7.919  0.00  0.00     0.090 C 
ATOM      7  H20 590 d   1      -2.144  -0.679   9.312  0.00  0.00     0.090 H 
ATOM      8  OAX 590 d   1      -4.947  -0.959   8.651  0.00  0.00    -0.354 OA
ATOM      9  H19 590 d   1      -3.906  -0.941   6.861  0.00  0.00     0.090 H 
ATOM     10  CBG 590 d   1      -4.877   0.260   9.399  0.00  0.00     0.139 C 
ATOM     11  H23 590 d   1      -5.713   0.922   9.129  0.00  0.00     0.122 H 
ATOM     12  H22 590 d   1      -3.778   1.603   8.127  0.00  0.00     0.091 H 
BRANCH   5  13
ATOM     13  OAL 590 d   1      -1.815   0.210   7.462  0.00  0.00    -0.391 OA
ATOM     14  H21 590 d   1      -1.181   0.812   7.833  0.00  0.00     0.210 HD
ENDBRANCH   5  13
BRANCH   6  15
ATOM     15  CAN 590 d   1      -3.307  -2.658   7.979  0.00  0.00     0.066 C 
ATOM     16  H17 590 d   1      -2.388  -2.796   7.390  0.00  0.00     0.080 H 
ATOM     17  H18 590 d   1      -3.119  -2.944   9.024  0.00  0.00     0.080 H 
BRANCH  15  18
ATOM     18  OAW 590 d   1      -4.347  -3.476   7.440  0.00  0.00    -0.257 OA
BRANCH  18  19
ATOM     19  SBK 590 d   1      -4.036  -4.755   6.646  0.00  0.00     0.364 S 
ATOM     20  OAD 590 d   1      -5.153  -5.059   5.796  0.00  0.00    -0.175 OA
ATOM     21  OAE 590 d   1      -2.878  -4.532   5.826  0.00  0.00    -0.175 OA
BRANCH  19  22
ATOM     22  NAV 590 d   1      -3.763  -5.924   7.585  0.00  0.00    -0.231 N 
ATOM     23  CAZ 590 d   1      -4.707  -6.397   8.398  0.00  0.00     0.232 C 
ATOM     24  OAB 590 d   1      -5.835  -5.935   8.453  0.00  0.00    -0.273 OA
ATOM     25  H16 590 d   1      -2.856  -6.345   7.591  0.00  0.00     0.183 HD
BRANCH  23  26
ATOM     26  CAJ 590 d   1      -4.326  -7.564   9.278  0.00  0.00     0.010 C 
ATOM     27  H14 590 d   1      -5.198  -8.225   9.392  0.00  0.00     0.047 H 
ATOM     28  H15 590 d   1      -3.505  -8.119   8.801  0.00  0.00     0.047 H 
BRANCH  26  29
ATOM     29  CAH 590 d   1      -3.874  -7.099  10.656  0.00  0.00    -0.057 C 
ATOM     30  H12 590 d   1      -2.911  -6.574  10.569  0.00  0.00     0.033 H 
ATOM     31  H13 590 d   1      -4.626  -6.417  11.079  0.00  0.00     0.033 H 
BRANCH  29  32
ATOM     32  CAI 590 d   1      -3.714  -8.308  11.568  0.00  0.00    -0.064 C 
ATOM     33  H10 590 d   1      -4.654  -8.879  11.568  0.00  0.00     0.033 H 
ATOM     34  H11 590 d   1      -2.901  -8.940  11.180  0.00  0.00     0.033 H 
BRANCH  32  35
ATOM     35  CAK 590 d   1      -3.383  -7.907  13.000  0.00  0.00    -0.051 C 
ATOM     36  H8  590 d   1      -2.361  -7.501  13.033  0.00  0.00     0.034 H 
ATOM     37  H9  590 d   1      -4.095  -7.137  13.332  0.00  0.00     0.034 H 
BRANCH  35  38
ATOM     38  CBH 590 d   1      -3.473  -9.105  13.936  0.00  0.00     0.012 C 
ATOM     39  CBI 590 d   1      -2.270 -10.040  13.858  0.00  0.00     0.046 A 
ATOM     40  NAU 590 d   1      -1.120  -9.186  13.594  0.00  0.00    -0.335 N 
ATOM     41  CBF 590 d   1      -1.923 -10.618  15.246  0.00  0.00     0.042 A 
ATOM     42  H1  590 d   1      -2.416 -10.825  13.102  0.00  0.00     0.077 H 
ATOM     43  CBA 590 d   1      -0.173  -9.313  14.510  0.00  0.00     0.316 A 
ATOM     44  H2  590 d   1      -1.053  -8.572  12.808  0.00  0.00     0.164 HD
ATOM     45  OAC 590 d   1       0.918  -8.767  14.469  0.00  0.00    -0.247 OA
ATOM     46  NAT 590 d   1      -0.576 -10.120  15.474  0.00  0.00    -0.336 N 
ATOM     47  H3  590 d   1      -0.019 -10.361  16.269  0.00  0.00     0.164 HD
ATOM     48  CAO 590 d   1      -2.750  -9.968  16.351  0.00  0.00    -0.002 C 
ATOM     49  H4  590 d   1      -1.999 -11.715  15.269  0.00  0.00     0.077 H 
ATOM     50  SAY 590 d   1      -3.484  -8.563  15.603  0.00  0.00    -0.160 SA
ATOM     51  H5  590 d   1      -2.105  -9.667  17.190  0.00  0.00     0.052 H 
ATOM     52  H6  590 d   1      -3.523 -10.661  16.713  0.00  0.00     0.052 H 
ATOM     53  H7  590 d   1      -4.393  -9.662  13.705  0.00  0.00     0.059 H 
ENDBRANCH  35  38
ENDBRANCH  32  35
ENDBRANCH  29  32
ENDBRANCH  26  29
ENDBRANCH  23  26
ENDBRANCH  19  22
ENDBRANCH  18  19
ENDBRANCH  15  18
ENDBRANCH   6  15
BRANCH  10  54
ATOM     54  N9  590 d   1      -5.004  -0.079  10.848  0.00  0.00    -0.294 N 
ATOM     55  C8  590 d   1      -4.028  -0.246  11.753  0.00  0.00     0.071 A 
ATOM     56  N7  590 d   1      -4.569  -0.555  12.951  0.00  0.00    -0.236 NA
ATOM     57  H24 590 d   1      -2.962  -0.147  11.552  0.00  0.00     0.144 H 
ATOM     58  C5  590 d   1      -5.905  -0.602  12.791  0.00  0.00     0.149 A 
ATOM     59  C4  590 d   1      -6.170  -0.307  11.465  0.00  0.00     0.167 A 
ATOM     60  C6  590 d   1      -6.962  -0.873  13.651  0.00  0.00     0.155 A 
ATOM     61  N3  590 d   1      -7.454  -0.286  11.033  0.00  0.00    -0.222 NA
ATOM     62  C2  590 d   1      -8.455  -0.553  11.880  0.00  0.00     0.091 A 
ATOM     63  N1  590 d   1      -8.222  -0.839  13.169  0.00  0.00    -0.222 NA
ATOM     64  H25 590 d   1      -9.476  -0.538  11.516  0.00  0.00     0.146 H 
BRANCH  60  65
ATOM     65  N6  590 d   1      -6.741  -1.168  14.955  0.00  0.00    -0.382 N 
ATOM     66  H26 590 d   1      -7.535  -1.367  15.580  0.00  0.00     0.157 HD
ATOM     67  H27 590 d   1      -5.779  -1.194  15.321  0.00  0.00     0.157 HD
ENDBRANCH  60  65
ENDBRANCH  10  54
ENDBRANCH   3   4
TORSDOF 13
