REMARK  12 active torsions:
REMARK  status: ('A' for Active; 'I' for Inactive)
REMARK    1  A    between atoms: C6_37  and  N6_2 
REMARK    2  A    between atoms: CBG_32  and  N9_4 
REMARK    3  A    between atoms: CAK_15  and  CBH_14 
REMARK    4  A    between atoms: CAI_16  and  CAK_15 
REMARK    5  A    between atoms: CAH_17  and  CAI_16 
REMARK    6  A    between atoms: CAJ_18  and  CAH_17 
REMARK    7  A    between atoms: CAZ_19  and  CAJ_18 
REMARK       I    between atoms: NAV_21  and  CAZ_19 
REMARK    8  A    between atoms: SBK_22  and  NAV_21 
REMARK    9  A    between atoms: NAW_25  and  SBK_22 
REMARK   10  A    between atoms: CAN_26  and  NAW_25 
REMARK   11  A    between atoms: CBE_27  and  CAN_26 
REMARK   12  A    between atoms: CAL_29  and  OAL_30 
ROOT
ATOM      1  SBK 44L d   1      -3.971  -4.879   6.276  0.00  0.00     0.321 S 
ATOM      2  OAD 44L d   1      -5.180  -5.253   5.589  0.00  0.00    -0.182 OA
ATOM      3  OAE 44L d   1      -2.892  -4.735   5.341  0.00  0.00    -0.182 OA
ENDROOT
BRANCH   1   4
ATOM      4  NAV 44L d   1      -3.561  -5.970   7.387  0.00  0.00    -0.237 N 
ATOM      5  CAZ 44L d   1      -4.462  -6.397   8.268  0.00  0.00     0.232 C 
ATOM      6  OAB 44L d   1      -5.532  -5.844   8.394  0.00  0.00    -0.273 OA
ATOM      7  H19 44L d   1      -2.627  -6.327   7.415  0.00  0.00     0.183 HD
BRANCH   5   8
ATOM      8  CAJ 44L d   1      -4.089  -7.586   9.146  0.00  0.00     0.010 C 
ATOM      9  H17 44L d   1      -4.880  -8.348   9.082  0.00  0.00     0.047 H 
ATOM     10  H18 44L d   1      -3.138  -8.014   8.795  0.00  0.00     0.047 H 
BRANCH   8  11
ATOM     11  CAH 44L d   1      -3.937  -7.137  10.594  0.00  0.00    -0.057 C 
ATOM     12  H15 44L d   1      -3.105  -6.420  10.653  0.00  0.00     0.033 H 
ATOM     13  H16 44L d   1      -4.869  -6.644  10.908  0.00  0.00     0.033 H 
BRANCH  11  14
ATOM     14  CAI 44L d   1      -3.652  -8.293  11.550  0.00  0.00    -0.064 C 
ATOM     15  H13 44L d   1      -4.506  -8.986  11.535  0.00  0.00     0.033 H 
ATOM     16  H14 44L d   1      -2.747  -8.819  11.212  0.00  0.00     0.033 H 
BRANCH  14  17
ATOM     17  CAK 44L d   1      -3.437  -7.809  12.975  0.00  0.00    -0.051 C 
ATOM     18  H11 44L d   1      -2.495  -7.244  13.027  0.00  0.00     0.034 H 
ATOM     19  H12 44L d   1      -4.273  -7.155  13.265  0.00  0.00     0.034 H 
BRANCH  17  20
ATOM     20  CBH 44L d   1      -3.367  -8.992  13.937  0.00  0.00     0.012 C 
ATOM     21  CBI 44L d   1      -2.154  -9.910  13.748  0.00  0.00     0.046 A 
ATOM     22  NAU 44L d   1      -0.924  -9.175  13.497  0.00  0.00    -0.335 N 
ATOM     23  CBF 44L d   1      -1.844 -10.625  15.075  0.00  0.00     0.042 A 
ATOM     24  H4  44L d   1      -2.357 -10.626  12.938  0.00  0.00     0.077 H 
ATOM     25  CBA 44L d   1      -0.013  -9.375  14.456  0.00  0.00     0.316 A 
ATOM     26  H5  44L d   1      -0.777  -8.589  12.700  0.00  0.00     0.164 HD
ATOM     27  OAC 44L d   1       1.074  -8.802  14.529  0.00  0.00    -0.247 OA
ATOM     28  NAT 44L d   1      -0.467 -10.265  15.341  0.00  0.00    -0.336 N 
ATOM     29  H6  44L d   1       0.076 -10.637  16.094  0.00  0.00     0.164 HD
ATOM     30  CAO 44L d   1      -2.738 -10.098  16.205  0.00  0.00    -0.002 C 
ATOM     31  H7  44L d   1      -1.964 -11.714  14.977  0.00  0.00     0.077 H 
ATOM     32  SAY 44L d   1      -3.263  -8.516  15.634  0.00  0.00    -0.160 SA
ATOM     33  H8  44L d   1      -2.170 -10.006  17.142  0.00  0.00     0.052 H 
ATOM     34  H9  44L d   1      -3.600 -10.762  16.363  0.00  0.00     0.052 H 
ATOM     35  H10 44L d   1      -4.284  -9.581  13.785  0.00  0.00     0.059 H 
ENDBRANCH  17  20
ENDBRANCH  14  17
ENDBRANCH  11  14
ENDBRANCH   8  11
ENDBRANCH   5   8
ENDBRANCH   1   4
BRANCH   1  36
ATOM     36  NAW 44L d   1      -4.248  -3.485   7.015  0.00  0.00    -0.300 N 
ATOM     37  H20 44L d   1      -5.181  -3.129   7.073  0.00  0.00     0.173 HD
BRANCH  36  38
ATOM     38  CAN 44L d   1      -3.150  -2.737   7.601  0.00  0.00     0.031 C 
ATOM     39  H21 44L d   1      -2.268  -2.803   6.948  0.00  0.00     0.069 H 
ATOM     40  H22 44L d   1      -2.906  -3.153   8.590  0.00  0.00     0.069 H 
BRANCH  38  41
ATOM     41  CBE 44L d   1      -3.569  -1.280   7.748  0.00  0.00     0.084 C 
ATOM     42  OAX 44L d   1      -4.671  -1.085   8.639  0.00  0.00    -0.354 OA
ATOM     43  CBG 44L d   1      -4.567   0.192   9.294  0.00  0.00     0.144 C 
ATOM     44  CAM 44L d   1      -3.247   0.793   8.829  0.00  0.00     0.148 C 
ATOM     45  H27 44L d   1      -5.400   0.854   9.014  0.00  0.00     0.123 H 
ATOM     46  CAL 44L d   1      -2.471  -0.398   8.310  0.00  0.00     0.096 C 
ATOM     47  F1  44L d   1      -3.562   1.562   7.733  0.00  0.00    -0.242 F 
ATOM     48  H26 44L d   1      -2.716   1.354   9.612  0.00  0.00     0.102 H 
ATOM     49  H24 44L d   1      -1.933  -0.899   9.128  0.00  0.00     0.091 H 
ATOM     50  H23 44L d   1      -3.848  -0.917   6.748  0.00  0.00     0.090 H 
BRANCH  43  51
ATOM     51  N9  44L d   1      -4.604  -0.071  10.740  0.00  0.00    -0.293 N 
ATOM     52  C4  44L d   1      -5.738  -0.308  11.399  0.00  0.00     0.167 A 
ATOM     53  C5  44L d   1      -5.414  -0.545  12.717  0.00  0.00     0.149 A 
ATOM     54  N3  44L d   1      -7.024  -0.310  10.984  0.00  0.00    -0.222 NA
ATOM     55  N7  44L d   1      -4.062  -0.471  12.825  0.00  0.00    -0.236 NA
ATOM     56  C6  44L d   1      -6.445  -0.809  13.614  0.00  0.00     0.155 A 
ATOM     57  C8  44L d   1      -3.568  -0.190  11.594  0.00  0.00     0.071 A 
ATOM     58  H3  44L d   1      -2.515  -0.079  11.339  0.00  0.00     0.144 H 
ATOM     59  N1  44L d   1      -7.720  -0.815  13.159  0.00  0.00    -0.222 NA
ATOM     60  C2  44L d   1      -8.000  -0.571  11.871  0.00  0.00     0.091 A 
ATOM     61  H28 44L d   1      -9.032  -0.584  11.539  0.00  0.00     0.146 H 
BRANCH  56  62
ATOM     62  N6  44L d   1      -6.195  -1.064  14.922  0.00  0.00    -0.382 N 
ATOM     63  H1  44L d   1      -6.974  -1.257  15.567  0.00  0.00     0.157 HD
ATOM     64  H2  44L d   1      -5.226  -1.065  15.270  0.00  0.00     0.157 HD
ENDBRANCH  56  62
ENDBRANCH  43  51
BRANCH  46  65
ATOM     65  OAL 44L d   1      -1.541  -0.051   7.274  0.00  0.00    -0.390 OA
ATOM     66  H25 44L d   1      -1.997   0.418   6.585  0.00  0.00     0.210 HD
ENDBRANCH  46  65
ENDBRANCH  38  41
ENDBRANCH  36  38
ENDBRANCH   1  36
TORSDOF 12
