REMARK  12 active torsions:
REMARK  status: ('A' for Active; 'I' for Inactive)
REMARK    1  A    between atoms: CBH_9  and  CAK_10 
REMARK    2  A    between atoms: CAK_10  and  CAI_11 
REMARK    3  A    between atoms: CAI_11  and  CAH_12 
REMARK    4  A    between atoms: CAH_12  and  CAJ_13 
REMARK    5  A    between atoms: CAJ_13  and  CAZ_14 
REMARK       I    between atoms: CAZ_14  and  NAV_16 
REMARK    6  A    between atoms: NAV_16  and  SBK_17 
REMARK    7  A    between atoms: SBK_17  and  OAW_20 
REMARK    8  A    between atoms: OAW_20  and  CAN_21 
REMARK    9  A    between atoms: CAN_21  and  CBE_22 
REMARK   10  A    between atoms: CAL_24  and  OAL_25 
REMARK   11  A    between atoms: CBG_28  and  N9_29 
REMARK   12  A    between atoms: C6_37  and  N6_38 
ROOT
ATOM      1  SBK 594 d   1      -4.083  -4.968   6.403  0.00  0.00     0.364 S 
ATOM      2  OAD 594 d   1      -5.266  -5.380   5.700  0.00  0.00    -0.175 OA
ATOM      3  OAE 594 d   1      -3.005  -4.791   5.471  0.00  0.00    -0.175 OA
ENDROOT
BRANCH   1   4
ATOM      4  NAV 594 d   1      -3.687  -6.075   7.490  0.00  0.00    -0.231 N 
ATOM      5  CAZ 594 d   1      -4.593  -6.512   8.360  0.00  0.00     0.232 C 
ATOM      6  OAB 594 d   1      -5.695  -6.001   8.482  0.00  0.00    -0.273 OA
ATOM      7  H16 594 d   1      -2.756  -6.439   7.515  0.00  0.00     0.183 HD
BRANCH   5   8
ATOM      8  CAJ 594 d   1      -4.189  -7.680   9.228  0.00  0.00     0.010 C 
ATOM      9  H14 594 d   1      -5.006  -8.416   9.256  0.00  0.00     0.047 H 
ATOM     10  H15 594 d   1      -3.285  -8.150   8.813  0.00  0.00     0.047 H 
BRANCH   8  11
ATOM     11  CAH 594 d   1      -3.901  -7.186  10.643  0.00  0.00    -0.057 C 
ATOM     12  H12 594 d   1      -3.040  -6.502  10.617  0.00  0.00     0.033 H 
ATOM     13  H13 594 d   1      -4.783  -6.651  11.024  0.00  0.00     0.033 H 
BRANCH  11  14
ATOM     14  CAI 594 d   1      -3.585  -8.352  11.572  0.00  0.00    -0.064 C 
ATOM     15  H10 594 d   1      -4.445  -9.037  11.584  0.00  0.00     0.033 H 
ATOM     16  H11 594 d   1      -2.701  -8.881  11.187  0.00  0.00     0.033 H 
BRANCH  14  17
ATOM     17  CAK 594 d   1      -3.301  -7.896  12.999  0.00  0.00    -0.051 C 
ATOM     18  H8  594 d   1      -2.286  -7.475  13.057  0.00  0.00     0.034 H 
ATOM     19  H9  594 d   1      -4.033  -7.130  13.294  0.00  0.00     0.034 H 
BRANCH  17  20
ATOM     20  CBH 594 d   1      -3.411  -9.095  13.932  0.00  0.00     0.012 C 
ATOM     21  CBI 594 d   1      -2.212 -10.030  13.817  0.00  0.00     0.046 C 
ATOM     22  NAU 594 d   1      -0.993  -9.298  13.528  0.00  0.00    -0.335 N 
ATOM     23  CBF 594 d   1      -1.888 -10.690  15.159  0.00  0.00     0.042 C 
ATOM     24  H1  594 d   1      -2.413 -10.785  13.043  0.00  0.00     0.077 H 
ATOM     25  CBA 594 d   1      -0.061  -9.509  14.454  0.00  0.00     0.316 C 
ATOM     26  H2  594 d   1      -0.869  -8.707  12.731  0.00  0.00     0.164 HD
ATOM     27  OAC 594 d   1       1.030  -8.958  14.497  0.00  0.00    -0.247 OA
ATOM     28  NAT 594 d   1      -0.486 -10.392  15.346  0.00  0.00    -0.336 N 
ATOM     29  H3  594 d   1       0.088 -10.799  16.056  0.00  0.00     0.164 HD
ATOM     30  CAO 594 d   1      -2.646 -10.048  16.310  0.00  0.00    -0.002 C 
ATOM     31  H4  594 d   1      -2.083 -11.772  15.128  0.00  0.00     0.077 H 
ATOM     32  SAY 594 d   1      -3.436  -8.637  15.629  0.00  0.00    -0.160 SA
ATOM     33  H5  594 d   1      -1.951  -9.750  17.109  0.00  0.00     0.052 H 
ATOM     34  H6  594 d   1      -3.392 -10.747  16.715  0.00  0.00     0.052 H 
ATOM     35  H7  594 d   1      -4.333  -9.639  13.681  0.00  0.00     0.059 H 
ENDBRANCH  17  20
ENDBRANCH  14  17
ENDBRANCH  11  14
ENDBRANCH   8  11
ENDBRANCH   5   8
ENDBRANCH   1   4
BRANCH   1  36
ATOM     36  OAW 594 d   1      -4.360  -3.652   7.145  0.00  0.00    -0.257 OA
BRANCH  36  37
ATOM     37  CAN 594 d   1      -3.296  -2.876   7.695  0.00  0.00     0.066 C 
ATOM     38  H17 594 d   1      -2.400  -2.978   7.066  0.00  0.00     0.080 H 
ATOM     39  H18 594 d   1      -3.071  -3.225   8.713  0.00  0.00     0.080 H 
BRANCH  37  40
ATOM     40  CBE 594 d   1      -3.729  -1.416   7.738  0.00  0.00     0.090 C 
ATOM     41  OAX 594 d   1      -4.872  -1.211   8.582  0.00  0.00    -0.353 OA
ATOM     42  CBG 594 d   1      -4.759   0.033   9.290  0.00  0.00     0.144 C 
ATOM     43  CAM 594 d   1      -3.475   0.685   8.780  0.00  0.00     0.148 C 
ATOM     44  H23 594 d   1      -5.610   0.685   9.044  0.00  0.00     0.123 H 
ATOM     45  CAL 594 d   1      -2.654  -0.478   8.260  0.00  0.00     0.096 C 
ATOM     46  F8Q 594 d   1      -2.814   1.435   9.718  0.00  0.00    -0.242 F 
ATOM     47  H22 594 d   1      -3.723   1.355   7.944  0.00  0.00     0.102 H 
ATOM     48  H20 594 d   1      -2.066  -0.945   9.064  0.00  0.00     0.091 H 
ATOM     49  H19 594 d   1      -3.986  -1.119   6.711  0.00  0.00     0.090 H 
BRANCH  42  50
ATOM     50  N9  594 d   1      -4.787  -0.234  10.756  0.00  0.00    -0.293 N 
ATOM     51  C8  594 d   1      -3.752  -0.334  11.608  0.00  0.00     0.071 A 
ATOM     52  N7  594 d   1      -4.216  -0.596  12.851  0.00  0.00    -0.236 NA
ATOM     53  H24 594 d   1      -2.703  -0.222  11.339  0.00  0.00     0.144 H 
ATOM     54  C5  594 d   1      -5.561  -0.669  12.767  0.00  0.00     0.149 A 
ATOM     55  C4  594 d   1      -5.908  -0.446  11.448  0.00  0.00     0.167 A 
ATOM     56  C6  594 d   1      -6.565  -0.913  13.694  0.00  0.00     0.155 A 
ATOM     57  N3  594 d   1      -7.212  -0.464  11.084  0.00  0.00    -0.222 NA
ATOM     58  C2  594 d   1      -8.160  -0.704  11.997  0.00  0.00     0.091 A 
ATOM     59  N1  594 d   1      -7.852  -0.922  13.282  0.00  0.00    -0.222 NA
ATOM     60  H25 594 d   1      -9.200  -0.722  11.690  0.00  0.00     0.146 H 
BRANCH  56  61
ATOM     61  N6  594 d   1      -6.262  -1.138  14.995  0.00  0.00    -0.382 N 
ATOM     62  H26 594 d   1      -7.014  -1.318  15.675  0.00  0.00     0.157 HD
ATOM     63  H27 594 d   1      -5.279  -1.129  15.304  0.00  0.00     0.157 HD
ENDBRANCH  56  61
ENDBRANCH  42  50
BRANCH  45  64
ATOM     64  OAL 594 d   1      -1.784  -0.073   7.202  0.00  0.00    -0.390 OA
ATOM     65  H21 594 d   1      -1.119   0.512   7.546  0.00  0.00     0.210 HD
ENDBRANCH  45  64
ENDBRANCH  37  40
ENDBRANCH  36  37
ENDBRANCH   1  36
TORSDOF 12
