REMARK  14 active torsions:
REMARK  status: ('A' for Active; 'I' for Inactive)
REMARK    1  A    between atoms: C6_7  and  N6_39 
REMARK    2  A    between atoms: CAK_17  and  CBH_16 
REMARK    3  A    between atoms: CAI_18  and  CAK_17 
REMARK    4  A    between atoms: CAH_19  and  CAI_18 
REMARK    5  A    between atoms: CAJ_20  and  CAH_19 
REMARK    6  A    between atoms: CAZ_21  and  CAJ_20 
REMARK       I    between atoms: NAV_23  and  CAZ_21 
REMARK    7  A    between atoms: SBK_24  and  NAV_23 
REMARK    8  A    between atoms: OAW_27  and  SBK_24 
REMARK    9  A    between atoms: CAN_28  and  OAW_27 
REMARK   10  A    between atoms: CBE_29  and  CAN_28 
REMARK   11  A    between atoms: CAL_31  and  OAL_32 
REMARK   12  A    between atoms: CAM_33  and  OAM_34 
REMARK   13  A    between atoms: CAM_33  and  C8Q_35 
REMARK   14  A    between atoms: CBG_36  and  N9_37 
ROOT
ATOM      1  SBK 44N d   1      -4.042  -4.934   6.410  0.00  0.00     0.364 S 
ATOM      2  OAD 44N d   1      -5.211  -5.334   5.680  0.00  0.00    -0.175 OA
ATOM      3  OAE 44N d   1      -2.949  -4.800   5.488  0.00  0.00    -0.175 OA
ENDROOT
BRANCH   1   4
ATOM      4  NAV 44N d   1      -3.682  -6.040   7.507  0.00  0.00    -0.231 N 
ATOM      5  CAZ 44N d   1      -4.588  -6.455   8.385  0.00  0.00     0.232 C 
ATOM      6  OAB 44N d   1      -5.677  -5.928   8.520  0.00  0.00    -0.273 OA
ATOM      7  H18 44N d   1      -2.760  -6.426   7.532  0.00  0.00     0.183 HD
BRANCH   5   8
ATOM      8  CAJ 44N d   1      -4.204  -7.643   9.235  0.00  0.00     0.010 C 
ATOM      9  H16 44N d   1      -5.016  -8.385   9.219  0.00  0.00     0.047 H 
ATOM     10  H17 44N d   1      -3.284  -8.097   8.839  0.00  0.00     0.047 H 
BRANCH   8  11
ATOM     11  CAH 44N d   1      -3.968  -7.174  10.667  0.00  0.00    -0.057 C 
ATOM     12  H14 44N d   1      -3.090  -6.511  10.687  0.00  0.00     0.033 H 
ATOM     13  H15 44N d   1      -4.853  -6.620  11.013  0.00  0.00     0.033 H 
BRANCH  11  14
ATOM     14  CAI 44N d   1      -3.722  -8.349  11.602  0.00  0.00    -0.064 C 
ATOM     15  H12 44N d   1      -4.641  -8.950  11.671  0.00  0.00     0.033 H 
ATOM     16  H13 44N d   1      -2.909  -8.967  11.194  0.00  0.00     0.033 H 
BRANCH  14  17
ATOM     17  CAK 44N d   1      -3.333  -7.877  12.998  0.00  0.00    -0.051 C 
ATOM     18  H10 44N d   1      -2.301  -7.496  12.986  0.00  0.00     0.034 H 
ATOM     19  H11 44N d   1      -4.015  -7.077  13.322  0.00  0.00     0.034 H 
BRANCH  17  20
ATOM     20  CBH 44N d   1      -3.434  -9.058  13.956  0.00  0.00     0.012 C 
ATOM     21  CBI 44N d   1      -2.231  -9.987  13.827  0.00  0.00     0.046 C 
ATOM     22  NAU 44N d   1      -1.003  -9.281  13.509  0.00  0.00    -0.335 N 
ATOM     23  CBF 44N d   1      -1.893 -10.648  15.166  0.00  0.00     0.042 C 
ATOM     24  H3  44N d   1      -2.450 -10.745  13.060  0.00  0.00     0.077 H 
ATOM     25  CBA 44N d   1      -0.072  -9.470  14.439  0.00  0.00     0.316 C 
ATOM     26  H4  44N d   1      -0.873  -8.721  12.691  0.00  0.00     0.164 HD
ATOM     27  OAC 44N d   1       0.988  -8.863  14.509  0.00  0.00    -0.247 OA
ATOM     28  NAT 44N d   1      -0.479 -10.382  15.312  0.00  0.00    -0.336 N 
ATOM     29  H5  44N d   1       0.114 -10.827  15.983  0.00  0.00     0.164 HD
ATOM     30  CAO 44N d   1      -2.623 -10.017  16.342  0.00  0.00    -0.002 C 
ATOM     31  H6  44N d   1      -2.104 -11.727  15.133  0.00  0.00     0.077 H 
ATOM     32  SAY 44N d   1      -3.434  -8.616  15.664  0.00  0.00    -0.160 SA
ATOM     33  H7  44N d   1      -1.910  -9.713  17.123  0.00  0.00     0.052 H 
ATOM     34  H8  44N d   1      -3.354 -10.720  16.767  0.00  0.00     0.052 H 
ATOM     35  H9  44N d   1      -4.359  -9.605  13.720  0.00  0.00     0.059 H 
ENDBRANCH  17  20
ENDBRANCH  14  17
ENDBRANCH  11  14
ENDBRANCH   8  11
ENDBRANCH   5   8
ENDBRANCH   1   4
BRANCH   1  36
ATOM     36  OAW 44N d   1      -4.329  -3.577   7.064  0.00  0.00    -0.257 OA
BRANCH  36  37
ATOM     37  CAN 44N d   1      -3.384  -2.895   7.883  0.00  0.00     0.066 C 
ATOM     38  H19 44N d   1      -2.365  -3.041   7.495  0.00  0.00     0.080 H 
ATOM     39  H20 44N d   1      -3.438  -3.262   8.918  0.00  0.00     0.080 H 
BRANCH  37  40
ATOM     40  CBE 44N d   1      -3.770  -1.422   7.821  0.00  0.00     0.090 C 
ATOM     41  OAX 44N d   1      -4.913  -1.159   8.648  0.00  0.00    -0.353 OA
ATOM     42  CBG 44N d   1      -4.763   0.087   9.344  0.00  0.00     0.144 C 
ATOM     43  CAM 44N d   1      -3.519   0.728   8.719  0.00  0.00     0.126 C 
ATOM     44  H28 44N d   1      -5.623   0.745   9.149  0.00  0.00     0.123 H 
ATOM     45  CAL 44N d   1      -2.689  -0.461   8.286  0.00  0.00     0.096 C 
ATOM     46  H22 44N d   1      -2.098  -0.875   9.116  0.00  0.00     0.091 H 
ATOM     47  H21 44N d   1      -4.017  -1.188   6.775  0.00  0.00     0.090 H 
BRANCH  42  48
ATOM     48  N9  44N d   1      -4.753  -0.225  10.803  0.00  0.00    -0.293 N 
ATOM     49  C4  44N d   1      -5.874  -0.415  11.505  0.00  0.00     0.167 A 
ATOM     50  C5  44N d   1      -5.527  -0.700  12.813  0.00  0.00     0.149 A 
ATOM     51  N3  44N d   1      -7.181  -0.361  11.156  0.00  0.00    -0.222 NA
ATOM     52  C6  44N d   1      -6.534  -0.929  13.744  0.00  0.00     0.155 A 
ATOM     53  N7  44N d   1      -4.180  -0.688  12.878  0.00  0.00    -0.236 NA
ATOM     54  N1  44N d   1      -7.821  -0.866  13.343  0.00  0.00    -0.222 NA
ATOM     55  C2  44N d   1      -8.130  -0.592  12.071  0.00  0.00     0.091 A 
ATOM     56  H1  44N d   1      -9.172  -0.556  11.775  0.00  0.00     0.146 H 
ATOM     57  C8  44N d   1      -3.716  -0.408  11.640  0.00  0.00     0.071 A 
ATOM     58  H2  44N d   1      -2.665  -0.341  11.363  0.00  0.00     0.144 H 
BRANCH  52  59
ATOM     59  N6  44N d   1      -6.241  -1.214  15.038  0.00  0.00    -0.382 N 
ATOM     60  H29 44N d   1      -7.001  -1.381  15.713  0.00  0.00     0.157 HD
ATOM     61  H30 44N d   1      -5.259  -1.264  15.345  0.00  0.00     0.157 HD
ENDBRANCH  52  59
ENDBRANCH  42  48
BRANCH  43  62
ATOM     62  OAM 44N d   1      -3.955   1.399   7.532  0.00  0.00    -0.383 OA
ATOM     63  H24 44N d   1      -3.198   1.684   7.035  0.00  0.00     0.210 HD
ENDBRANCH  43  62
BRANCH  43  64
ATOM     64  C8Q 44N d   1      -2.752   1.742   9.564  0.00  0.00    -0.041 C 
ATOM     65  H25 44N d   1      -3.420   2.572   9.837  0.00  0.00     0.032 H 
ATOM     66  H26 44N d   1      -1.901   2.132   8.986  0.00  0.00     0.032 H 
ATOM     67  H27 44N d   1      -2.382   1.253  10.477  0.00  0.00     0.032 H 
ENDBRANCH  43  64
BRANCH  45  68
ATOM     68  OAL 44N d   1      -1.832  -0.109   7.198  0.00  0.00    -0.390 OA
ATOM     69  H23 44N d   1      -2.344   0.308   6.515  0.00  0.00     0.210 HD
ENDBRANCH  45  68
ENDBRANCH  37  40
ENDBRANCH  36  37
ENDBRANCH   1  36
TORSDOF 14
