REMARK  11 active torsions:
REMARK  status: ('A' for Active; 'I' for Inactive)
REMARK    1  A    between atoms: C6_3  and  N6_37 
REMARK    2  A    between atoms: CAK_16  and  CBH_15 
REMARK    3  A    between atoms: CAI_17  and  CAK_16 
REMARK    4  A    between atoms: CAH_18  and  CAI_17 
REMARK    5  A    between atoms: CAJ_19  and  CAH_18 
REMARK    6  A    between atoms: CAZ_20  and  CAJ_19 
REMARK       I    between atoms: NAV_22  and  CAZ_20 
REMARK    7  A    between atoms: SBK_23  and  NAV_22 
REMARK    8  A    between atoms: OAW_26  and  SBK_23 
REMARK    9  A    between atoms: CAN_27  and  OAW_26 
REMARK   10  A    between atoms: CBE_28  and  CAN_27 
REMARK   11  A    between atoms: CBG_33  and  N9_34 
ROOT
ATOM      1  SBK 44O d   1      -4.720  -5.643   6.569  0.00  0.00     0.364 S 
ATOM      2  OAD 44O d   1      -6.024  -5.833   6.002  0.00  0.00    -0.175 OA
ATOM      3  OAE 44O d   1      -3.749  -5.616   5.516  0.00  0.00    -0.175 OA
ENDROOT
BRANCH   1   4
ATOM      4  NAV 44O d   1      -4.401  -6.846   7.585  0.00  0.00    -0.231 N 
ATOM      5  CAZ 44O d   1      -5.225  -7.164   8.570  0.00  0.00     0.232 C 
ATOM      6  OAB 44O d   1      -6.276  -6.599   8.817  0.00  0.00    -0.273 OA
ATOM      7  H17 44O d   1      -3.556  -7.369   7.470  0.00  0.00     0.183 HD
BRANCH   5   8
ATOM      8  CAJ 44O d   1      -4.783  -8.338   9.416  0.00  0.00     0.010 C 
ATOM      9  H15 44O d   1      -5.553  -9.123   9.378  0.00  0.00     0.047 H 
ATOM     10  H16 44O d   1      -3.836  -8.734   9.021  0.00  0.00     0.047 H 
BRANCH   8  11
ATOM     11  CAH 44O d   1      -4.580  -7.899  10.867  0.00  0.00    -0.057 C 
ATOM     12  H13 44O d   1      -3.748  -7.181  10.913  0.00  0.00     0.033 H 
ATOM     13  H14 44O d   1      -5.500  -7.418  11.230  0.00  0.00     0.033 H 
BRANCH  11  14
ATOM     14  CAI 44O d   1      -4.256  -9.098  11.761  0.00  0.00    -0.064 C 
ATOM     15  H11 44O d   1      -5.098  -9.805  11.726  0.00  0.00     0.033 H 
ATOM     16  H12 44O d   1      -3.349  -9.590  11.380  0.00  0.00     0.033 H 
BRANCH  14  17
ATOM     17  CAK 44O d   1      -4.019  -8.683  13.217  0.00  0.00    -0.051 C 
ATOM     18  H9  44O d   1      -3.074  -8.124  13.276  0.00  0.00     0.034 H 
ATOM     19  H10 44O d   1      -4.848  -8.036  13.540  0.00  0.00     0.034 H 
BRANCH  17  20
ATOM     20  CBH 44O d   1      -3.938  -9.884  14.158  0.00  0.00     0.012 C 
ATOM     21  CBI 44O d   1      -2.703 -10.773  13.952  0.00  0.00     0.046 A 
ATOM     22  NAU 44O d   1      -1.472 -10.023  13.685  0.00  0.00    -0.335 N 
ATOM     23  CBF 44O d   1      -2.382 -11.496  15.262  0.00  0.00     0.042 A 
ATOM     24  H2  44O d   1      -2.902 -11.486  13.138  0.00  0.00     0.077 H 
ATOM     25  CBA 44O d   1      -0.565 -10.234  14.639  0.00  0.00     0.316 A 
ATOM     26  H3  44O d   1      -1.331  -9.431  12.892  0.00  0.00     0.164 HD
ATOM     27  OAC 44O d   1       0.518  -9.664  14.696  0.00  0.00    -0.247 OA
ATOM     28  NAT 44O d   1      -1.011 -11.123  15.540  0.00  0.00    -0.336 N 
ATOM     29  H4  44O d   1      -0.469 -11.480  16.301  0.00  0.00     0.164 HD
ATOM     30  CAO 44O d   1      -3.281 -10.989  16.391  0.00  0.00    -0.002 C 
ATOM     31  H5  44O d   1      -2.489 -12.585  15.152  0.00  0.00     0.077 H 
ATOM     32  SAY 44O d   1      -3.861  -9.402  15.864  0.00  0.00    -0.160 SA
ATOM     33  H6  44O d   1      -2.708 -10.897  17.326  0.00  0.00     0.052 H 
ATOM     34  H7  44O d   1      -4.127 -11.675  16.545  0.00  0.00     0.052 H 
ATOM     35  H8  44O d   1      -4.841 -10.489  13.993  0.00  0.00     0.059 H 
ENDBRANCH  17  20
ENDBRANCH  14  17
ENDBRANCH  11  14
ENDBRANCH   8  11
ENDBRANCH   5   8
ENDBRANCH   1   4
BRANCH   1  36
ATOM     36  OAW 44O d   1      -4.833  -4.338   7.325  0.00  0.00    -0.257 OA
BRANCH  36  37
ATOM     37  CAN 44O d   1      -3.733  -3.719   7.966  0.00  0.00     0.065 C 
ATOM     38  H18 44O d   1      -2.825  -3.772   7.348  0.00  0.00     0.080 H 
ATOM     39  H19 44O d   1      -3.534  -4.170   8.949  0.00  0.00     0.080 H 
BRANCH  37  40
ATOM     40  CBE 44O d   1      -4.232  -2.289   8.101  0.00  0.00     0.086 C 
ATOM     41  OAX 44O d   1      -4.739  -2.114   9.424  0.00  0.00    -0.355 OA
ATOM     42  CBG 44O d   1      -5.096  -0.785   9.855  0.00  0.00     0.135 C 
ATOM     43  CAM 44O d   1      -4.001   0.226   9.528  0.00  0.00     0.122 C 
ATOM     44  H27 44O d   1      -6.039  -0.452   9.397  0.00  0.00     0.121 H 
ATOM     45  NAS 44O d   1      -3.507  -0.010   8.187  0.00  0.00    -0.069 N 
ATOM     46  H25 44O d   1      -4.412   1.244   9.593  0.00  0.00     0.082 H 
ATOM     47  H26 44O d   1      -3.175   0.117  10.247  0.00  0.00     0.082 H 
ATOM     48  CAL 44O d   1      -3.084  -1.340   7.814  0.00  0.00     0.107 C 
ATOM     49  H23 44O d   1      -4.244   0.254   7.551  0.00  0.00     0.277 HD
ATOM     50  H24 44O d   1      -2.715   0.599   8.054  0.00  0.00     0.277 HD
ATOM     51  H21 44O d   1      -2.835  -1.367   6.743  0.00  0.00     0.079 H 
ATOM     52  H22 44O d   1      -2.202  -1.631   8.403  0.00  0.00     0.079 H 
ATOM     53  H20 44O d   1      -5.040  -2.107   7.377  0.00  0.00     0.089 H 
BRANCH  42  54
ATOM     54  N9  44O d   1      -5.257  -1.011  11.302  0.00  0.00    -0.295 N 
ATOM     55  C4  44O d   1      -6.409  -1.241  11.934  0.00  0.00     0.167 A 
ATOM     56  C5  44O d   1      -6.106  -1.476  13.270  0.00  0.00     0.149 A 
ATOM     57  N3  44O d   1      -7.699  -1.272  11.514  0.00  0.00    -0.222 NA
ATOM     58  C6  44O d   1      -7.136  -1.733  14.163  0.00  0.00     0.155 A 
ATOM     59  N7  44O d   1      -4.759  -1.383  13.387  0.00  0.00    -0.236 NA
ATOM     60  N1  44O d   1      -8.397  -1.755  13.695  0.00  0.00    -0.222 NA
ATOM     61  C2  44O d   1      -8.668  -1.532  12.401  0.00  0.00     0.091 A 
ATOM     62  H28 44O d   1      -9.698  -1.563  12.064  0.00  0.00     0.146 H 
ATOM     63  C8  44O d   1      -4.249  -1.120  12.175  0.00  0.00     0.070 A 
ATOM     64  H1  44O d   1      -3.191  -1.013  11.941  0.00  0.00     0.144 H 
BRANCH  58  65
ATOM     65  N6  44O d   1      -6.905  -1.989  15.483  0.00  0.00    -0.382 N 
ATOM     66  H29 44O d   1      -7.695  -2.176  16.117  0.00  0.00     0.157 HD
ATOM     67  H30 44O d   1      -5.941  -1.996  15.845  0.00  0.00     0.157 HD
ENDBRANCH  58  65
ENDBRANCH  42  54
ENDBRANCH  37  40
ENDBRANCH  36  37
ENDBRANCH   1  36
TORSDOF 11
