REMARK  12 active torsions:
REMARK  status: ('A' for Active; 'I' for Inactive)
REMARK    1  A    between atoms: C6_36  and  N6_4 
REMARK    2  A    between atoms: CAK_15  and  CBH_14 
REMARK    3  A    between atoms: CAI_16  and  CAK_15 
REMARK    4  A    between atoms: CAH_17  and  CAI_16 
REMARK    5  A    between atoms: CAJ_18  and  CAH_17 
REMARK    6  A    between atoms: CAZ_19  and  CAJ_18 
REMARK       I    between atoms: NAV_21  and  CAZ_19 
REMARK    7  A    between atoms: SBK_22  and  NAV_21 
REMARK    8  A    between atoms: NAW_25  and  SBK_22 
REMARK    9  A    between atoms: CAN_26  and  NAW_25 
REMARK   10  A    between atoms: CBE_27  and  CAN_26 
REMARK   11  A    between atoms: CAM_30  and  O1_37 
REMARK   12  A    between atoms: CBG_31  and  N9_32 
ROOT
ATOM      1  SBK 44Q d   1      -3.952  -4.956   6.340  0.00  0.00     0.321 S 
ATOM      2  OAD 44Q d   1      -5.155  -5.440   5.723  0.00  0.00    -0.182 OA
ATOM      3  OAE 44Q d   1      -2.910  -4.924   5.351  0.00  0.00    -0.182 OA
ENDROOT
BRANCH   1   4
ATOM      4  NAV 44Q d   1      -3.538  -5.915   7.556  0.00  0.00    -0.237 N 
ATOM      5  CAZ 44Q d   1      -4.460  -6.394   8.392  0.00  0.00     0.232 C 
ATOM      6  OAB 44Q d   1      -5.572  -5.906   8.505  0.00  0.00    -0.273 OA
ATOM      7  H20 44Q d   1      -2.577  -6.157   7.689  0.00  0.00     0.183 HD
BRANCH   5   8
ATOM      8  CAJ 44Q d   1      -4.070  -7.600   9.221  0.00  0.00     0.010 C 
ATOM      9  H18 44Q d   1      -4.914  -8.304   9.261  0.00  0.00     0.047 H 
ATOM     10  H19 44Q d   1      -3.202  -8.094   8.760  0.00  0.00     0.047 H 
BRANCH   8  11
ATOM     11  CAH 44Q d   1      -3.710  -7.162  10.637  0.00  0.00    -0.057 C 
ATOM     12  H16 44Q d   1      -2.779  -6.578  10.602  0.00  0.00     0.033 H 
ATOM     13  H17 44Q d   1      -4.522  -6.534  11.032  0.00  0.00     0.033 H 
BRANCH  11  14
ATOM     14  CAI 44Q d   1      -3.510  -8.354  11.569  0.00  0.00    -0.064 C 
ATOM     15  H14 44Q d   1      -4.422  -8.969  11.560  0.00  0.00     0.033 H 
ATOM     16  H15 44Q d   1      -2.661  -8.951  11.205  0.00  0.00     0.033 H 
BRANCH  14  17
ATOM     17  CAK 44Q d   1      -3.225  -7.913  13.003  0.00  0.00    -0.051 C 
ATOM     18  H12 44Q d   1      -2.213  -7.487  13.059  0.00  0.00     0.034 H 
ATOM     19  H13 44Q d   1      -3.960  -7.152  13.303  0.00  0.00     0.034 H 
BRANCH  17  20
ATOM     20  CBH 44Q d   1      -3.322  -9.108  13.945  0.00  0.00     0.012 C 
ATOM     21  CBI 44Q d   1      -2.096 -10.015  13.873  0.00  0.00     0.046 C 
ATOM     22  NAU 44Q d   1      -0.902  -9.294  13.472  0.00  0.00    -0.335 N 
ATOM     23  CBF 44Q d   1      -1.700 -10.556  15.247  0.00  0.00     0.042 C 
ATOM     24  H5  44Q d   1      -2.306 -10.839  13.175  0.00  0.00     0.077 H 
ATOM     25  CBA 44Q d   1       0.073  -9.424  14.367  0.00  0.00     0.316 C 
ATOM     26  H6  44Q d   1      -0.822  -8.765  12.627  0.00  0.00     0.164 HD
ATOM     27  OAC 44Q d   1       1.145  -8.843  14.330  0.00  0.00    -0.247 OA
ATOM     28  NAT 44Q d   1      -0.289 -10.258  15.331  0.00  0.00    -0.336 N 
ATOM     29  H7  44Q d   1       0.330 -10.630  16.022  0.00  0.00     0.164 HD
ATOM     30  CAO 44Q d   1      -2.393  -9.822  16.384  0.00  0.00    -0.002 C 
ATOM     31  H8  44Q d   1      -1.898 -11.636  15.317  0.00  0.00     0.077 H 
ATOM     32  SAY 44Q d   1      -3.443  -8.631  15.635  0.00  0.00    -0.160 SA
ATOM     33  H9  44Q d   1      -1.650  -9.325  17.025  0.00  0.00     0.052 H 
ATOM     34  H10 44Q d   1      -2.985 -10.526  16.987  0.00  0.00     0.052 H 
ATOM     35  H11 44Q d   1      -4.216  -9.684  13.666  0.00  0.00     0.059 H 
ENDBRANCH  17  20
ENDBRANCH  14  17
ENDBRANCH  11  14
ENDBRANCH   8  11
ENDBRANCH   5   8
ENDBRANCH   1   4
BRANCH   1  36
ATOM     36  NAW 44Q d   1      -4.216  -3.461   6.841  0.00  0.00    -0.300 N 
ATOM     37  H21 44Q d   1      -4.951  -2.933   6.417  0.00  0.00     0.173 HD
BRANCH  36  38
ATOM     38  CAN 44Q d   1      -3.427  -2.845   7.889  0.00  0.00     0.028 C 
ATOM     39  H22 44Q d   1      -2.357  -3.042   7.723  0.00  0.00     0.069 H 
ATOM     40  H23 44Q d   1      -3.725  -3.242   8.871  0.00  0.00     0.069 H 
BRANCH  38  41
ATOM     41  CBE 44Q d   1      -3.702  -1.349   7.822  0.00  0.00     0.059 C 
ATOM     42  OAX 44Q d   1      -4.844  -1.010   8.615  0.00  0.00    -0.357 OA
ATOM     43  CBG 44Q d   1      -4.594   0.169   9.387  0.00  0.00     0.137 C 
ATOM     44  CAM 44Q d   1      -3.204   0.664   9.016  0.00  0.00     0.080 C 
ATOM     45  H28 44Q d   1      -5.340   0.941   9.147  0.00  0.00     0.122 H 
ATOM     46  CAL 44Q d   1      -2.536  -0.531   8.359  0.00  0.00    -0.011 C 
ATOM     47  H27 44Q d   1      -2.644   1.013   9.896  0.00  0.00     0.089 H 
ATOM     48  H25 44Q d   1      -1.874  -0.209   7.542  0.00  0.00     0.040 H 
ATOM     49  H26 44Q d   1      -1.957  -1.109   9.094  0.00  0.00     0.040 H 
ATOM     50  H24 44Q d   1      -3.887  -1.074   6.773  0.00  0.00     0.086 H 
BRANCH  43  51
ATOM     51  N9  44Q d   1      -4.672  -0.154  10.832  0.00  0.00    -0.294 N 
ATOM     52  C4  44Q d   1      -5.799  -0.433  11.490  0.00  0.00     0.167 A 
ATOM     53  C5  44Q d   1      -5.465  -0.678  12.809  0.00  0.00     0.149 A 
ATOM     54  N3  44Q d   1      -7.093  -0.504  11.099  0.00  0.00    -0.222 NA
ATOM     55  N7  44Q d   1      -4.127  -0.540  12.920  0.00  0.00    -0.236 NA
ATOM     56  C6  44Q d   1      -6.473  -0.994  13.709  0.00  0.00     0.155 A 
ATOM     57  C8  44Q d   1      -3.649  -0.217  11.697  0.00  0.00     0.071 A 
ATOM     58  H4  44Q d   1      -2.603  -0.037  11.454  0.00  0.00     0.144 H 
ATOM     59  N1  44Q d   1      -7.750  -1.054  13.272  0.00  0.00    -0.222 NA
ATOM     60  C2  44Q d   1      -8.047  -0.814  11.987  0.00  0.00     0.091 A 
ATOM     61  H1  44Q d   1      -9.079  -0.872  11.660  0.00  0.00     0.146 H 
BRANCH  56  62
ATOM     62  N6  44Q d   1      -6.185  -1.242  15.009  0.00  0.00    -0.382 N 
ATOM     63  H2  44Q d   1      -6.941  -1.476  15.668  0.00  0.00     0.157 HD
ATOM     64  H3  44Q d   1      -5.210  -1.197  15.338  0.00  0.00     0.157 HD
ENDBRANCH  56  62
ENDBRANCH  43  51
BRANCH  44  65
ATOM     65  O1  44Q d   1      -3.343   1.709   8.045  0.00  0.00    -0.391 OA
ATOM     66  H29 44Q d   1      -3.854   2.419   8.416  0.00  0.00     0.210 HD
ENDBRANCH  44  65
ENDBRANCH  38  41
ENDBRANCH  36  38
ENDBRANCH   1  36
TORSDOF 12
