REMARK  12 active torsions:
REMARK  status: ('A' for Active; 'I' for Inactive)
REMARK    1  A    between atoms: CAK_17  and  CBH_16 
REMARK    2  A    between atoms: CAI_18  and  CAK_17 
REMARK    3  A    between atoms: CAH_19  and  CAI_18 
REMARK    4  A    between atoms: CAJ_20  and  CAH_19 
REMARK    5  A    between atoms: CAZ_21  and  CAJ_20 
REMARK       I    between atoms: NAV_23  and  CAZ_21 
REMARK    6  A    between atoms: SBK_24  and  NAV_23 
REMARK    7  A    between atoms: NAW_27  and  SBK_24 
REMARK    8  A    between atoms: CAN_28  and  NAW_27 
REMARK    9  A    between atoms: CBE_29  and  CAN_28 
REMARK   10  A    between atoms: OAX_30  and  CBE_29 
REMARK   11  A    between atoms: CBG_31  and  OAX_30 
REMARK   12  A    between atoms: CBG_31  and  N9_32 
ROOT
ATOM      1  CAZ 44R d   1      -4.459  -6.253   8.430  0.00  0.00     0.232 C 
ATOM      2  OAB 44R d   1      -5.542  -5.723   8.611  0.00  0.00    -0.273 OA
ATOM      3  NAV 44R d   1      -3.560  -5.822   7.546  0.00  0.00    -0.237 N 
ATOM      4  H18 44R d   1      -2.622  -6.164   7.594  0.00  0.00     0.183 HD
ENDROOT
BRANCH   3   5
ATOM      5  SBK 44R d   1      -3.954  -4.765   6.407  0.00  0.00     0.321 S 
ATOM      6  OAD 44R d   1      -5.313  -4.967   5.990  0.00  0.00    -0.182 OA
ATOM      7  OAE 44R d   1      -3.094  -4.934   5.269  0.00  0.00    -0.182 OA
BRANCH   5   8
ATOM      8  NAW 44R d   1      -3.776  -3.269   6.939  0.00  0.00    -0.300 N 
ATOM      9  H19 44R d   1      -4.158  -2.508   6.414  0.00  0.00     0.173 HD
BRANCH   8  10
ATOM     10  CAN 44R d   1      -3.068  -3.004   8.173  0.00  0.00     0.024 C 
ATOM     11  H20 44R d   1      -2.036  -3.373   8.081  0.00  0.00     0.068 H 
ATOM     12  H21 44R d   1      -3.573  -3.529   8.997  0.00  0.00     0.068 H 
BRANCH  10  13
ATOM     13  CBE 44R d   1      -3.037  -1.512   8.479  0.00  0.00     0.037 C 
ATOM     14  H22 44R d   1      -2.774  -0.949   7.571  0.00  0.00     0.076 H 
ATOM     15  H23 44R d   1      -2.296  -1.306   9.265  0.00  0.00     0.076 H 
BRANCH  13  16
ATOM     16  OAX 44R d   1      -4.334  -1.133   8.925  0.00  0.00    -0.370 OA
BRANCH  16  17
ATOM     17  CBG 44R d   1      -4.346   0.131   9.583  0.00  0.00     0.086 C 
ATOM     18  H24 44R d   1      -5.167   0.753   9.196  0.00  0.00     0.107 H 
ATOM     19  H25 44R d   1      -3.388   0.649   9.428  0.00  0.00     0.107 H 
BRANCH  17  20
ATOM     20  N9  44R d   1      -4.547  -0.143  11.002  0.00  0.00    -0.302 N 
ATOM     21  C4  44R d   1      -5.715  -0.418  11.586  0.00  0.00     0.166 A 
ATOM     22  C5  44R d   1      -5.469  -0.617  12.933  0.00  0.00     0.149 A 
ATOM     23  N3  44R d   1      -6.977  -0.536  11.111  0.00  0.00    -0.222 NA
ATOM     24  C6  44R d   1      -6.528  -0.926  13.773  0.00  0.00     0.155 A 
ATOM     25  N7  44R d   1      -4.147  -0.449  13.134  0.00  0.00    -0.236 NA
ATOM     26  N1  44R d   1      -7.771  -1.027  13.254  0.00  0.00    -0.222 NA
ATOM     27  N6  44R d   1      -6.317  -1.123  15.098  0.00  0.00    -0.382 N 
ATOM     28  C2  44R d   1      -7.983  -0.836  11.943  0.00  0.00     0.091 A 
ATOM     29  H1  44R d   1      -8.989  -0.926  11.549  0.00  0.00     0.146 H 
ATOM     30  H26 44R d   1      -7.108  -1.352  15.717  0.00  0.00     0.157 HD
ATOM     31  H27 44R d   1      -5.366  -1.043  15.486  0.00  0.00     0.157 HD
ATOM     32  C8  44R d   1      -3.589  -0.156  11.939  0.00  0.00     0.070 A 
ATOM     33  H2  44R d   1      -2.532   0.038  11.765  0.00  0.00     0.144 H 
ENDBRANCH  17  20
ENDBRANCH  16  17
ENDBRANCH  13  16
ENDBRANCH  10  13
ENDBRANCH   8  10
ENDBRANCH   5   8
ENDBRANCH   3   5
BRANCH   1  34
ATOM     34  CAJ 44R d   1      -4.079  -7.476   9.230  0.00  0.00     0.010 C 
ATOM     35  H16 44R d   1      -4.937  -8.163   9.276  0.00  0.00     0.047 H 
ATOM     36  H17 44R d   1      -3.231  -7.981   8.745  0.00  0.00     0.047 H 
BRANCH  34  37
ATOM     37  CAH 44R d   1      -3.683  -7.067  10.642  0.00  0.00    -0.057 C 
ATOM     38  H14 44R d   1      -2.717  -6.542  10.610  0.00  0.00     0.033 H 
ATOM     39  H15 44R d   1      -4.451  -6.396  11.054  0.00  0.00     0.033 H 
BRANCH  37  40
ATOM     40  CAI 44R d   1      -3.558  -8.295  11.533  0.00  0.00    -0.064 C 
ATOM     41  H12 44R d   1      -4.514  -8.838  11.529  0.00  0.00     0.033 H 
ATOM     42  H13 44R d   1      -2.765  -8.946  11.136  0.00  0.00     0.033 H 
BRANCH  40  43
ATOM     43  CAK 44R d   1      -3.212  -7.911  12.966  0.00  0.00    -0.051 C 
ATOM     44  H10 44R d   1      -2.167  -7.570  13.013  0.00  0.00     0.034 H 
ATOM     45  H11 44R d   1      -3.877  -7.101  13.300  0.00  0.00     0.034 H 
BRANCH  43  46
ATOM     46  CBH 44R d   1      -3.392  -9.121  13.870  0.00  0.00     0.012 C 
ATOM     47  CBI 44R d   1      -2.173 -10.038  13.860  0.00  0.00     0.046 C 
ATOM     48  NAU 44R d   1      -0.967  -9.329  13.476  0.00  0.00    -0.335 N 
ATOM     49  CBF 44R d   1      -1.820 -10.552  15.257  0.00  0.00     0.042 C 
ATOM     50  H3  44R d   1      -2.366 -10.877  13.175  0.00  0.00     0.077 H 
ATOM     51  CBA 44R d   1      -0.014  -9.450  14.396  0.00  0.00     0.316 C 
ATOM     52  H4  44R d   1      -0.865  -8.813  12.625  0.00  0.00     0.164 HD
ATOM     53  OAC 44R d   1       1.077  -8.903  14.353  0.00  0.00    -0.247 OA
ATOM     54  NAT 44R d   1      -0.416 -10.237  15.383  0.00  0.00    -0.336 N 
ATOM     55  H5  44R d   1       0.175 -10.569  16.118  0.00  0.00     0.164 HD
ATOM     56  CAO 44R d   1      -2.562  -9.808  16.355  0.00  0.00    -0.002 C 
ATOM     57  H6  44R d   1      -2.008 -11.633  15.338  0.00  0.00     0.077 H 
ATOM     58  SAY 44R d   1      -3.592  -8.643  15.547  0.00  0.00    -0.160 SA
ATOM     59  H7  44R d   1      -1.849  -9.293  17.015  0.00  0.00     0.052 H 
ATOM     60  H8  44R d   1      -3.170 -10.508  16.947  0.00  0.00     0.052 H 
ATOM     61  H9  44R d   1      -4.278  -9.679  13.532  0.00  0.00     0.059 H 
ENDBRANCH  43  46
ENDBRANCH  40  43
ENDBRANCH  37  40
ENDBRANCH  34  37
ENDBRANCH   1  34
TORSDOF 12
