REMARK  13 active torsions:
REMARK  status: ('A' for Active; 'I' for Inactive)
REMARK    1  A    between atoms: C1_1  and  O1_7 
REMARK    2  A    between atoms: C2_2  and  O2_8 
REMARK    3  A    between atoms: C3_3  and  O3_9 
REMARK    4  A    between atoms: C4_4  and  O4_10 
REMARK    5  A    between atoms: C5_5  and  C6_6 
REMARK    6  A    between atoms: C6_6  and  O6_12 
REMARK    7  A    between atoms: O1_7  and  C7_13 
REMARK    8  A    between atoms: C8_14  and  O7_19 
REMARK    9  A    between atoms: C9_15  and  O8_20 
REMARK   10  A    between atoms: C10_16  and  O9_21 
REMARK   11  A    between atoms: C11_17  and  C12_18 
REMARK   12  A    between atoms: C12_18  and  O11_23 
REMARK   13  A    between atoms: O11_23  and  P1_24 
ROOT
ATOM      1  C7  T6P d   1      27.992 -10.549  26.082  0.00  0.00     0.162 C 
ATOM      2  C8  T6P d   1      28.395 -11.129  24.722  0.00  0.00     0.110 C 
ATOM      3  C9  T6P d   1      29.867 -11.545  24.687  0.00  0.00     0.092 C 
ATOM      4  C10 T6P d   1      30.742 -10.403  25.181  0.00  0.00     0.090 C 
ATOM      5  C11 T6P d   1      30.274 -10.004  26.580  0.00  0.00     0.090 C 
ATOM      6  O10 T6P d   1      28.906  -9.548  26.513  0.00  0.00    -0.348 OA
ATOM      7  H12 T6P d   1      26.993 -10.098  25.990  0.00  0.00     0.133 H 
ATOM      8  H13 T6P d   1      28.245 -10.342  23.968  0.00  0.00     0.094 H 
ATOM      9  H14 T6P d   1      30.010 -12.426  25.330  0.00  0.00     0.091 H 
ATOM     10  H15 T6P d   1      30.619  -9.539  24.512  0.00  0.00     0.091 H 
ATOM     11  H16 T6P d   1      30.334 -10.890  27.229  0.00  0.00     0.090 H 
ENDROOT
BRANCH   1  12
ATOM     12  O1  T6P d   1      27.946 -11.585  27.047  0.00  0.00    -0.326 OA
BRANCH  12  13
ATOM     13  C1  T6P d   1      27.214 -11.277  28.226  0.00  0.00     0.162 C 
ATOM     14  C2  T6P d   1      27.331 -12.448  29.202  0.00  0.00     0.110 C 
ATOM     15  C3  T6P d   1      26.586 -13.674  28.672  0.00  0.00     0.092 C 
ATOM     16  H2  T6P d   1      26.875 -12.151  30.158  0.00  0.00     0.094 H 
ATOM     17  C4  T6P d   1      25.165 -13.312  28.273  0.00  0.00     0.090 C 
ATOM     18  H3  T6P d   1      27.123 -14.067  27.796  0.00  0.00     0.091 H 
ATOM     19  C5  T6P d   1      25.176 -12.131  27.308  0.00  0.00     0.089 C 
ATOM     20  H4  T6P d   1      24.592 -13.043  29.173  0.00  0.00     0.091 H 
ATOM     21  O5  T6P d   1      25.848 -11.020  27.934  0.00  0.00    -0.348 OA
ATOM     22  H5  T6P d   1      25.715 -12.425  26.395  0.00  0.00     0.090 H 
ATOM     23  H1  T6P d   1      27.648 -10.379  28.689  0.00  0.00     0.133 H 
BRANCH  14  24
ATOM     24  O2  T6P d   1      28.700 -12.759  29.432  0.00  0.00    -0.388 OA
ATOM     25  H8  T6P d   1      29.102 -13.037  28.617  0.00  0.00     0.210 HD
ENDBRANCH  14  24
BRANCH  15  26
ATOM     26  O3  T6P d   1      26.513 -14.679  29.674  0.00  0.00    -0.390 OA
ATOM     27  H9  T6P d   1      27.392 -14.923  29.941  0.00  0.00     0.210 HD
ENDBRANCH  15  26
BRANCH  17  28
ATOM     28  O4  T6P d   1      24.558 -14.418  27.640  0.00  0.00    -0.390 OA
ATOM     29  H10 T6P d   1      23.667 -14.193  27.398  0.00  0.00     0.210 HD
ENDBRANCH  17  28
BRANCH  19  30
ATOM     30  C6  T6P d   1      23.787 -11.671  26.933  0.00  0.00     0.043 C 
ATOM     31  H6  T6P d   1      23.244 -11.390  27.847  0.00  0.00     0.078 H 
ATOM     32  H7  T6P d   1      23.260 -12.496  26.432  0.00  0.00     0.078 H 
BRANCH  30  33
ATOM     33  O6  T6P d   1      23.830 -10.554  26.060  0.00  0.00    -0.398 OA
ATOM     34  H11 T6P d   1      24.281  -9.836  26.488  0.00  0.00     0.209 HD
ENDBRANCH  30  33
ENDBRANCH  19  30
ENDBRANCH  12  13
ENDBRANCH   1  12
BRANCH   2  35
ATOM     35  O7  T6P d   1      27.585 -12.241  24.368  0.00  0.00    -0.388 OA
ATOM     36  H19 T6P d   1      27.731 -12.947  24.986  0.00  0.00     0.210 HD
ENDBRANCH   2  35
BRANCH   3  37
ATOM     37  O8  T6P d   1      30.261 -11.856  23.355  0.00  0.00    -0.390 OA
ATOM     38  H20 T6P d   1      30.144 -11.091  22.805  0.00  0.00     0.210 HD
ENDBRANCH   3  37
BRANCH   5  39
ATOM     39  C12 T6P d   1      31.092  -8.900  27.198  0.00  0.00     0.059 C 
ATOM     40  H17 T6P d   1      32.096  -9.274  27.449  0.00  0.00     0.079 H 
ATOM     41  H18 T6P d   1      30.598  -8.535  28.111  0.00  0.00     0.079 H 
BRANCH  39  42
ATOM     42  O11 T6P d   1      31.193  -7.838  26.241  0.00  0.00    -0.280 OA
BRANCH  42  43
ATOM     43  P1  T6P d   1      31.052  -6.318  26.721  0.00  0.00     0.422 P 
ATOM     44  O12 T6P d   1      32.151  -6.084  27.727  0.00  0.00    -0.617 OA
ATOM     45  O13 T6P d   1      29.701  -6.191  27.313  0.00  0.00    -0.617 OA
ATOM     46  O14 T6P d   1      31.305  -5.438  25.495  0.00  0.00    -0.617 OA
ENDBRANCH  42  43
ENDBRANCH  39  42
ENDBRANCH   5  39
BRANCH   4  47
ATOM     47  O9  T6P d   1      32.111 -10.799  25.152  0.00  0.00    -0.390 OA
ATOM     48  H21 T6P d   1      32.352 -11.036  24.264  0.00  0.00     0.210 HD
ENDBRANCH   4  47
TORSDOF 13
