REMARK  4 active torsions:
REMARK  status: ('A' for Active; 'I' for Inactive)
REMARK    1  A    between atoms: C7_5  and  C6_3 
REMARK    2  A    between atoms: C10_8  and  N1_9 
REMARK    3  A    between atoms: C1_15  and  O_16 
REMARK    4  A    between atoms: O_16  and  C_17 
ROOT
ATOM      1  C4  43U d   1      18.201  28.027 -19.167  0.00  0.00     0.012 A 
ATOM      2  C5  43U d   1      17.763  26.742 -19.402  0.00  0.00    -0.051 A 
ATOM      3  C6  43U d   1      17.783  25.828 -18.294  0.00  0.00     0.030 A 
ATOM      4  C3  43U d   1      18.698  28.486 -17.967  0.00  0.00    -0.064 A 
ATOM      5 BR   43U d   1      18.095  29.263 -20.579  0.00  0.00    -0.051 Br
ATOM      6  C2  43U d   1      18.731  27.620 -16.882  0.00  0.00    -0.049 A 
ATOM      7  C1  43U d   1      18.299  26.328 -17.064  0.00  0.00     0.081 A 
ATOM      8  H1  43U d   1      17.418  26.434 -20.382  0.00  0.00     0.087 H 
ATOM      9  H5  43U d   1      19.057  29.505 -17.872  0.00  0.00     0.085 H 
ATOM     10  H7  43U d   1      19.089  27.955 -15.915  0.00  0.00     0.087 H 
ENDROOT
BRANCH   3  11
ATOM     11  C7  43U d   1      17.383  24.453 -18.484  0.00  0.00     0.121 A 
ATOM     12  C8  43U d   1      17.943  23.325 -17.907  0.00  0.00     0.135 A 
ATOM     13  C9  43U d   1      17.492  22.082 -18.271  0.00  0.00     0.179 A 
ATOM     14  N4  43U d   1      18.926  23.063 -16.942  0.00  0.00    -0.238 NA
ATOM     15  N3  43U d   1      18.146  21.121 -17.567  0.00  0.00    -0.333 N 
ATOM     16  N   43U d   1      16.546  21.892 -19.201  0.00  0.00    -0.043 NA
ATOM     17  C11 43U d   1      19.024  21.746 -16.779  0.00  0.00     0.066 A 
ATOM     18  H6  43U d   1      17.993  20.104 -17.630  0.00  0.00     0.168 HD
ATOM     19  H2  43U d   1      19.718  21.251 -16.102  0.00  0.00     0.143 H 
ATOM     20  C10 43U d   1      16.050  22.947 -19.778  0.00  0.00     0.722 A 
ATOM     21  N2  43U d   1      16.458  24.183 -19.467  0.00  0.00    -0.060 NA
BRANCH  20  22
ATOM     22  N1  43U d   1      15.116  22.821 -20.736  0.00  0.00    -0.231 N 
ATOM     23  H3  43U d   1      14.727  23.660 -21.189  0.00  0.00     0.174 HD
ATOM     24  H4  43U d   1      14.789  21.885 -21.017  0.00  0.00     0.174 HD
ENDBRANCH  20  22
ENDBRANCH   3  11
BRANCH   7  25
ATOM     25  O   43U d   1      18.248  25.462 -16.029  0.00  0.00    -0.355 OA
BRANCH  25  26
ATOM     26  C   43U d   1      18.446  25.900 -14.658  0.00  0.00     0.010 C 
ATOM     27  H8  43U d   1      18.363  25.037 -13.982  0.00  0.00     0.066 H 
ATOM     28  H9  43U d   1      17.680  26.645 -14.397  0.00  0.00     0.066 H 
ATOM     29  H10 43U d   1      19.445  26.350 -14.557  0.00  0.00     0.066 H 
ENDBRANCH  25  26
ENDBRANCH   7  25
TORSDOF 4
