REMARK  2 active torsions:
REMARK  status: ('A' for Active; 'I' for Inactive)
REMARK    1  A    between atoms: C4_1  and  C5_2 
REMARK    2  A    between atoms: C_17  and  N_18 
ROOT
ATOM      1  C4  43S d   1      -7.109  15.925  -0.029  0.00  0.00     0.119 A 
ATOM      2  N1  43S d   1      -4.351  16.674  -0.512  0.00  0.00    -0.041 NA
ATOM      3  N2  43S d   1      -4.835  18.353   1.179  0.00  0.00    -0.222 NA
ATOM      4  C3  43S d   1      -6.527  16.962   0.715  0.00  0.00     0.113 A 
ATOM      5  N3  43S d   1      -7.014  17.837   1.722  0.00  0.00    -0.346 N 
ATOM      6  N4  43S d   1      -6.409  15.258  -0.987  0.00  0.00    -0.060 NA
ATOM      7  C   43S d   1      -5.054  15.666  -1.173  0.00  0.00     0.723 A 
ATOM      8  C1  43S d   1      -5.156  17.287   0.401  0.00  0.00     0.198 A 
ATOM      9  C2  43S d   1      -5.944  18.647   1.955  0.00  0.00     0.067 A 
ATOM     10  H5  43S d   1      -7.944  17.855   2.165  0.00  0.00     0.167 HD
ATOM     11  H8  43S d   1      -5.959  19.454   2.686  0.00  0.00     0.143 H 
ENDROOT
BRANCH   1  12
ATOM     12  C5  43S d   1      -8.476  15.506   0.203  0.00  0.00     0.032 A 
ATOM     13  C6  43S d   1      -9.141  15.577   1.394  0.00  0.00     0.098 A 
ATOM     14  C9  43S d   1     -10.515  15.168   1.532  0.00  0.00     0.002 A 
ATOM     15  O   43S d   1      -8.579  15.860   2.567  0.00  0.00    -0.321 OA
ATOM     16  C8  43S d   1     -10.954  15.404   2.968  0.00  0.00    -0.049 C 
ATOM     17  C10 43S d   1     -11.185  14.612   0.450  0.00  0.00    -0.053 A 
ATOM     18  C7  43S d   1      -9.580  15.769   3.616  0.00  0.00     0.020 C 
ATOM     19  H2  43S d   1     -11.944  15.338   3.417  0.00  0.00     0.087 H 
ATOM     20  H1  43S d   1      -9.402  15.929   4.678  0.00  0.00     0.123 H 
ATOM     21  C11 43S d   1     -10.465  14.476  -0.714  0.00  0.00     0.012 A 
ATOM     22  H3  43S d   1     -12.221  14.301   0.519  0.00  0.00     0.086 H 
ATOM     23  C12 43S d   1      -9.179  14.906  -0.885  0.00  0.00    -0.051 A 
ATOM     24 BR   43S d   1     -11.286  13.613  -2.267  0.00  0.00    -0.051 Br
ATOM     25  H4  43S d   1      -8.693  14.791  -1.847  0.00  0.00     0.087 H 
ENDBRANCH   1  12
BRANCH   7  26
ATOM     26  N   43S d   1      -4.308  14.958  -2.140  0.00  0.00    -0.231 N 
ATOM     27  H6  43S d   1      -3.325  15.209  -2.317  0.00  0.00     0.174 HD
ATOM     28  H7  43S d   1      -4.747  14.191  -2.669  0.00  0.00     0.174 HD
ENDBRANCH   7  26
TORSDOF 2
