REMARK  4 active torsions:
REMARK  status: ('A' for Active; 'I' for Inactive)
REMARK    1  A    between atoms: O12_1  and  C8_2 
REMARK    2  A    between atoms: C6_3  and  O7_4 
REMARK    3  A    between atoms: C4_6  and  C1_7 
REMARK    4  A    between atoms: C9_11  and  O11_12 
ROOT
ATOM      1  C8  SKM d   1       4.130  10.626  20.037  0.00  0.00     0.085 C 
ATOM      2  C6  SKM d   1       5.251  10.241  20.792  0.00  0.00     0.063 C 
ATOM      3  C5  SKM d   1       5.942   8.887  20.288  0.00  0.00    -0.026 C 
ATOM      4  C4  SKM d   1       6.008   8.723  18.798  0.00  0.00     0.035 C 
ATOM      5  C10 SKM d   1       5.341   9.761  17.906  0.00  0.00    -0.026 C 
ATOM      6  C9  SKM d   1       4.580  10.841  18.424  0.00  0.00     0.063 C 
ATOM      7  H2  SKM d   1       3.760  11.579  20.444  0.00  0.00     0.090 H 
ATOM      8  H3  SKM d   1       4.924  10.106  21.834  0.00  0.00     0.087 H 
ATOM      9  H5  SKM d   1       5.373   8.040  20.699  0.00  0.00     0.038 H 
ATOM     10  H6  SKM d   1       6.970   8.863  20.679  0.00  0.00     0.038 H 
ATOM     11  H7  SKM d   1       5.084   8.127  18.823  0.00  0.00     0.056 H 
ATOM     12  H8  SKM d   1       4.665   9.203  17.242  0.00  0.00     0.038 H 
ATOM     13  H9  SKM d   1       6.147  10.214  17.311  0.00  0.00     0.038 H 
ATOM     14  H10 SKM d   1       5.188  11.755  18.357  0.00  0.00     0.087 H 
ENDROOT
BRANCH   4  15
ATOM     15  C1  SKM d   1       6.712   7.611  18.158  0.00  0.00     0.177 C 
ATOM     16  O2  SKM d   1       6.857   6.555  18.857  0.00  0.00    -0.648 OA
ATOM     17  O3  SKM d   1       7.090   7.687  16.938  0.00  0.00    -0.648 OA
ENDBRANCH   4  15
BRANCH   2  18
ATOM     18  O7  SKM d   1       6.287  11.257  20.739  0.00  0.00    -0.393 OA
ATOM     19  H4  SKM d   1       5.948  12.072  21.090  0.00  0.00     0.210 HD
ENDBRANCH   2  18
BRANCH   6  20
ATOM     20  O11 SKM d   1       3.380  11.002  17.602  0.00  0.00    -0.393 OA
ATOM     21  H11 SKM d   1       2.861  11.723  17.939  0.00  0.00     0.210 HD
ENDBRANCH   6  20
BRANCH   1  22
ATOM     22  O12 SKM d   1       3.052   9.683  20.041  0.00  0.00    -0.390 OA
ATOM     23  H1  SKM d   1       2.338  10.017  19.511  0.00  0.00     0.210 HD
ENDBRANCH   1  22
TORSDOF 4
