REMARK  2 active torsions:
REMARK  status: ('A' for Active; 'I' for Inactive)
REMARK    1  A    between atoms: C2_4  and  C6_10 
REMARK    2  A    between atoms: N3_13  and  C1_5 
ROOT
ATOM      1  C14 49N d   1     -18.825 -10.334  66.466  0.00  0.00     0.093 C 
ATOM      2  C15 49N d   1     -16.801  -8.901  66.480  0.00  0.00     0.093 C 
ATOM      3  C7  49N d   1     -18.885 -10.252  67.987  0.00  0.00     0.007 C 
ATOM      4  C8  49N d   1     -16.868  -8.955  68.014  0.00  0.00     0.007 C 
ATOM      5  N16 49N d   1     -18.096  -9.188  65.851  0.00  0.00    -0.073 N 
ATOM      6  N3  49N d   1     -17.491 -10.207  68.417  0.00  0.00    -0.264 NA
ATOM      7  H4  49N d   1     -19.853 -10.347  66.074  0.00  0.00     0.077 H 
ATOM      8  H5  49N d   1     -18.314 -11.267  66.185  0.00  0.00     0.077 H 
ATOM      9  H6  49N d   1     -16.068  -9.643  66.132  0.00  0.00     0.077 H 
ATOM     10  H7  49N d   1     -16.476  -7.895  66.176  0.00  0.00     0.077 H 
ATOM     11  H8  49N d   1     -19.390 -11.137  68.403  0.00  0.00     0.059 H 
ATOM     12  H9  49N d   1     -19.417  -9.343  68.305  0.00  0.00     0.059 H 
ATOM     13  H10 49N d   1     -17.464  -8.109  68.387  0.00  0.00     0.059 H 
ATOM     14  H11 49N d   1     -15.851  -8.898  68.430  0.00  0.00     0.059 H 
ATOM     15  H12 49N d   1     -18.675  -8.366  65.927  0.00  0.00     0.277 HD
ATOM     16  H13 49N d   1     -17.937  -9.398  64.878  0.00  0.00     0.277 HD
ENDROOT
BRANCH   6  17
ATOM     17  C1  49N d   1     -17.265 -10.605  69.783  0.00  0.00     0.120 A 
ATOM     18  C2  49N d   1     -17.350 -11.953  70.129  0.00  0.00     0.088 A 
ATOM     19  C5  49N d   1     -17.145 -12.357  71.434  0.00  0.00    -0.064 A 
ATOM     20  C10 49N d   1     -16.845 -11.419  72.396  0.00  0.00    -0.065 A 
ATOM     21  H2  49N d   1     -17.220 -13.405  71.699  0.00  0.00     0.085 H 
ATOM     22  C9  49N d   1     -16.758 -10.109  71.975  0.00  0.00     0.004 A 
ATOM     23  H1  49N d   1     -16.685 -11.696  73.432  0.00  0.00     0.085 H 
ATOM     24  N4  49N d   1     -16.963  -9.690  70.715  0.00  0.00    -0.248 NA
ATOM     25  H3  49N d   1     -16.505  -9.360  72.717  0.00  0.00     0.114 H 
BRANCH  18  26
ATOM     26  C6  49N d   1     -17.685 -13.021  69.139  0.00  0.00     0.420 C 
ATOM     27  F11 49N d   1     -17.217 -14.204  69.556  0.00  0.00    -0.166 F 
ATOM     28  F12 49N d   1     -19.001 -13.202  68.922  0.00  0.00    -0.166 F 
ATOM     29  F13 49N d   1     -17.217 -12.845  67.882  0.00  0.00    -0.166 F 
ENDBRANCH  18  26
ENDBRANCH   6  17
TORSDOF 2
