REMARK  5 active torsions:
REMARK  status: ('A' for Active; 'I' for Inactive)
REMARK    1  A    between atoms: N_1  and  CA_2 
REMARK    2  A    between atoms: CA_2  and  C_3 
REMARK    3  A    between atoms: CA_2  and  CB_5 
REMARK    4  A    between atoms: CB_5  and  CG_6 
REMARK    5  A    between atoms: NE2_10  and  CZ_11 
ROOT
ATOM      1  CB  HIC d   1      -2.210   4.785   8.038  0.00  0.00     0.013 C 
ATOM      2  H5  HIC d   1      -2.492   5.812   8.312  0.00  0.00     0.046 H 
ATOM      3  H6  HIC d   1      -1.373   4.812   7.325  0.00  0.00     0.046 H 
ENDROOT
BRANCH   1   4
ATOM      4  CA  HIC d   1      -3.409   4.106   7.367  0.00  0.00     0.187 C 
ATOM      5  H4  HIC d   1      -4.266   4.168   8.053  0.00  0.00     0.101 H 
BRANCH   4   6
ATOM      6  N   HIC d   1      -3.127   2.670   7.094  0.00  0.00    -0.065 N 
ATOM      7  H1  HIC d   1      -2.882   2.206   7.955  0.00  0.00     0.275 HD
ATOM      8  H2  HIC d   1      -2.361   2.596   6.442  0.00  0.00     0.275 HD
ATOM      9  H3  HIC d   1      -3.947   2.236   6.700  0.00  0.00     0.275 HD
ENDBRANCH   4   6
BRANCH   4  10
ATOM     10  C   HIC d   1      -3.782   4.812   6.059  0.00  0.00     0.204 C 
ATOM     11  O   HIC d   1      -3.496   4.222   4.992  0.00  0.00    -0.646 OA
ATOM     12  OXT HIC d   1      -4.328   5.932   6.150  0.00  0.00    -0.646 OA
ENDBRANCH   4  10
ENDBRANCH   1   4
BRANCH   1  13
ATOM     13  CG  HIC d   1      -1.770   4.061   9.270  0.00  0.00     0.053 A 
ATOM     14  ND1 HIC d   1      -0.430   3.924   9.593  0.00  0.00    -0.247 NA
ATOM     15  CE1 HIC d   1      -0.366   3.219  10.700  0.00  0.00     0.066 A 
ATOM     16  NE2 HIC d   1      -1.683   2.897  11.111  0.00  0.00    -0.354 N 
ATOM     17  H8  HIC d   1       0.548   2.930  11.216  0.00  0.00     0.143 H 
ATOM     18  CD2 HIC d   1      -2.541   3.437  10.205  0.00  0.00     0.004 A 
ATOM     19  H7  HIC d   1      -3.628   3.382  10.223  0.00  0.00     0.114 H 
BRANCH  16  20
ATOM     20  CZ  HIC d   1      -2.073   2.114  12.290  0.00  0.00    -0.014 C 
ATOM     21  H9  HIC d   1      -3.170   2.040  12.334  0.00  0.00     0.057 H 
ATOM     22  H10 HIC d   1      -1.702   2.610  13.199  0.00  0.00     0.057 H 
ATOM     23  H11 HIC d   1      -1.640   1.105  12.220  0.00  0.00     0.057 H 
ENDBRANCH  16  20
ENDBRANCH   1  13
TORSDOF 5
