REMARK  7 active torsions:
REMARK  status: ('A' for Active; 'I' for Inactive)
REMARK    1  A    between atoms: N_1  and  CA_2 
REMARK    2  A    between atoms: CA_2  and  C_3 
REMARK    3  A    between atoms: CA_2  and  CB_4 
REMARK    4  A    between atoms: C_3  and  OXT_8 
REMARK    5  A    between atoms: CB_4  and  CG_5 
REMARK    6  A    between atoms: CG_5  and  CD1_6 
REMARK    7  A    between atoms: CG_5  and  CD2_7 
ROOT
ATOM      1  CB  DCL d   1       1.616   7.659   8.718  0.00  0.00    -0.034 C 
ATOM      2  H7  DCL d   1       0.590   7.356   8.461  0.00  0.00     0.036 H 
ATOM      3  H8  DCL d   1       2.201   7.789   7.796  0.00  0.00     0.036 H 
ENDROOT
BRANCH   1   4
ATOM      4  CA  DCL d   1       2.256   6.519   9.527  0.00  0.00     0.120 C 
ATOM      5  H4  DCL d   1       3.318   6.771   9.661  0.00  0.00     0.087 H 
BRANCH   4   6
ATOM      6  N   DCL d   1       2.179   5.196   8.864  0.00  0.00    -0.073 N 
ATOM      7  H1  DCL d   1       2.616   4.501   9.449  0.00  0.00     0.274 HD
ATOM      8  H2  DCL d   1       2.656   5.237   7.977  0.00  0.00     0.274 HD
ATOM      9  H3  DCL d   1       1.213   4.950   8.715  0.00  0.00     0.274 HD
ENDBRANCH   4   6
BRANCH   4  10
ATOM     10  C   DCL d   1       1.615   6.381  10.900  0.00  0.00     0.043 C 
ATOM     11  H5  DCL d   1       1.994   7.176  11.559  0.00  0.00     0.077 H 
ATOM     12  H6  DCL d   1       1.874   5.399  11.324  0.00  0.00     0.077 H 
BRANCH  10  13
ATOM     13  OXT DCL d   1       0.192   6.491  10.800  0.00  0.00    -0.399 OA
ATOM     14  H16 DCL d   1      -0.139   5.804  10.233  0.00  0.00     0.209 HD
ENDBRANCH  10  13
ENDBRANCH   4  10
ENDBRANCH   1   4
BRANCH   1  15
ATOM     15  CG  DCL d   1       1.543   9.020   9.425  0.00  0.00    -0.059 C 
ATOM     16  H9  DCL d   1       0.959   8.890  10.348  0.00  0.00     0.038 H 
BRANCH  15  17
ATOM     17  CD1 DCL d   1       0.842  10.063   8.570  0.00  0.00    -0.073 C 
ATOM     18  H10 DCL d   1       0.811  11.020   9.111  0.00  0.00     0.028 H 
ATOM     19  H11 DCL d   1      -0.184   9.731   8.354  0.00  0.00     0.028 H 
ATOM     20  H12 DCL d   1       1.392  10.193   7.626  0.00  0.00     0.028 H 
ENDBRANCH  15  17
BRANCH  15  21
ATOM     21  CD2 DCL d   1       2.928   9.497   9.805  0.00  0.00    -0.073 C 
ATOM     22  H13 DCL d   1       3.422   8.733  10.423  0.00  0.00     0.028 H 
ATOM     23  H14 DCL d   1       2.849  10.434  10.375  0.00  0.00     0.028 H 
ATOM     24  H15 DCL d   1       3.519   9.670   8.894  0.00  0.00     0.028 H 
ENDBRANCH  15  21
ENDBRANCH   1  15
TORSDOF 7
