REMARK  6 active torsions:
REMARK  status: ('A' for Active; 'I' for Inactive)
REMARK    1  A    between atoms: OAC_1  and  CAJ_2 
REMARK    2  A    between atoms: CAI_4  and  OAB_5 
REMARK    3  A    between atoms: CAK_8  and  CAL_9 
REMARK    4  A    between atoms: CAL_9  and  OAD_10 
REMARK    5  A    between atoms: CAL_9  and  CAH_11 
REMARK    6  A    between atoms: CAH_11  and  NAA_12 
ROOT
ATOM      1  CAJ LNR d   1      -4.716   2.097  10.936  0.00  0.00     0.099 A 
ATOM      2  CAG LNR d   1      -3.531   2.782  10.706  0.00  0.00    -0.040 A 
ATOM      3  CAI LNR d   1      -4.730   0.698  10.885  0.00  0.00     0.098 A 
ATOM      4  CAE LNR d   1      -3.561   0.019  10.592  0.00  0.00    -0.048 A 
ATOM      5  CAF LNR d   1      -2.387   0.707  10.359  0.00  0.00    -0.072 A 
ATOM      6  CAK LNR d   1      -2.358   2.100  10.413  0.00  0.00    -0.025 A 
ATOM      7  H2  LNR d   1      -3.521   3.865  10.756  0.00  0.00     0.088 H 
ATOM      8  H4  LNR d   1      -3.567  -1.064  10.545  0.00  0.00     0.087 H 
ATOM      9  H5  LNR d   1      -1.480   0.159  10.132  0.00  0.00     0.084 H 
ENDROOT
BRANCH   6  10
ATOM     10  CAL LNR d   1      -1.074   2.852  10.130  0.00  0.00     0.084 C 
ATOM     11  H6  LNR d   1      -0.304   2.120   9.843  0.00  0.00     0.093 H 
BRANCH  10  12
ATOM     12  OAD LNR d   1      -1.227   3.804   9.080  0.00  0.00    -0.389 OA
ATOM     13  H7  LNR d   1      -1.489   3.357   8.284  0.00  0.00     0.210 HD
ENDBRANCH  10  12
BRANCH  10  14
ATOM     14  CAH LNR d   1      -0.602   3.622  11.350  0.00  0.00     0.107 C 
ATOM     15  H8  LNR d   1      -0.397   2.907  12.161  0.00  0.00     0.079 H 
ATOM     16  H9  LNR d   1      -1.400   4.311  11.662  0.00  0.00     0.079 H 
BRANCH  14  17
ATOM     17  NAA LNR d   1       0.621   4.403  11.088  0.00  0.00    -0.077 N 
ATOM     18  H10 LNR d   1       0.892   4.894  11.926  0.00  0.00     0.274 HD
ATOM     19  H11 LNR d   1       0.444   5.068  10.351  0.00  0.00     0.274 HD
ATOM     20  H12 LNR d   1       1.363   3.781  10.808  0.00  0.00     0.274 HD
ENDBRANCH  14  17
ENDBRANCH  10  14
ENDBRANCH   6  10
BRANCH   1  21
ATOM     21  OAC LNR d   1      -5.887   2.737  11.176  0.00  0.00    -0.358 OA
ATOM     22  H1  LNR d   1      -6.103   3.288  10.433  0.00  0.00     0.217 HD
ENDBRANCH   1  21
BRANCH   3  23
ATOM     23  OAB LNR d   1      -5.901   0.052  11.139  0.00  0.00    -0.358 OA
ATOM     24  H3  LNR d   1      -5.765  -0.886  11.070  0.00  0.00     0.217 HD
ENDBRANCH   3  23
TORSDOF 6
