REMARK  2 active torsions:
REMARK  status: ('A' for Active; 'I' for Inactive)
REMARK    1  A    between atoms: C12_13  and  C14_5 
REMARK    2  A    between atoms: C8_9  and  C7_15 
ROOT
ATOM      1  C11 T21 d   1       9.428  -8.078  -7.071  0.00  0.00    -0.068 A 
ATOM      2  C10 T21 d   1       9.730  -6.725  -6.963  0.00  0.00    -0.081 A 
ATOM      3  C9  T21 d   1      10.411  -6.252  -5.848  0.00  0.00    -0.070 A 
ATOM      4  C8  T21 d   1      10.790  -7.131  -4.840  0.00  0.00    -0.002 A 
ATOM      5  C12 T21 d   1       9.807  -8.957  -6.063  0.00  0.00     0.048 A 
ATOM      6  C13 T21 d   1      10.488  -8.484  -4.947  0.00  0.00    -0.056 A 
ATOM      7  H4  T21 d   1       8.897  -8.447  -7.941  0.00  0.00     0.084 H 
ATOM      8  H5  T21 d   1       9.434  -6.039  -7.749  0.00  0.00     0.083 H 
ATOM      9  H6  T21 d   1      10.647  -5.197  -5.764  0.00  0.00     0.084 H 
ATOM     10  H7  T21 d   1      10.783  -9.169  -4.161  0.00  0.00     0.086 H 
ENDROOT
BRANCH   4  11
ATOM     11  C7  T21 d   1      11.520  -6.623  -3.644  0.00  0.00     0.087 A 
ATOM     12  C6  T21 d   1      12.149  -5.366  -3.542  0.00  0.00    -0.033 A 
ATOM     13  C3  T21 d   1      12.699  -5.359  -2.215  0.00  0.00     0.054 A 
ATOM     14  H2  T21 d   1      12.205  -4.581  -4.295  0.00  0.00     0.089 H 
ATOM     15  C2  T21 d   1      13.433  -4.462  -1.451  0.00  0.00     0.192 A 
ATOM     16  C4  T21 d   1      12.364  -6.557  -1.672  0.00  0.00     0.092 A 
ATOM     17  O2  T21 d   1      13.786  -3.250  -1.963  0.00  0.00    -0.171 OA
ATOM     18  N   T21 d   1      13.793  -4.803  -0.190  0.00  0.00    -0.344 N 
ATOM     19  C1  T21 d   1      13.460  -5.990   0.346  0.00  0.00    -0.018 A 
ATOM     20  H8  T21 d   1      14.321  -4.154   0.357  0.00  0.00     0.167 HD
ATOM     21  C5  T21 d   1      12.725  -6.919  -0.385  0.00  0.00    -0.034 A 
ATOM     22  H1  T21 d   1      13.769  -6.227   1.363  0.00  0.00     0.111 H 
ATOM     23  H3  T21 d   1      12.447  -7.885   0.035  0.00  0.00     0.089 H 
ATOM     24  O1  T21 d   1      11.675  -7.252  -2.555  0.00  0.00    -0.309 OA
ENDBRANCH   4  11
BRANCH   5  25
ATOM     25  C14 T21 d   1       9.481 -10.416  -6.179  0.00  0.00     0.417 C 
ATOM     26  F3  T21 d   1       9.349 -10.738  -7.453  0.00  0.00    -0.166 F 
ATOM     27  F1  T21 d   1       8.352 -10.667  -5.543  0.00  0.00    -0.166 F 
ATOM     28  F2  T21 d   1      10.455 -11.129  -5.644  0.00  0.00    -0.166 F 
ENDBRANCH   5  25
TORSDOF 2
