REMARK  3 active torsions:
REMARK  status: ('A' for Active; 'I' for Inactive)
REMARK    1  A    between atoms: C14_9  and  O4_10 
REMARK    2  A    between atoms: C14_9  and  C9_12 
REMARK    3  A    between atoms: O4_10  and  C15_11 
ROOT
ATOM      1  C8  MT6 d   1      10.721  -8.264  -4.432  0.00  0.00    -0.054 A 
ATOM      2  C7  MT6 d   1      10.827  -6.996  -4.501  0.00  0.00    -0.001 A 
ATOM      3  C5  MT6 d   1      12.120  -4.951  -3.443  0.00  0.00    -0.033 A 
ATOM      4  C6  MT6 d   1      11.595  -6.263  -3.553  0.00  0.00     0.087 A 
ATOM      5  N1  MT6 d   1      13.963  -4.179  -0.247  0.00  0.00    -0.344 N 
ATOM      6  C2  MT6 d   1      13.492  -5.384   0.402  0.00  0.00    -0.018 C 
ATOM      7  C4  MT6 d   1      12.745  -4.871  -2.234  0.00  0.00     0.054 A 
ATOM      8  C9  MT6 d   1       9.907  -8.916  -5.332  0.00  0.00     0.040 A 
ATOM      9  C10 MT6 d   1       9.177  -8.304  -6.307  0.00  0.00    -0.067 A 
ATOM     10  C13 MT6 d   1       9.389  -6.972  -6.419  0.00  0.00    -0.081 A 
ATOM     11  C11 MT6 d   1      10.174  -6.355  -5.472  0.00  0.00    -0.070 A 
ATOM     12  O2  MT6 d   1      11.824  -6.851  -2.344  0.00  0.00    -0.309 OA
ATOM     13  C12 MT6 d   1      12.469  -6.117  -1.575  0.00  0.00     0.092 A 
ATOM     14  C1  MT6 d   1      12.720  -6.474  -0.234  0.00  0.00    -0.034 C 
ATOM     15  C3  MT6 d   1      13.519  -3.829  -1.494  0.00  0.00     0.192 C 
ATOM     16  O1  MT6 d   1      13.765  -2.651  -2.025  0.00  0.00    -0.171 OA
ATOM     17  H1  MT6 d   1      11.263  -8.821  -3.676  0.00  0.00     0.086 H 
ATOM     18  H2  MT6 d   1      12.039  -4.157  -4.184  0.00  0.00     0.089 H 
ATOM     19  H3  MT6 d   1      14.623  -3.593   0.223  0.00  0.00     0.167 HD
ATOM     20  H4  MT6 d   1      13.728  -5.499   1.459  0.00  0.00     0.111 H 
ATOM     21  H8  MT6 d   1       8.482  -8.841  -6.942  0.00  0.00     0.085 H 
ATOM     22  H9  MT6 d   1       8.952  -6.406  -7.234  0.00  0.00     0.083 H 
ATOM     23  H10 MT6 d   1      10.268  -5.276  -5.518  0.00  0.00     0.084 H 
ATOM     24  H11 MT6 d   1      12.400  -7.395   0.251  0.00  0.00     0.089 H 
ENDROOT
BRANCH   8  25
ATOM     25  C14 MT6 d   1       9.833 -10.365  -5.234  0.00  0.00     0.292 C 
ATOM     26  O3  MT6 d   1      10.704 -11.118  -4.800  0.00  0.00    -0.259 OA
BRANCH  25  27
ATOM     27  O4  MT6 d   1       8.651 -10.909  -5.659  0.00  0.00    -0.323 OA
BRANCH  27  28
ATOM     28  C15 MT6 d   1       8.203 -12.257  -5.146  0.00  0.00     0.013 C 
ATOM     29  H5  MT6 d   1       7.237 -12.520  -5.601  0.00  0.00     0.067 H 
ATOM     30  H6  MT6 d   1       8.094 -12.215  -4.052  0.00  0.00     0.067 H 
ATOM     31  H7  MT6 d   1       8.952 -13.018  -5.411  0.00  0.00     0.067 H 
ENDBRANCH  27  28
ENDBRANCH  25  27
ENDBRANCH   8  25
TORSDOF 3
