REMARK  7 active torsions:
REMARK  status: ('A' for Active; 'I' for Inactive)
REMARK    1  A    between atoms: C01_1  and  C05_2 
REMARK    2  A    between atoms: C05_2  and  C07_3 
REMARK    3  A    between atoms: C05_2  and  N23_11 
REMARK       I    between atoms: C07_3  and  N09_5 
REMARK    4  A    between atoms: C30_14  and  N32_15 
REMARK    5  A    between atoms: N32_15  and  S34_16 
REMARK    6  A    between atoms: S34_16  and  C37_19 
REMARK    7  A    between atoms: C39_20  and  C41_21 
ROOT
ATOM      1  N23 4O6 d   1       6.577   4.272  20.845  0.00  0.00    -0.337 N 
ATOM      2  C24 4O6 d   1       5.178   4.024  21.252  0.00  0.00     0.001 C 
ATOM      3  C27 4O6 d   1       4.633   5.424  21.485  0.00  0.00    -0.022 C 
ATOM      4  C30 4O6 d   1       5.876   6.160  21.999  0.00  0.00     0.098 C 
ATOM      5  C52 4O6 d   1       7.022   5.482  21.253  0.00  0.00     0.244 C 
ATOM      6  O53 4O6 d   1       8.140   5.928  21.070  0.00  0.00    -0.271 OA
ATOM      7  H13 4O6 d   1       5.135   3.425  22.174  0.00  0.00     0.064 H 
ATOM      8  H14 4O6 d   1       4.620   3.511  20.455  0.00  0.00     0.064 H 
ATOM      9  H15 4O6 d   1       3.829   5.422  22.236  0.00  0.00     0.039 H 
ATOM     10  H16 4O6 d   1       4.261   5.870  20.551  0.00  0.00     0.039 H 
ATOM     11  H17 4O6 d   1       5.984   5.971  23.077  0.00  0.00     0.088 H 
ENDROOT
BRANCH   1  12
ATOM     12  C05 4O6 d   1       7.424   3.277  20.165  0.00  0.00     0.088 C 
ATOM     13  H4  4O6 d   1       8.473   3.534  20.373  0.00  0.00     0.087 H 
BRANCH  12  14
ATOM     14  C01 4O6 d   1       7.188   1.865  20.684  0.00  0.00    -0.049 C 
ATOM     15  H1  4O6 d   1       7.842   1.163  20.146  0.00  0.00     0.030 H 
ATOM     16  H2  4O6 d   1       6.137   1.585  20.521  0.00  0.00     0.030 H 
ATOM     17  H3  4O6 d   1       7.415   1.827  21.760  0.00  0.00     0.030 H 
ENDBRANCH  12  14
BRANCH  12  18
ATOM     18  C07 4O6 d   1       7.211   3.355  18.648  0.00  0.00     0.242 C 
ATOM     19  O08 4O6 d   1       6.125   3.670  18.200  0.00  0.00    -0.271 OA
ATOM     20  N09 4O6 d   1       8.243   3.038  17.839  0.00  0.00    -0.346 N 
ATOM     21  C10 4O6 d   1       9.588   2.681  18.319  0.00  0.00     0.017 C 
ATOM     22  C20 4O6 d   1       8.136   3.102  16.370  0.00  0.00     0.017 C 
ATOM     23  C13 4O6 d   1      10.094   1.463  17.594  0.00  0.00     0.034 C 
ATOM     24  H5  4O6 d   1       9.544   2.469  19.398  0.00  0.00     0.067 H 
ATOM     25  H6  4O6 d   1      10.273   3.522  18.138  0.00  0.00     0.067 H 
ATOM     26  O16 4O6 d   1      10.081   1.656  16.188  0.00  0.00    -0.388 OA
ATOM     27  H7  4O6 d   1       9.452   0.605  17.844  0.00  0.00     0.076 H 
ATOM     28  H8  4O6 d   1      11.125   1.256  17.918  0.00  0.00     0.076 H 
ATOM     29  C17 4O6 d   1       8.741   1.869  15.747  0.00  0.00     0.034 C 
ATOM     30  H9  4O6 d   1       8.132   0.995  16.023  0.00  0.00     0.076 H 
ATOM     31  H10 4O6 d   1       8.740   1.986  14.653  0.00  0.00     0.076 H 
ATOM     32  H11 4O6 d   1       8.670   3.992  16.006  0.00  0.00     0.067 H 
ATOM     33  H12 4O6 d   1       7.075   3.169  16.086  0.00  0.00     0.067 H 
ENDBRANCH  12  18
ENDBRANCH   1  12
BRANCH   4  34
ATOM     34  N32 4O6 d   1       5.842   7.613  21.820  0.00  0.00    -0.302 N 
ATOM     35  H18 4O6 d   1       5.665   8.002  20.916  0.00  0.00     0.173 HD
BRANCH  34  36
ATOM     36  S34 4O6 d   1       6.093   8.592  23.092  0.00  0.00     0.249 S 
ATOM     37  O35 4O6 d   1       5.383   8.012  24.196  0.00  0.00    -0.201 OA
ATOM     38  O36 4O6 d   1       5.763   9.917  22.647  0.00  0.00    -0.201 OA
BRANCH  36  39
ATOM     39  C37 4O6 d   1       7.814   8.554  23.471  0.00  0.00     0.028 C 
ATOM     40  C39 4O6 d   1       8.231   8.298  24.707  0.00  0.00    -0.061 C 
ATOM     41  H20 4O6 d   1       7.468   8.269  25.483  0.00  0.00     0.085 H 
ATOM     42  H19 4O6 d   1       8.543   8.742  22.684  0.00  0.00     0.104 H 
BRANCH  40  43
ATOM     43  C41 4O6 d   1       9.616   8.050  25.136  0.00  0.00    -0.035 A 
ATOM     44  C42 4O6 d   1       9.855   7.452  26.376  0.00  0.00    -0.071 A 
ATOM     45  C44 4O6 d   1      11.144   7.211  26.827  0.00  0.00    -0.061 A 
ATOM     46  H21 4O6 d   1       9.014   7.170  26.999  0.00  0.00     0.084 H 
ATOM     47  C46 4O6 d   1      12.212   7.557  26.027  0.00  0.00     0.034 A 
ATOM     48  H22 4O6 d   1      11.310   6.756  27.797  0.00  0.00     0.086 H 
ATOM     49 CL1  4O6 d   1      13.838   7.252  26.590  0.00  0.00    -0.084 Cl
ATOM     50  C48 4O6 d   1      12.022   8.144  24.791  0.00  0.00    -0.061 A 
ATOM     51  C50 4O6 d   1      10.728   8.391  24.353  0.00  0.00    -0.071 A 
ATOM     52  H23 4O6 d   1      12.872   8.408  24.172  0.00  0.00     0.086 H 
ATOM     53  H24 4O6 d   1      10.574   8.857  23.386  0.00  0.00     0.084 H 
ENDBRANCH  40  43
ENDBRANCH  36  39
ENDBRANCH  34  36
ENDBRANCH   4  34
TORSDOF 7
