REMARK  11 active torsions:
REMARK  status: ('A' for Active; 'I' for Inactive)
REMARK    1  A    between atoms: C13_1  and  C15_5 
REMARK       I    between atoms: N12_25  and  C13_1 
REMARK    2  A    between atoms: C18_2  and  N23_27 
REMARK    3  A    between atoms: C16_4  and  C17_3 
REMARK    4  A    between atoms: C10_24  and  C11_11 
REMARK    5  A    between atoms: C9_23  and  C3_17 
REMARK    6  A    between atoms: C6_20  and  C8_22 
REMARK    7  A    between atoms: C9_23  and  C10_24 
REMARK    8  A    between atoms: C9_23  and  N12_25 
REMARK    9  A    between atoms: C31_33  and  N38_38 
REMARK       I    between atoms: N38_38  and  C39_39 
REMARK   10  A    between atoms: C39_39  and  O41_41 
REMARK   11  A    between atoms: O41_41  and  C42_42 
ROOT
ATOM      1  C9  4GR d   1      39.837 -20.873  28.802  0.00  0.00     0.073 C 
ATOM      2  H11 4GR d   1      39.541 -21.143  29.826  0.00  0.00     0.085 H 
ENDROOT
BRANCH   1   3
ATOM      3  C3  4GR d   1      41.329 -20.751  28.772  0.00  0.00     0.129 A 
ATOM      4  N4  4GR d   1      42.062 -20.513  27.691  0.00  0.00    -0.219 NA
ATOM      5  C5  4GR d   1      43.335 -20.635  28.141  0.00  0.00     0.155 A 
ATOM      6 CL2  4GR d   1      44.665 -20.453  27.065  0.00  0.00    -0.060 Cl
ATOM      7  C6  4GR d   1      43.397 -20.919  29.476  0.00  0.00     0.085 A 
ATOM      8  N7  4GR d   1      42.086 -20.985  29.861  0.00  0.00    -0.339 N 
ATOM      9  H10 4GR d   1      41.740 -21.179  30.812  0.00  0.00     0.167 HD
BRANCH   7  10
ATOM     10  C8  4GR d   1      44.481 -21.212  30.417  0.00  0.00    -0.006 A 
ATOM     11  C33 4GR d   1      45.760 -20.675  30.236  0.00  0.00    -0.069 A 
ATOM     12  C32 4GR d   1      46.801 -21.027  31.092  0.00  0.00    -0.056 A 
ATOM     13  H9  4GR d   1      45.942 -19.980  29.424  0.00  0.00     0.085 H 
ATOM     14  C31 4GR d   1      46.559 -21.881  32.182  0.00  0.00     0.036 A 
ATOM     15  H20 4GR d   1      47.799 -20.642  30.917  0.00  0.00     0.086 H 
ATOM     16  C30 4GR d   1      45.265 -22.371  32.379  0.00  0.00    -0.056 A 
ATOM     17  C29 4GR d   1      44.257 -22.063  31.495  0.00  0.00    -0.069 A 
ATOM     18  H19 4GR d   1      45.054 -23.000  33.236  0.00  0.00     0.086 H 
ATOM     19  H18 4GR d   1      43.272 -22.490  31.641  0.00  0.00     0.085 H 
BRANCH  14  20
ATOM     20  N38 4GR d   1      47.534 -22.320  33.119  0.00  0.00    -0.303 N 
ATOM     21  C39 4GR d   1      48.870 -22.022  33.133  0.00  0.00     0.364 C 
ATOM     22  O40 4GR d   1      49.459 -21.352  32.317  0.00  0.00    -0.238 OA
ATOM     23  H21 4GR d   1      47.206 -22.915  33.853  0.00  0.00     0.171 HD
BRANCH  21  24
ATOM     24  O41 4GR d   1      49.445 -22.568  34.220  0.00  0.00    -0.309 OA
BRANCH  24  25
ATOM     25  C42 4GR d   1      50.859 -22.242  34.444  0.00  0.00     0.015 C 
ATOM     26  H22 4GR d   1      51.211 -22.745  35.357  0.00  0.00     0.067 H 
ATOM     27  H23 4GR d   1      50.971 -21.154  34.559  0.00  0.00     0.067 H 
ATOM     28  H24 4GR d   1      51.455 -22.583  33.584  0.00  0.00     0.067 H 
ENDBRANCH  24  25
ENDBRANCH  21  24
ENDBRANCH  14  20
ENDBRANCH   7  10
ENDBRANCH   1   3
BRANCH   1  29
ATOM     29  C10 4GR d   1      39.383 -22.015  27.878  0.00  0.00    -0.015 C 
ATOM     30  H12 4GR d   1      38.289 -22.117  27.927  0.00  0.00     0.043 H 
ATOM     31  H13 4GR d   1      39.685 -21.796  26.843  0.00  0.00     0.043 H 
BRANCH  29  32
ATOM     32  C11 4GR d   1      40.040 -23.312  28.340  0.00  0.00    -0.056 A 
ATOM     33  C24 4GR d   1      40.980 -23.949  27.535  0.00  0.00    -0.077 A 
ATOM     34  C25 4GR d   1      41.694 -25.047  28.013  0.00  0.00    -0.082 A 
ATOM     35  H6  4GR d   1      41.158 -23.588  26.528  0.00  0.00     0.084 H 
ATOM     36  C26 4GR d   1      41.466 -25.532  29.299  0.00  0.00    -0.083 A 
ATOM     37  H15 4GR d   1      42.432 -25.527  27.380  0.00  0.00     0.083 H 
ATOM     38  C27 4GR d   1      40.531 -24.919  30.102  0.00  0.00    -0.082 A 
ATOM     39  H16 4GR d   1      42.022 -26.387  29.665  0.00  0.00     0.083 H 
ATOM     40  C28 4GR d   1      39.818 -23.817  29.624  0.00  0.00    -0.077 A 
ATOM     41  H8  4GR d   1      40.348 -25.291  31.104  0.00  0.00     0.083 H 
ATOM     42  H17 4GR d   1      39.079 -23.345  30.261  0.00  0.00     0.084 H 
ENDBRANCH  29  32
ENDBRANCH   1  29
BRANCH   1  43
ATOM     43  N12 4GR d   1      39.200 -19.582  28.491  0.00  0.00    -0.346 N 
ATOM     44  C13 4GR d   1      39.158 -18.642  29.500  0.00  0.00     0.241 C 
ATOM     45  O14 4GR d   1      39.740 -18.808  30.576  0.00  0.00    -0.269 OA
ATOM     46  H14 4GR d   1      38.815 -19.395  27.587  0.00  0.00     0.163 HD
BRANCH  44  47
ATOM     47  C15 4GR d   1      38.414 -17.394  29.245  0.00  0.00    -0.017 C 
ATOM     48  C16 4GR d   1      37.861 -17.019  28.103  0.00  0.00    -0.066 C 
ATOM     49  H1  4GR d   1      37.977 -17.663  27.233  0.00  0.00     0.085 H 
ATOM     50  H2  4GR d   1      38.309 -16.709  30.085  0.00  0.00     0.092 H 
BRANCH  48  51
ATOM     51  C17 4GR d   1      37.098 -15.773  27.956  0.00  0.00    -0.005 A 
ATOM     52  C18 4GR d   1      37.405 -14.812  26.979  0.00  0.00     0.071 A 
ATOM     53  C19 4GR d   1      36.689 -13.617  26.934  0.00  0.00    -0.053 A 
ATOM     54  C20 4GR d   1      35.616 -13.399  27.803  0.00  0.00    -0.060 A 
ATOM     55  H3  4GR d   1      36.966 -12.851  26.219  0.00  0.00     0.087 H 
ATOM     56  C21 4GR d   1      35.260 -14.385  28.700  0.00  0.00     0.035 A 
ATOM     57  H4  4GR d   1      35.069 -12.464  27.772  0.00  0.00     0.086 H 
ATOM     58  C22 4GR d   1      35.990 -15.559  28.799  0.00  0.00    -0.050 A 
ATOM     59 CL1  4GR d   1      33.849 -14.158  29.705  0.00  0.00    -0.084 Cl
ATOM     60  H5  4GR d   1      35.708 -16.313  29.525  0.00  0.00     0.087 H 
BRANCH  52  61
ATOM     61  N23 4GR d   1      38.478 -15.037  26.065  0.00  0.00    -0.205 N 
ATOM     62  C34 4GR d   1      38.738 -14.901  24.772  0.00  0.00     0.113 A 
ATOM     63  N35 4GR d   1      40.006 -15.058  24.531  0.00  0.00    -0.122 NA
ATOM     64  H7  4GR d   1      37.988 -14.686  24.012  0.00  0.00     0.149 H 
ATOM     65  N36 4GR d   1      40.573 -15.254  25.743  0.00  0.00    -0.023 NA
ATOM     66  N37 4GR d   1      39.672 -15.241  26.680  0.00  0.00    -0.040 NA
ENDBRANCH  52  61
ENDBRANCH  48  51
ENDBRANCH  44  47
ENDBRANCH   1  43
TORSDOF 11
