REMARK  4 active torsions:
REMARK  status: ('A' for Active; 'I' for Inactive)
REMARK    1  A    between atoms: N_1  and  CA_2 
REMARK    2  A    between atoms: CA_2  and  C_3 
REMARK    3  A    between atoms: CA_2  and  CB_5 
REMARK    4  A    between atoms: CB_5  and  CG_6 
ROOT
ATOM      1  CB  HIS d   1      -0.018   4.960 -49.613  0.00  0.00     0.013 C 
ATOM      2  H5  HIS d   1       0.424   3.977 -49.393  0.00  0.00     0.046 H 
ATOM      3  H6  HIS d   1      -1.115   4.886 -49.574  0.00  0.00     0.046 H 
ENDROOT
BRANCH   1   4
ATOM      4  CA  HIS d   1       0.389   5.366 -51.034  0.00  0.00     0.187 C 
ATOM      5  H4  HIS d   1       0.166   4.532 -51.716  0.00  0.00     0.101 H 
BRANCH   4   6
ATOM      6  N   HIS d   1       1.822   5.676 -51.105  0.00  0.00    -0.065 N 
ATOM      7  H1  HIS d   1       2.355   4.871 -50.815  0.00  0.00     0.275 HD
ATOM      8  H2  HIS d   1       2.029   6.452 -50.496  0.00  0.00     0.275 HD
ATOM      9  H3  HIS d   1       2.067   5.918 -52.052  0.00  0.00     0.275 HD
ENDBRANCH   4   6
BRANCH   4  10
ATOM     10  C   HIS d   1      -0.380   6.586 -51.472  0.00  0.00     0.204 C 
ATOM     11  O   HIS d   1       0.215   7.602 -51.888  0.00  0.00    -0.646 OA
ATOM     12  OXT HIS d   1      -1.610   6.565 -51.376  0.00  0.00    -0.646 OA
ENDBRANCH   4  10
ENDBRANCH   1   4
BRANCH   1  13
ATOM     13  CG  HIS d   1       0.425   5.919 -48.563  0.00  0.00     0.053 A 
ATOM     14  ND1 HIS d   1       1.420   5.624 -47.654  0.00  0.00    -0.247 NA
ATOM     15  CE1 HIS d   1       1.600   6.659 -46.852  0.00  0.00     0.064 A 
ATOM     16  NE2 HIS d   1       0.745   7.600 -47.193  0.00  0.00    -0.359 N 
ATOM     17  H8  HIS d   1       2.331   6.723 -46.047  0.00  0.00     0.143 H 
ATOM     18  CD2 HIS d   1       0.007   7.169 -48.268  0.00  0.00     0.002 A 
ATOM     19  H9  HIS d   1       0.645   8.514 -46.728  0.00  0.00     0.166 HD
ATOM     20  H7  HIS d   1      -0.770   7.730 -48.786  0.00  0.00     0.114 H 
ENDBRANCH   1  13
TORSDOF 4
