REMARK  11 active torsions:
REMARK  status: ('A' for Active; 'I' for Inactive)
REMARK       I    between atoms: C1_2  and  N1_3 
REMARK    1  A    between atoms: C1_2  and  C14_17 
REMARK    2  A    between atoms: N1_3  and  C2_4 
REMARK    3  A    between atoms: C5_7  and  O2_8 
REMARK    4  A    between atoms: O2_8  and  C6_9 
REMARK    5  A    between atoms: C16_20  and  N3_22 
REMARK    6  A    between atoms: N3_22  and  C17_23 
REMARK    7  A    between atoms: C20_25  and  N6_30 
REMARK    8  A    between atoms: C18_27  and  C19_28 
REMARK    9  A    between atoms: N7_33  and  C23_36 
REMARK   10  A    between atoms: C23_36  and  C24_37 
REMARK   11  A    between atoms: C24_37  and  O3_38 
ROOT
ATOM      1  C17 4B7 d   1      67.866  58.981 111.128  0.00  0.00     0.135 A 
ATOM      2  C27 4B7 d   1      69.180  58.575 111.531  0.00  0.00     0.006 A 
ATOM      3  C20 4B7 d   1      69.272  57.426 112.377  0.00  0.00     0.131 A 
ATOM      4  N5  4B7 d   1      68.131  56.733 112.813  0.00  0.00    -0.216 NA
ATOM      5  C18 4B7 d   1      66.911  57.218 112.359  0.00  0.00     0.126 A 
ATOM      6  N4  4B7 d   1      66.727  58.284 111.533  0.00  0.00    -0.216 NA
ATOM      7  H13 4B7 d   1      70.064  59.114 111.209  0.00  0.00     0.095 H 
ENDROOT
BRANCH   1   8
ATOM      8  N3  4B7 d   1      67.731  60.181 110.408  0.00  0.00    -0.320 N 
ATOM      9  H12 4B7 d   1      68.594  60.712 110.223  0.00  0.00     0.169 HD
BRANCH   8  10
ATOM     10  C16 4B7 d   1      66.535  60.727 109.916  0.00  0.00     0.172 A 
ATOM     11  N2  4B7 d   1      66.551  61.923 109.283  0.00  0.00    -0.235 NA
ATOM     12  C15 4B7 d   1      65.261  62.210 108.876  0.00  0.00     0.027 A 
ATOM     13  C14 4B7 d   1      64.347  61.248 109.207  0.00  0.00     0.094 A 
ATOM     14  H11 4B7 d   1      64.997  63.120 108.340  0.00  0.00     0.117 H 
ATOM     15  S   4B7 d   1      65.022  59.974 110.001  0.00  0.00    -0.045 SA
BRANCH  13  16
ATOM     16  C1  4B7 d   1      62.914  61.292 109.062  0.00  0.00     0.264 C 
ATOM     17  O1  4B7 d   1      62.250  60.777 109.941  0.00  0.00    -0.267 OA
ATOM     18  N1  4B7 d   1      62.410  61.815 107.883  0.00  0.00    -0.322 N 
ATOM     19  H1  4B7 d   1      63.083  62.073 107.190  0.00  0.00     0.169 HD
BRANCH  18  20
ATOM     20  C2  4B7 d   1      61.052  62.027 107.546  0.00  0.00     0.035 A 
ATOM     21  C13 4B7 d   1      60.779  62.267 106.177  0.00  0.00    -0.054 A 
ATOM     22  C12 4B7 d   1      59.499  62.558 105.758  0.00  0.00    -0.048 A 
ATOM     23  H2  4B7 d   1      61.584  62.221 105.453  0.00  0.00     0.087 H 
ATOM     24  C5  4B7 d   1      58.465  62.577 106.715  0.00  0.00     0.076 A 
ATOM     25  H3  4B7 d   1      59.292  62.768 104.715  0.00  0.00     0.087 H 
ATOM     26  C4  4B7 d   1      58.704  62.277 108.023  0.00  0.00    -0.048 A 
ATOM     27  C3  4B7 d   1      59.979  62.002 108.461  0.00  0.00    -0.054 A 
ATOM     28  H9  4B7 d   1      57.880  62.255 108.727  0.00  0.00     0.087 H 
ATOM     29  H10 4B7 d   1      60.158  61.767 109.504  0.00  0.00     0.087 H 
BRANCH  24  30
ATOM     30  O2  4B7 d   1      57.236  62.971 106.309  0.00  0.00    -0.311 OA
BRANCH  30  31
ATOM     31  C6  4B7 d   1      56.729  64.224 106.654  0.00  0.00     0.076 A 
ATOM     32  C11 4B7 d   1      57.588  65.300 107.071  0.00  0.00    -0.050 A 
ATOM     33  C10 4B7 d   1      57.004  66.533 107.375  0.00  0.00    -0.080 A 
ATOM     34  H4  4B7 d   1      58.660  65.158 107.147  0.00  0.00     0.087 H 
ATOM     35  C9  4B7 d   1      55.621  66.718 107.262  0.00  0.00    -0.083 A 
ATOM     36  H5  4B7 d   1      57.629  67.356 107.702  0.00  0.00     0.083 H 
ATOM     37  C8  4B7 d   1      54.802  65.660 106.840  0.00  0.00    -0.080 A 
ATOM     38  H6  4B7 d   1      55.182  67.680 107.501  0.00  0.00     0.083 H 
ATOM     39  C7  4B7 d   1      55.352  64.413 106.539  0.00  0.00    -0.050 A 
ATOM     40  H7  4B7 d   1      53.733  65.812 106.747  0.00  0.00     0.083 H 
ATOM     41  H8  4B7 d   1      54.714  63.598 106.218  0.00  0.00     0.087 H 
ENDBRANCH  30  31
ENDBRANCH  24  30
ENDBRANCH  18  20
ENDBRANCH  13  16
ENDBRANCH   8  10
ENDBRANCH   1   8
BRANCH   3  42
ATOM     42  N6  4B7 d   1      70.535  56.880 112.820  0.00  0.00    -0.362 N 
ATOM     43  C26 4B7 d   1      70.728  55.510 113.360  0.00  0.00     0.019 C 
ATOM     44  C25 4B7 d   1      71.143  55.674 114.816  0.00  0.00     0.098 C 
ATOM     45  H17 4B7 d   1      71.515  54.987 112.797  0.00  0.00     0.066 H 
ATOM     46  H18 4B7 d   1      69.790  54.940 113.294  0.00  0.00     0.066 H 
ATOM     47  N7  4B7 d   1      72.442  56.417 114.872  0.00  0.00    -0.066 N 
ATOM     48  H19 4B7 d   1      71.264  54.684 115.279  0.00  0.00     0.078 H 
ATOM     49  H20 4B7 d   1      70.371  56.240 115.358  0.00  0.00     0.078 H 
ATOM     50  C22 4B7 d   1      72.287  57.768 114.250  0.00  0.00     0.098 C 
ATOM     51  H21 4B7 d   1      73.083  55.908 114.284  0.00  0.00     0.280 HD
ATOM     52  C21 4B7 d   1      71.828  57.597 112.806  0.00  0.00     0.019 C 
ATOM     53  H22 4B7 d   1      73.251  58.297 114.271  0.00  0.00     0.078 H 
ATOM     54  H23 4B7 d   1      71.538  58.348 114.809  0.00  0.00     0.078 H 
ATOM     55  H24 4B7 d   1      71.703  58.583 112.335  0.00  0.00     0.066 H 
ATOM     56  H25 4B7 d   1      72.572  57.014 112.244  0.00  0.00     0.066 H 
BRANCH  47  57
ATOM     57  C23 4B7 d   1      73.083  56.439 116.238  0.00  0.00     0.103 C 
ATOM     58  H26 4B7 d   1      74.079  56.897 116.145  0.00  0.00     0.079 H 
ATOM     59  H27 4B7 d   1      73.188  55.401 116.587  0.00  0.00     0.079 H 
BRANCH  57  60
ATOM     60  C24 4B7 d   1      72.299  57.214 117.279  0.00  0.00     0.039 C 
ATOM     61  H28 4B7 d   1      72.535  56.819 118.278  0.00  0.00     0.076 H 
ATOM     62  H29 4B7 d   1      71.223  57.096 117.083  0.00  0.00     0.076 H 
BRANCH  60  63
ATOM     63  O3  4B7 d   1      72.633  58.591 117.232  0.00  0.00    -0.399 OA
ATOM     64  H30 4B7 d   1      72.133  59.060 117.890  0.00  0.00     0.209 HD
ENDBRANCH  60  63
ENDBRANCH  57  60
ENDBRANCH  47  57
ENDBRANCH   3  42
BRANCH   5  65
ATOM     65  C19 4B7 d   1      65.660  56.564 112.877  0.00  0.00    -0.019 C 
ATOM     66  H14 4B7 d   1      65.930  55.721 113.529  0.00  0.00     0.037 H 
ATOM     67  H15 4B7 d   1      65.061  56.196 112.031  0.00  0.00     0.037 H 
ATOM     68  H16 4B7 d   1      65.073  57.297 113.450  0.00  0.00     0.037 H 
ENDBRANCH   5  65
TORSDOF 11
