REMARK  2 active torsions:
REMARK  status: ('A' for Active; 'I' for Inactive)
REMARK    1  A    between atoms: C04_7  and  C02_5 
REMARK    2  A    between atoms: C04_7  and  C05_8 
ROOT
ATOM      1  C10 5OF d   1       1.739 -15.910  -5.955  0.00  0.00     0.046 A 
ATOM      2  C13 5OF d   1       3.121 -18.175  -5.175  0.00  0.00    -0.082 A 
ATOM      3  C15 5OF d   1       3.015 -15.752  -5.455  0.00  0.00     0.006 A 
ATOM      4  C05 5OF d   1       3.560 -14.415  -5.383  0.00  0.00     0.076 A 
ATOM      5  N06 5OF d   1       2.875 -13.348  -5.709  0.00  0.00    -0.175 NA
ATOM      6  N07 5OF d   1       1.604 -13.551  -6.209  0.00  0.00    -0.243 N 
ATOM      7  C08 5OF d   1       0.994 -14.717  -6.340  0.00  0.00     0.272 A 
ATOM      8  O09 5OF d   1      -0.165 -14.761  -6.751  0.00  0.00    -0.266 OA
ATOM      9  C11 5OF d   1       1.175 -17.157  -6.066  0.00  0.00    -0.067 A 
ATOM     10  C12 5OF d   1       1.837 -18.301  -5.687  0.00  0.00    -0.082 A 
ATOM     11  C14 5OF d   1       3.704 -16.915  -5.069  0.00  0.00    -0.070 A 
ATOM     12  H1  5OF d   1       3.668 -19.055  -4.858  0.00  0.00     0.083 H 
ATOM     13  H4  5OF d   1       1.097 -12.740  -6.500  0.00  0.00     0.192 HD
ATOM     14  H5  5OF d   1       0.172 -17.243  -6.467  0.00  0.00     0.085 H 
ATOM     15  H6  5OF d   1       1.369 -19.274  -5.785  0.00  0.00     0.083 H 
ATOM     16  H7  5OF d   1       4.712 -16.829  -4.680  0.00  0.00     0.084 H 
ENDROOT
BRANCH   4  17
ATOM     17  C04 5OF d   1       4.973 -14.157  -4.841  0.00  0.00     0.058 C 
ATOM     18  H2  5OF d   1       4.934 -14.118  -3.742  0.00  0.00     0.058 H 
ATOM     19  H3  5OF d   1       5.633 -14.979  -5.156  0.00  0.00     0.058 H 
BRANCH  17  20
ATOM     20  C02 5OF d   1       5.536 -12.839  -5.365  0.00  0.00     0.178 C 
ATOM     21  O01 5OF d   1       5.869 -12.725  -6.594  0.00  0.00    -0.648 OA
ATOM     22  O03 5OF d   1       5.649 -11.845  -4.594  0.00  0.00    -0.648 OA
ENDBRANCH  17  20
ENDBRANCH   4  17
TORSDOF 2
