REMARK  7 active torsions:
REMARK  status: ('A' for Active; 'I' for Inactive)
REMARK    1  A    between atoms: C10_1  and  C12_2 
REMARK       I    between atoms: C10_1  and  N3_9 
REMARK    2  A    between atoms: C24_6  and  C26_8 
REMARK    3  A    between atoms: C4_10  and  C6_11 
REMARK       I    between atoms: C6_11  and  N7_16 
REMARK    4  A    between atoms: N7_16  and  C9_17 
REMARK    5  A    between atoms: C9_17  and  C13_18 
REMARK    6  A    between atoms: C14_19  and  C20_20 
REMARK    7  A    between atoms: C20_20  and  N21_21 
ROOT
ATOM      1  C10 45S d   1       4.220  19.817  49.552  0.00  0.00     0.271 C 
ATOM      2  O11 45S d   1       5.336  20.147  49.181  0.00  0.00    -0.266 OA
ATOM      3  N3  45S d   1       3.651  20.256  50.735  0.00  0.00    -0.333 N 
ATOM      4  C4  45S d   1       4.195  21.356  51.506  0.00  0.00     0.092 C 
ATOM      5  C5  45S d   1       3.580  21.161  52.873  0.00  0.00    -0.036 C 
ATOM      6  C1  45S d   1       2.226  20.549  52.586  0.00  0.00    -0.048 C 
ATOM      7  C2  45S d   1       2.485  19.683  51.379  0.00  0.00    -0.001 C 
ATOM      8  H7  45S d   1       3.912  22.328  51.076  0.00  0.00     0.087 H 
ATOM      9  H8  45S d   1       3.471  22.124  53.393  0.00  0.00     0.036 H 
ATOM     10  H9  45S d   1       4.194  20.482  53.484  0.00  0.00     0.036 H 
ATOM     11  H10 45S d   1       1.482  21.327  52.360  0.00  0.00     0.035 H 
ATOM     12  H11 45S d   1       1.878  19.945  53.437  0.00  0.00     0.035 H 
ATOM     13  H12 45S d   1       2.686  18.646  51.686  0.00  0.00     0.064 H 
ATOM     14  H13 45S d   1       1.621  19.703  50.699  0.00  0.00     0.064 H 
ENDROOT
BRANCH   4  15
ATOM     15  C6  45S d   1       5.695  21.239  51.573  0.00  0.00     0.240 C 
ATOM     16  O8  45S d   1       6.295  20.229  51.924  0.00  0.00    -0.271 OA
ATOM     17  N7  45S d   1       6.312  22.400  51.147  0.00  0.00    -0.355 N 
ATOM     18  H14 45S d   1       5.770  23.146  50.761  0.00  0.00     0.162 HD
BRANCH  17  19
ATOM     19  C9  45S d   1       7.743  22.527  51.263  0.00  0.00     0.019 C 
ATOM     20  H15 45S d   1       8.110  21.685  51.869  0.00  0.00     0.071 H 
ATOM     21  H16 45S d   1       7.958  23.473  51.782  0.00  0.00     0.071 H 
BRANCH  19  22
ATOM     22  C13 45S d   1       8.498  22.528  49.972  0.00  0.00    -0.031 A 
ATOM     23  C14 45S d   1       9.198  21.423  49.520  0.00  0.00    -0.025 A 
ATOM     24  C15 45S d   1       9.924  21.461  48.348  0.00  0.00    -0.073 A 
ATOM     25  C16 45S d   1       9.972  22.634  47.608  0.00  0.00    -0.061 A 
ATOM     26  H22 45S d   1      10.454  20.579  48.007  0.00  0.00     0.084 H 
ATOM     27  C17 45S d   1       9.250  23.727  48.040  0.00  0.00     0.034 A 
ATOM     28  H23 45S d   1      10.568  22.690  46.704  0.00  0.00     0.086 H 
ATOM     29 CL   45S d   1       9.271  25.170  47.054  0.00  0.00    -0.084 Cl
ATOM     30  C18 45S d   1       8.529  23.690  49.216  0.00  0.00    -0.054 A 
ATOM     31  H24 45S d   1       7.987  24.568  49.548  0.00  0.00     0.087 H 
BRANCH  23  32
ATOM     32  C20 45S d   1       9.206  20.130  50.278  0.00  0.00     0.104 C 
ATOM     33  H17 45S d   1       8.957  20.327  51.331  0.00  0.00     0.082 H 
ATOM     34  H18 45S d   1      10.208  19.681  50.216  0.00  0.00     0.082 H 
BRANCH  32  35
ATOM     35  N21 45S d   1       8.208  19.180  49.709  0.00  0.00    -0.075 N 
ATOM     36  H19 45S d   1       8.229  18.318  50.231  0.00  0.00     0.274 HD
ATOM     37  H20 45S d   1       8.434  18.994  48.744  0.00  0.00     0.274 HD
ATOM     38  H21 45S d   1       7.287  19.586  49.767  0.00  0.00     0.274 HD
ENDBRANCH  32  35
ENDBRANCH  23  32
ENDBRANCH  19  22
ENDBRANCH  17  19
ENDBRANCH   4  15
BRANCH   1  39
ATOM     39  C12 45S d   1       3.492  18.929  48.685  0.00  0.00     0.101 A 
ATOM     40  C22 45S d   1       2.165  18.550  48.622  0.00  0.00    -0.050 A 
ATOM     41  C23 45S d   1       2.016  17.662  47.528  0.00  0.00    -0.059 A 
ATOM     42  H1  45S d   1       1.373  18.876  49.295  0.00  0.00     0.087 H 
ATOM     43  C24 45S d   1       3.254  17.541  46.935  0.00  0.00     0.005 A 
ATOM     44  H2  45S d   1       1.097  17.169  47.215  0.00  0.00     0.086 H 
ATOM     45  N25 45S d   1       4.128  18.305  47.653  0.00  0.00    -0.356 N 
ATOM     46  H3  45S d   1       5.132  18.398  47.444  0.00  0.00     0.166 HD
BRANCH  43  47
ATOM     47  C26 45S d   1       3.712  16.767  45.777  0.00  0.00    -0.037 C 
ATOM     48  H4  45S d   1       2.861  16.224  45.340  0.00  0.00     0.035 H 
ATOM     49  H5  45S d   1       4.481  16.048  46.097  0.00  0.00     0.035 H 
ATOM     50  H6  45S d   1       4.137  17.448  45.026  0.00  0.00     0.035 H 
ENDBRANCH  43  47
ENDBRANCH   1  39
TORSDOF 7
