REMARK  4 active torsions:
REMARK  status: ('A' for Active; 'I' for Inactive)
REMARK    1  A    between atoms: C1_1  and  S1_12 
REMARK    2  A    between atoms: N4_8  and  C2_2 
REMARK    3  A    between atoms: C3_3  and  C4_4 
REMARK       I    between atoms: C3_3  and  N4_8 
REMARK    4  A    between atoms: S1_12  and  N1_5 
ROOT
ATOM      1  C1  AZM d   1     -10.614 -39.731 -77.097  0.00  0.00     0.237 A 
ATOM      2  C2  AZM d   1     -11.482 -41.274 -78.879  0.00  0.00     0.197 A 
ATOM      3  N2  AZM d   1     -10.911 -40.111 -79.318  0.00  0.00    -0.122 NA
ATOM      4  N3  AZM d   1     -10.454 -39.284 -78.373  0.00  0.00    -0.126 NA
ATOM      5  S2  AZM d   1     -11.393 -41.222 -77.157  0.00  0.00    -0.015 SA
ENDROOT
BRANCH   2   6
ATOM      6  N4  AZM d   1     -12.043 -42.315 -79.690  0.00  0.00    -0.305 N 
ATOM      7  C3  AZM d   1     -12.622 -43.508 -79.140  0.00  0.00     0.219 C 
ATOM      8  O3  AZM d   1     -12.664 -43.688 -77.957  0.00  0.00    -0.274 OA
ATOM      9  H6  AZM d   1     -12.030 -42.205 -80.684  0.00  0.00     0.171 HD
BRANCH   7  10
ATOM     10  C4  AZM d   1     -13.199 -44.586 -80.069  0.00  0.00    -0.002 C 
ATOM     11  H1  AZM d   1     -13.594 -45.417 -79.466  0.00  0.00     0.040 H 
ATOM     12  H2  AZM d   1     -12.406 -44.960 -80.734  0.00  0.00     0.040 H 
ATOM     13  H3  AZM d   1     -14.010 -44.154 -80.673  0.00  0.00     0.040 H 
ENDBRANCH   7  10
ENDBRANCH   2   6
BRANCH   1  14
ATOM     14  S1  AZM d   1     -10.169 -38.951 -75.599  0.00  0.00     0.282 S 
ATOM     15  O1  AZM d   1     -10.843 -37.615 -75.595  0.00  0.00    -0.199 OA
ATOM     16  O2  AZM d   1     -10.676 -39.825 -74.501  0.00  0.00    -0.199 OA
BRANCH  14  17
ATOM     17  N1  AZM d   1      -8.524 -38.795 -75.516  0.00  0.00    -0.323 N 
ATOM     18  H4  AZM d   1      -8.102 -38.366 -74.717  0.00  0.00     0.169 HD
ATOM     19  H5  AZM d   1      -7.952 -39.130 -76.265  0.00  0.00     0.169 HD
ENDBRANCH  14  17
ENDBRANCH   1  14
TORSDOF 4
