REMARK  11 active torsions:
REMARK  status: ('A' for Active; 'I' for Inactive)
REMARK    1  A    between atoms: N3_1  and  C8_5 
REMARK    2  A    between atoms: C7_4  and  C11_17 
REMARK    3  A    between atoms: C12_18  and  C10_6 
REMARK    4  A    between atoms: N14_20  and  C17_7 
REMARK    5  A    between atoms: C23_26  and  C28_12 
REMARK    6  A    between atoms: C11_17  and  N13_19 
REMARK       I    between atoms: N14_20  and  C12_18 
REMARK    7  A    between atoms: N13_19  and  C16_22 
REMARK    8  A    between atoms: C18_23  and  N14_20 
REMARK    9  A    between atoms: C18_23  and  C23_26 
REMARK   10  A    between atoms: C29_29  and  C33_33 
REMARK   11  A    between atoms: C33_33  and  N34_34 
ROOT
ATOM      1  N3  4CC d   1      -4.573  20.989   9.609  0.00  0.00    -0.336 N 
ATOM      2  C4  4CC d   1      -3.858  23.146  10.640  0.00  0.00    -0.054 A 
ATOM      3  C5  4CC d   1      -1.247  22.053  10.408  0.00  0.00    -0.038 A 
ATOM      4  C7  4CC d   1      -3.867  19.927   9.148  0.00  0.00     0.124 A 
ATOM      5  C10 4CC d   1      -1.468  23.344  10.934  0.00  0.00     0.035 A 
ATOM      6  C1  4CC d   1      -3.668  21.901  10.066  0.00  0.00     0.064 A 
ATOM      7  C2  4CC d   1      -2.375  21.336   9.938  0.00  0.00     0.086 A 
ATOM      8  N6  4CC d   1      -2.584  20.109   9.373  0.00  0.00    -0.231 NA
ATOM      9  C9  4CC d   1      -2.778  23.843  11.060  0.00  0.00    -0.065 A 
ATOM     10  H1  4CC d   1      -4.856  23.555  10.751  0.00  0.00     0.087 H 
ATOM     11  H2  4CC d   1      -0.252  21.626  10.365  0.00  0.00     0.088 H 
ATOM     12  H10 4CC d   1      -2.926  24.819  11.509  0.00  0.00     0.085 H 
ENDROOT
BRANCH   4  13
ATOM     13  C11 4CC d   1      -4.548  18.709   8.559  0.00  0.00     0.047 C 
ATOM     14  H11 4CC d   1      -5.254  19.040   7.784  0.00  0.00     0.075 H 
ATOM     15  H12 4CC d   1      -5.098  18.191   9.358  0.00  0.00     0.075 H 
BRANCH  13  16
ATOM     16  N13 4CC d   1      -3.597  17.772   7.959  0.00  0.00    -0.383 N 
ATOM     17  H13 4CC d   1      -2.763  17.477   8.487  0.00  0.00     0.160 HD
BRANCH  16  18
ATOM     18  C16 4CC d   1      -3.819  17.275   6.668  0.00  0.00     0.028 A 
ATOM     19  C20 4CC d   1      -5.036  17.517   5.993  0.00  0.00    -0.057 A 
ATOM     20  C25 4CC d   1      -5.241  17.024   4.714  0.00  0.00    -0.067 A 
ATOM     21  H6  4CC d   1      -5.816  18.093   6.479  0.00  0.00     0.086 H 
ATOM     22  C29 4CC d   1      -4.231  16.262   4.102  0.00  0.00     0.007 A 
ATOM     23  H19 4CC d   1      -6.170  17.224   4.192  0.00  0.00     0.085 H 
ATOM     24  C24 4CC d   1      -3.010  16.049   4.775  0.00  0.00    -0.067 A 
ATOM     25  C19 4CC d   1      -2.805  16.539   6.045  0.00  0.00    -0.057 A 
ATOM     26  H8  4CC d   1      -2.221  15.491   4.285  0.00  0.00     0.085 H 
ATOM     27  H16 4CC d   1      -1.867  16.357   6.557  0.00  0.00     0.086 H 
BRANCH  22  28
ATOM     28  C33 4CC d   1      -4.413  15.722   2.730  0.00  0.00     0.102 C 
ATOM     29  N35 4CC d   1      -4.320  14.405   2.501  0.00  0.00    -0.385 N 
ATOM     30  H24 4CC d   1      -4.124  13.759   3.279  0.00  0.00     0.157 HD
ATOM     31  H25 4CC d   1      -4.444  14.038   1.547  0.00  0.00     0.157 HD
BRANCH  28  32
ATOM     32  N34 4CC d   1      -4.667  16.551   1.716  0.00  0.00    -0.385 N 
ATOM     33  H22 4CC d   1      -4.793  16.177   0.764  0.00  0.00     0.157 HD
ATOM     34  H23 4CC d   1      -4.737  17.565   1.885  0.00  0.00     0.157 HD
ENDBRANCH  28  32
ENDBRANCH  22  28
ENDBRANCH  16  18
ENDBRANCH  13  16
ENDBRANCH   4  13
BRANCH   1  35
ATOM     35  C8  4CC d   1      -6.032  21.142   9.656  0.00  0.00    -0.012 C 
ATOM     36  H3  4CC d   1      -6.508  20.253   9.218  0.00  0.00     0.057 H 
ATOM     37  H4  4CC d   1      -6.326  22.035   9.084  0.00  0.00     0.057 H 
ATOM     38  H5  4CC d   1      -6.356  21.254  10.701  0.00  0.00     0.057 H 
ENDBRANCH   1  35
BRANCH   5  39
ATOM     39  C12 4CC d   1      -0.531  24.284  11.577  0.00  0.00     0.259 C 
ATOM     40  N14 4CC d   1       0.009  24.050  12.809  0.00  0.00    -0.298 N 
ATOM     41  O15 4CC d   1      -0.515  25.422  11.133  0.00  0.00    -0.267 OA
BRANCH  40  42
ATOM     42  C17 4CC d   1       0.018  22.815  13.443  0.00  0.00     0.132 A 
ATOM     43  C21 4CC d   1       1.012  21.915  13.057  0.00  0.00    -0.038 A 
ATOM     44  C26 4CC d   1       1.112  20.704  13.724  0.00  0.00    -0.078 A 
ATOM     45  H7  4CC d   1       1.694  22.159  12.250  0.00  0.00     0.089 H 
ATOM     46  C30 4CC d   1       0.237  20.447  14.777  0.00  0.00    -0.066 A 
ATOM     47  H9  4CC d   1       1.856  19.972  13.432  0.00  0.00     0.083 H 
ATOM     48  C27 4CC d   1      -0.695  21.408  15.137  0.00  0.00     0.004 A 
ATOM     49  H21 4CC d   1       0.284  19.504  15.310  0.00  0.00     0.085 H 
ATOM     50  N22 4CC d   1      -0.769  22.559  14.484  0.00  0.00    -0.243 NA
ATOM     51  H20 4CC d   1      -1.371  21.216  15.962  0.00  0.00     0.114 H 
ENDBRANCH  40  42
BRANCH  40  52
ATOM     52  C18 4CC d   1       0.712  25.117  13.540  0.00  0.00     0.013 C 
ATOM     53  H14 4CC d   1       1.141  25.858  12.850  0.00  0.00     0.065 H 
ATOM     54  H15 4CC d   1       1.508  24.706  14.179  0.00  0.00     0.065 H 
BRANCH  52  55
ATOM     55  C23 4CC d   1      -0.426  25.732  14.387  0.00  0.00     0.031 C 
ATOM     56  H17 4CC d   1      -0.882  26.540  13.797  0.00  0.00     0.051 H 
ATOM     57  H18 4CC d   1      -1.172  24.944  14.567  0.00  0.00     0.051 H 
BRANCH  55  58
ATOM     58  C28 4CC d   1      -0.032  26.310  15.733  0.00  0.00     0.174 C 
ATOM     59  O31 4CC d   1       0.181  25.595  16.708  0.00  0.00    -0.648 OA
ATOM     60  O32 4CC d   1       0.031  27.523  15.856  0.00  0.00    -0.648 OA
ENDBRANCH  55  58
ENDBRANCH  52  55
ENDBRANCH  40  52
ENDBRANCH   5  39
TORSDOF 11
