REMARK  11 active torsions:
REMARK  status: ('A' for Active; 'I' for Inactive)
REMARK    1  A    between atoms: N3_1  and  C8_5 
REMARK    2  A    between atoms: C7_4  and  C11_17 
REMARK    3  A    between atoms: C12_18  and  C10_6 
REMARK    4  A    between atoms: N14_20  and  C17_7 
REMARK    5  A    between atoms: C23_26  and  C28_12 
REMARK    6  A    between atoms: C11_17  and  N13_19 
REMARK       I    between atoms: N14_20  and  C12_18 
REMARK    7  A    between atoms: N13_19  and  C16_22 
REMARK    8  A    between atoms: C18_23  and  N14_20 
REMARK    9  A    between atoms: C18_23  and  C23_26 
REMARK   10  A    between atoms: C29_29  and  C33_33 
REMARK   11  A    between atoms: C33_33  and  N34_34 
ROOT
ATOM      1  N3  4CC d   1       4.463 -20.706  11.812  0.00  0.00    -0.336 N 
ATOM      2  C4  4CC d   1       3.549 -22.866  12.784  0.00  0.00    -0.054 A 
ATOM      3  C5  4CC d   1       1.064 -21.625  12.281  0.00  0.00    -0.038 A 
ATOM      4  C7  4CC d   1       3.768 -19.580  11.326  0.00  0.00     0.124 A 
ATOM      5  C10 4CC d   1       1.125 -22.901  12.847  0.00  0.00     0.035 A 
ATOM      6  C1  4CC d   1       3.478 -21.596  12.224  0.00  0.00     0.064 A 
ATOM      7  C2  4CC d   1       2.260 -20.969  11.970  0.00  0.00     0.086 A 
ATOM      8  N6  4CC d   1       2.462 -19.707  11.407  0.00  0.00    -0.231 NA
ATOM      9  C9  4CC d   1       2.360 -23.505  13.088  0.00  0.00    -0.065 A 
ATOM     10  H1  4CC d   1       4.505 -23.340  12.976  0.00  0.00     0.087 H 
ATOM     11  H2  4CC d   1       0.108 -21.152  12.086  0.00  0.00     0.088 H 
ATOM     12  H10 4CC d   1       2.388 -24.497  13.523  0.00  0.00     0.085 H 
ENDROOT
BRANCH   4  13
ATOM     13  C11 4CC d   1       4.442 -18.324  10.761  0.00  0.00     0.047 C 
ATOM     14  H11 4CC d   1       5.233 -18.620  10.056  0.00  0.00     0.075 H 
ATOM     15  H12 4CC d   1       4.883 -17.744  11.585  0.00  0.00     0.075 H 
BRANCH  13  16
ATOM     16  N13 4CC d   1       3.460 -17.506  10.068  0.00  0.00    -0.383 N 
ATOM     17  H13 4CC d   1       2.588 -17.258  10.557  0.00  0.00     0.160 HD
BRANCH  16  18
ATOM     18  C16 4CC d   1       3.651 -17.048   8.778  0.00  0.00     0.028 A 
ATOM     19  C20 4CC d   1       2.668 -16.284   8.158  0.00  0.00    -0.057 A 
ATOM     20  C25 4CC d   1       2.847 -15.845   6.859  0.00  0.00    -0.067 A 
ATOM     21  H6  4CC d   1       1.760 -16.032   8.694  0.00  0.00     0.086 H 
ATOM     22  C29 4CC d   1       4.038 -16.095   6.183  0.00  0.00     0.007 A 
ATOM     23  H19 4CC d   1       2.052 -15.301   6.362  0.00  0.00     0.085 H 
ATOM     24  C24 4CC d   1       5.016 -16.865   6.804  0.00  0.00    -0.067 A 
ATOM     25  C19 4CC d   1       4.839 -17.312   8.101  0.00  0.00    -0.057 A 
ATOM     26  H8  4CC d   1       5.924 -17.117   6.268  0.00  0.00     0.085 H 
ATOM     27  H16 4CC d   1       5.628 -17.870   8.592  0.00  0.00     0.086 H 
BRANCH  22  28
ATOM     28  C33 4CC d   1       4.237 -15.601   4.806  0.00  0.00     0.102 C 
ATOM     29  N35 4CC d   1       4.438 -16.452   3.830  0.00  0.00    -0.385 N 
ATOM     30  H24 4CC d   1       4.460 -17.463   4.025  0.00  0.00     0.157 HD
ATOM     31  H25 4CC d   1       4.574 -16.110   2.868  0.00  0.00     0.157 HD
BRANCH  28  32
ATOM     32  N34 4CC d   1       4.208 -14.311   4.566  0.00  0.00    -0.385 N 
ATOM     33  H22 4CC d   1       4.346 -13.962   3.607  0.00  0.00     0.157 HD
ATOM     34  H23 4CC d   1       4.047 -13.647   5.337  0.00  0.00     0.157 HD
ENDBRANCH  28  32
ENDBRANCH  22  28
ENDBRANCH  16  18
ENDBRANCH  13  16
ENDBRANCH   4  13
BRANCH   1  35
ATOM     35  C8  4CC d   1       5.908 -20.949  11.893  0.00  0.00    -0.012 C 
ATOM     36  H3  4CC d   1       6.449 -20.077  11.497  0.00  0.00     0.057 H 
ATOM     37  H4  4CC d   1       6.164 -21.840  11.300  0.00  0.00     0.057 H 
ATOM     38  H5  4CC d   1       6.194 -21.113  12.943  0.00  0.00     0.057 H 
ENDBRANCH   1  35
BRANCH   5  39
ATOM     39  C12 4CC d   1      -0.114 -23.661  13.198  0.00  0.00     0.259 C 
ATOM     40  N14 4CC d   1      -0.961 -23.191  14.164  0.00  0.00    -0.298 N 
ATOM     41  O15 4CC d   1      -0.352 -24.692  12.592  0.00  0.00    -0.267 OA
BRANCH  40  42
ATOM     42  C17 4CC d   1      -0.634 -22.246  15.161  0.00  0.00     0.132 A 
ATOM     43  C21 4CC d   1      -1.264 -20.990  15.172  0.00  0.00    -0.038 A 
ATOM     44  C26 4CC d   1      -0.908 -20.102  16.175  0.00  0.00    -0.078 A 
ATOM     45  H7  4CC d   1      -2.002 -20.725  14.423  0.00  0.00     0.089 H 
ATOM     46  C30 4CC d   1       0.034 -20.464  17.116  0.00  0.00    -0.066 A 
ATOM     47  H9  4CC d   1      -1.370 -19.122  16.220  0.00  0.00     0.083 H 
ATOM     48  C27 4CC d   1       0.599 -21.723  17.023  0.00  0.00     0.004 A 
ATOM     49  H21 4CC d   1       0.323 -19.781  17.906  0.00  0.00     0.085 H 
ATOM     50  N22 4CC d   1       0.283 -22.615  16.067  0.00  0.00    -0.243 NA
ATOM     51  H20 4CC d   1       1.339 -22.007  17.763  0.00  0.00     0.114 H 
ENDBRANCH  40  42
BRANCH  40  52
ATOM     52  C18 4CC d   1      -2.323 -23.748  14.249  0.00  0.00     0.013 C 
ATOM     53  H14 4CC d   1      -2.621 -24.114  13.255  0.00  0.00     0.065 H 
ATOM     54  H15 4CC d   1      -3.013 -22.954  14.569  0.00  0.00     0.065 H 
BRANCH  52  55
ATOM     55  C23 4CC d   1      -2.402 -24.898  15.241  0.00  0.00     0.031 C 
ATOM     56  H17 4CC d   1      -1.703 -25.683  14.916  0.00  0.00     0.051 H 
ATOM     57  H18 4CC d   1      -2.099 -24.523  16.230  0.00  0.00     0.051 H 
BRANCH  55  58
ATOM     58  C28 4CC d   1      -3.784 -25.512  15.367  0.00  0.00     0.174 C 
ATOM     59  O31 4CC d   1      -4.715 -24.783  15.784  0.00  0.00    -0.648 OA
ATOM     60  O32 4CC d   1      -3.917 -26.718  15.054  0.00  0.00    -0.648 OA
ENDBRANCH  55  58
ENDBRANCH  52  55
ENDBRANCH  40  52
ENDBRANCH   5  39
TORSDOF 11
