REMARK  1 active torsions:
REMARK  status: ('A' for Active; 'I' for Inactive)
REMARK    1  A    between atoms: C1_1  and  C2_2 
ROOT
ATOM      1  C2   98 d   1     -31.756   3.054 -38.838  0.00  0.00     0.014 C 
ATOM      2  C3   98 d   1     -32.604   3.476 -40.037  0.00  0.00     0.028 C 
ATOM      3  C4   98 d   1     -34.074   3.644 -39.678  0.00  0.00     0.224 C 
ATOM      4  O    98 d   1     -34.540   4.774 -39.492  0.00  0.00    -0.273 OA
ATOM      5  N1   98 d   1     -34.852   2.583 -39.514  0.00  0.00    -0.325 N 
ATOM      6  C5   98 d   1     -34.411   1.326 -39.566  0.00  0.00     0.061 A 
ATOM      7  C10  98 d   1     -35.247   0.399 -40.203  0.00  0.00    -0.055 A 
ATOM      8  C9   98 d   1     -34.788  -0.940 -40.259  0.00  0.00    -0.081 A 
ATOM      9  C8   98 d   1     -33.552  -1.287 -39.713  0.00  0.00    -0.081 A 
ATOM     10  C7   98 d   1     -32.742  -0.339 -39.097  0.00  0.00    -0.055 A 
ATOM     11  C6   98 d   1     -33.165   0.972 -39.021  0.00  0.00     0.055 A 
ATOM     12  N2   98 d   1     -32.284   1.785 -38.371  0.00  0.00    -0.383 N 
ATOM     13  H4   98 d   1     -30.714   2.909 -39.159  0.00  0.00     0.072 H 
ATOM     14  H5   98 d   1     -32.517   2.708 -40.819  0.00  0.00     0.050 H 
ATOM     15  H6   98 d   1     -32.222   4.434 -40.420  0.00  0.00     0.050 H 
ATOM     16  H7   98 d   1     -35.825   2.734 -39.341  0.00  0.00     0.169 HD
ATOM     17  H8   98 d   1     -36.198   0.692 -40.632  0.00  0.00     0.087 H 
ATOM     18  H9   98 d   1     -35.401  -1.700 -40.729  0.00  0.00     0.083 H 
ATOM     19  H10  98 d   1     -33.216  -2.316 -39.770  0.00  0.00     0.083 H 
ATOM     20  H11  98 d   1     -31.785  -0.628 -38.679  0.00  0.00     0.087 H 
ATOM     21  H12  98 d   1     -31.958   1.464 -37.448  0.00  0.00     0.160 HD
ENDROOT
BRANCH   1  22
ATOM     22  C1   98 d   1     -31.780   4.133 -37.777  0.00  0.00    -0.057 C 
ATOM     23  H1   98 d   1     -31.369   5.065 -38.192  0.00  0.00     0.030 H 
ATOM     24  H2   98 d   1     -31.172   3.815 -36.917  0.00  0.00     0.030 H 
ATOM     25  H3   98 d   1     -32.816   4.303 -37.450  0.00  0.00     0.030 H 
ENDBRANCH   1  22
TORSDOF 1
