REMARK  3 active torsions:
REMARK  status: ('A' for Active; 'I' for Inactive)
REMARK    1  A    between atoms: N_1  and  CA_2 
REMARK    2  A    between atoms: CA_2  and  C_3 
REMARK    3  A    between atoms: CA_2  and  CB_5 
ROOT
ATOM      1  CA  ALA d   1       8.938  60.469  43.989  0.00  0.00     0.179 C 
ATOM      2  H4  ALA d   1       8.136  60.572  43.243  0.00  0.00     0.100 H 
ENDROOT
BRANCH   1   3
ATOM      3  N   ALA d   1      10.005  61.460  43.689  0.00  0.00    -0.066 N 
ATOM      4  H1  ALA d   1      10.383  61.280  42.772  0.00  0.00     0.275 HD
ATOM      5  H2  ALA d   1      10.739  61.382  44.376  0.00  0.00     0.275 HD
ATOM      6  H3  ALA d   1       9.617  62.390  43.716  0.00  0.00     0.275 HD
ENDBRANCH   1   3
BRANCH   1   7
ATOM      7  C   ALA d   1       8.352  60.720  45.369  0.00  0.00     0.204 C 
ATOM      8  O   ALA d   1       7.365  60.072  45.773  0.00  0.00    -0.646 OA
ATOM      9  OXT ALA d   1       8.861  61.602  46.082  0.00  0.00    -0.646 OA
ENDBRANCH   1   7
BRANCH   1  10
ATOM     10  CB  ALA d   1       9.508  59.082  43.900  0.00  0.00    -0.040 C 
ATOM     11  H5  ALA d   1       8.720  58.347  44.122  0.00  0.00     0.030 H 
ATOM     12  H6  ALA d   1      10.325  58.974  44.628  0.00  0.00     0.030 H 
ATOM     13  H7  ALA d   1       9.896  58.909  42.885  0.00  0.00     0.030 H 
ENDBRANCH   1  10
TORSDOF 3
