REMARK  4 active torsions:
REMARK  status: ('A' for Active; 'I' for Inactive)
REMARK    1  A    between atoms: N_1  and  CA_2 
REMARK    2  A    between atoms: CA_2  and  C_3 
REMARK    3  A    between atoms: CA_2  and  CB_6 
REMARK    4  A    between atoms: CB_6  and  OG_7 
ROOT
ATOM      1  CA  DSN d   1       9.082  60.202  44.322  0.00  0.00     0.202 C 
ATOM      2  H4  DSN d   1       9.875  59.545  44.709  0.00  0.00     0.104 H 
ENDROOT
BRANCH   1   3
ATOM      3  N   DSN d   1       9.708  61.364  43.705  0.00  0.00    -0.063 N 
ATOM      4  H1  DSN d   1      10.291  61.065  42.940  0.00  0.00     0.275 HD
ATOM      5  H2  DSN d   1      10.271  61.845  44.389  0.00  0.00     0.275 HD
ATOM      6  H3  DSN d   1       8.994  61.986  43.360  0.00  0.00     0.275 HD
ENDBRANCH   1   3
BRANCH   1   7
ATOM      7  C   DSN d   1       8.195  60.624  45.481  0.00  0.00     0.206 C 
ATOM      8  O   DSN d   1       7.107  60.062  45.734  0.00  0.00    -0.646 OA
ATOM      9  OXT DSN d   1       8.579  61.558  46.186  0.00  0.00    -0.646 OA
ENDBRANCH   1   7
BRANCH   1  10
ATOM     10  CB  DSN d   1       8.268  59.426  43.300  0.00  0.00     0.053 C 
ATOM     11  H5  DSN d   1       8.072  58.416  43.689  0.00  0.00     0.077 H 
ATOM     12  H6  DSN d   1       8.841  59.354  42.364  0.00  0.00     0.077 H 
BRANCH  10  13
ATOM     13  OG  DSN d   1       7.040  60.066  43.040  0.00  0.00    -0.398 OA
ATOM     14  H7  DSN d   1       7.204  60.938  42.700  0.00  0.00     0.209 HD
ENDBRANCH  10  13
ENDBRANCH   1  10
TORSDOF 4
