REMARK  6 active torsions:
REMARK  status: ('A' for Active; 'I' for Inactive)
REMARK    1  A    between atoms: CA_2  and  C_4 
REMARK    2  A    between atoms: CG_15  and  CB_3 
REMARK    3  A    between atoms: CAR_9  and  C1_18 
REMARK    4  A    between atoms: CAZ_12  and  CAV_10 
REMARK    5  A    between atoms: C1_18  and  C2_19 
REMARK    6  A    between atoms: C2_19  and  C3_20 
ROOT
ATOM      1  N   4E7 d   1      -1.074  38.141 -11.557  0.00  0.00    -0.060 N 
ATOM      2  CA  4E7 d   1      -0.407  39.255 -12.268  0.00  0.00     0.192 C 
ATOM      3  CB  4E7 d   1       0.077  38.680 -13.630  0.00  0.00     0.014 C 
ATOM      4  CAQ 4E7 d   1      -1.048  36.948 -12.449  0.00  0.00     0.087 C 
ATOM      5  CAR 4E7 d   1       0.171  37.160 -13.364  0.00  0.00    -0.021 C 
ATOM      6  H1  4E7 d   1      -2.028  38.391 -11.347  0.00  0.00     0.278 HD
ATOM      7  H2  4E7 d   1      -0.583  37.939 -10.700  0.00  0.00     0.278 HD
ATOM      8  H3  4E7 d   1       0.463  39.611 -11.697  0.00  0.00     0.102 H 
ATOM      9  H4  4E7 d   1      -0.689  38.863 -14.398  0.00  0.00     0.052 H 
ATOM     10  H6  4E7 d   1      -1.972  36.890 -13.043  0.00  0.00     0.076 H 
ATOM     11  H7  4E7 d   1      -0.933  36.027 -11.859  0.00  0.00     0.076 H 
ATOM     12  H8  4E7 d   1       1.088  36.962 -12.790  0.00  0.00     0.043 H 
ENDROOT
BRANCH   3  13
ATOM     13  CG  4E7 d   1       1.364  39.325 -14.115  0.00  0.00    -0.050 A 
ATOM     14  CD1 4E7 d   1       1.401  40.165 -15.251  0.00  0.00    -0.076 A 
ATOM     15  CAY 4E7 d   1       2.619  40.738 -15.676  0.00  0.00    -0.081 A 
ATOM     16  H10 4E7 d   1       0.489  40.370 -15.799  0.00  0.00     0.084 H 
ATOM     17  CAM 4E7 d   1       3.821  40.504 -14.956  0.00  0.00    -0.066 A 
ATOM     18  H9  4E7 d   1       2.637  41.363 -16.561  0.00  0.00     0.083 H 
ATOM     19  CAZ 4E7 d   1       3.789  39.659 -13.823  0.00  0.00     0.041 A 
ATOM     20  H5  4E7 d   1       4.749  40.967 -15.271  0.00  0.00     0.085 H 
ATOM     21  CD2 4E7 d   1       2.566  39.078 -13.415  0.00  0.00    -0.060 A 
ATOM     22  H11 4E7 d   1       2.550  38.429 -12.547  0.00  0.00     0.086 H 
BRANCH  19  23
ATOM     23  CAV 4E7 d   1       5.007  39.332 -13.039  0.00  0.00     0.209 C 
ATOM     24  OAA 4E7 d   1       5.038  38.200 -12.514  0.00  0.00    -0.644 OA
ATOM     25  OAC 4E7 d   1       5.945  40.152 -12.922  0.00  0.00    -0.644 OA
ENDBRANCH  19  23
ENDBRANCH   3  13
BRANCH   2  26
ATOM     26  C   4E7 d   1      -1.433  40.410 -12.391  0.00  0.00     0.205 C 
ATOM     27  O   4E7 d   1      -2.535  40.347 -11.797  0.00  0.00    -0.646 OA
ATOM     28  OXT 4E7 d   1      -1.118  41.388 -13.077  0.00  0.00    -0.646 OA
ENDBRANCH   2  26
BRANCH   5  29
ATOM     29  C1  4E7 d   1       0.234  36.219 -14.602  0.00  0.00    -0.060 C 
ATOM     30  H12 4E7 d   1       1.172  36.418 -15.141  0.00  0.00     0.033 H 
ATOM     31  H13 4E7 d   1      -0.620  36.450 -15.256  0.00  0.00     0.033 H 
BRANCH  29  32
ATOM     32  C2  4E7 d   1       0.185  34.717 -14.251  0.00  0.00    -0.068 C 
ATOM     33  H14 4E7 d   1      -0.856  34.370 -14.331  0.00  0.00     0.032 H 
ATOM     34  H15 4E7 d   1       0.537  34.585 -13.217  0.00  0.00     0.032 H 
BRANCH  32  35
ATOM     35  C3  4E7 d   1       1.063  33.863 -15.184  0.00  0.00    -0.077 C 
ATOM     36  H16 4E7 d   1       0.991  32.806 -14.889  0.00  0.00     0.027 H 
ATOM     37  H17 4E7 d   1       2.109  34.194 -15.108  0.00  0.00     0.027 H 
ATOM     38  H18 4E7 d   1       0.717  33.979 -16.221  0.00  0.00     0.027 H 
ENDBRANCH  32  35
ENDBRANCH  29  32
ENDBRANCH   5  29
TORSDOF 6
