REMARK  12 active torsions:
REMARK  status: ('A' for Active; 'I' for Inactive)
REMARK    1  A    between atoms: N_1  and  CA_2 
REMARK    2  A    between atoms: CA_2  and  C_3 
REMARK    3  A    between atoms: CA_2  and  CB_6 
REMARK    4  A    between atoms: CB_6  and  CG_7 
REMARK    5  A    between atoms: CG_7  and  SD_8 
REMARK    6  A    between atoms: SD_8  and  CE_9 
REMARK    7  A    between atoms: SD_8  and  C5'_10 
REMARK    8  A    between atoms: C5'_10  and  C4'_11 
REMARK    9  A    between atoms: C3'_13  and  O3'_14 
REMARK   10  A    between atoms: C2'_15  and  O2'_16 
REMARK   11  A    between atoms: C1'_17  and  N9_18 
REMARK   12  A    between atoms: C6_22  and  N6_23 
ROOT
ATOM      1  C4' SAM d   1      -4.455   3.136 -21.382  0.00  0.00     0.076 C 
ATOM      2  O4' SAM d   1      -3.326   2.309 -21.576  0.00  0.00    -0.355 OA
ATOM      3  C3' SAM d   1      -5.337   2.962 -22.615  0.00  0.00     0.090 C 
ATOM      4  C2' SAM d   1      -4.689   1.838 -23.418  0.00  0.00     0.105 C 
ATOM      5  C1' SAM d   1      -3.257   1.915 -22.936  0.00  0.00     0.139 C 
ATOM      6  H14 SAM d   1      -4.142   4.188 -21.304  0.00  0.00     0.088 H 
ATOM      7  H15 SAM d   1      -6.370   2.711 -22.334  0.00  0.00     0.091 H 
ATOM      8  H17 SAM d   1      -5.143   0.870 -23.161  0.00  0.00     0.093 H 
ATOM      9  H19 SAM d   1      -2.702   2.656 -23.531  0.00  0.00     0.122 H 
ENDROOT
BRANCH   1  10
ATOM     10  C5' SAM d   1      -5.160   2.736 -20.086  0.00  0.00    -0.005 C 
ATOM     11  H12 SAM d   1      -5.705   1.797 -20.265  0.00  0.00     0.051 H 
ATOM     12  H13 SAM d   1      -4.395   2.574 -19.313  0.00  0.00     0.051 H 
BRANCH  10  13
ATOM     13  SD  SAM d   1      -6.341   3.972 -19.469  0.00  0.00    -0.221 SA
BRANCH  13  14
ATOM     14  CG  SAM d   1      -5.255   5.298 -18.847  0.00  0.00    -0.029 C 
ATOM     15  H7  SAM d   1      -4.705   4.933 -17.967  0.00  0.00     0.047 H 
ATOM     16  H8  SAM d   1      -4.540   5.580 -19.634  0.00  0.00     0.047 H 
BRANCH  14  17
ATOM     17  CB  SAM d   1      -6.077   6.523 -18.453  0.00  0.00    -0.022 C 
ATOM     18  H5  SAM d   1      -6.752   6.754 -19.291  0.00  0.00     0.037 H 
ATOM     19  H6  SAM d   1      -6.671   6.253 -17.567  0.00  0.00     0.037 H 
BRANCH  17  20
ATOM     20  CA  SAM d   1      -5.300   7.802 -18.118  0.00  0.00     0.183 C 
ATOM     21  H4  SAM d   1      -5.080   8.315 -19.066  0.00  0.00     0.101 H 
BRANCH  20  22
ATOM     22  N   SAM d   1      -4.018   7.548 -17.464  0.00  0.00    -0.065 N 
ATOM     23  H1  SAM d   1      -3.459   6.941 -18.044  0.00  0.00     0.275 HD
ATOM     24  H2  SAM d   1      -4.178   7.107 -16.572  0.00  0.00     0.275 HD
ATOM     25  H3  SAM d   1      -3.533   8.421 -17.325  0.00  0.00     0.275 HD
ENDBRANCH  20  22
BRANCH  20  26
ATOM     26  C   SAM d   1      -6.190   8.713 -17.291  0.00  0.00     0.204 C 
ATOM     27  O   SAM d   1      -7.165   9.271 -17.798  0.00  0.00    -0.646 OA
ATOM     28  OXT SAM d   1      -5.961   8.905 -16.100  0.00  0.00    -0.646 OA
ENDBRANCH  20  26
ENDBRANCH  17  20
ENDBRANCH  14  17
ENDBRANCH  13  14
BRANCH  13  29
ATOM     29  CE  SAM d   1      -6.767   3.187 -17.878  0.00  0.00    -0.042 C 
ATOM     30  H9  SAM d   1      -7.440   2.336 -18.058  0.00  0.00     0.040 H 
ATOM     31  H10 SAM d   1      -7.269   3.921 -17.230  0.00  0.00     0.040 H 
ATOM     32  H11 SAM d   1      -5.849   2.832 -17.387  0.00  0.00     0.040 H 
ENDBRANCH  13  29
ENDBRANCH  10  13
ENDBRANCH   1  10
BRANCH   3  33
ATOM     33  O3' SAM d   1      -5.306   4.142 -23.384  0.00  0.00    -0.390 OA
ATOM     34  H16 SAM d   1      -4.413   4.319 -23.655  0.00  0.00     0.210 HD
ENDBRANCH   3  33
BRANCH   5  35
ATOM     35  N9  SAM d   1      -2.568   0.628 -22.997  0.00  0.00    -0.294 N 
ATOM     36  C8  SAM d   1      -3.053  -0.612 -22.660  0.00  0.00     0.071 A 
ATOM     37  N7  SAM d   1      -2.057  -1.510 -22.841  0.00  0.00    -0.236 NA
ATOM     38  H20 SAM d   1      -4.060  -0.833 -22.309  0.00  0.00     0.144 H 
ATOM     39  C5  SAM d   1      -0.956  -0.853 -23.278  0.00  0.00     0.149 A 
ATOM     40  C6  SAM d   1       0.321  -1.268 -23.613  0.00  0.00     0.155 A 
ATOM     41  C4  SAM d   1      -1.269   0.498 -23.367  0.00  0.00     0.167 A 
ATOM     42  N1  SAM d   1       1.236  -0.324 -24.028  0.00  0.00    -0.222 NA
ATOM     43  C2  SAM d   1       0.906   1.015 -24.111  0.00  0.00     0.091 A 
ATOM     44  N3  SAM d   1      -0.365   1.423 -23.778  0.00  0.00    -0.222 NA
ATOM     45  H23 SAM d   1       1.644   1.740 -24.436  0.00  0.00     0.146 H 
BRANCH  40  46
ATOM     46  N6  SAM d   1       0.667  -2.555 -23.542  0.00  0.00    -0.382 N 
ATOM     47  H21 SAM d   1       1.622  -2.846 -23.795  0.00  0.00     0.157 HD
ATOM     48  H22 SAM d   1      -0.021  -3.257 -23.234  0.00  0.00     0.157 HD
ENDBRANCH  40  46
ENDBRANCH   5  35
BRANCH   4  49
ATOM     49  O2' SAM d   1      -4.760   2.013 -24.819  0.00  0.00    -0.388 OA
ATOM     50  H18 SAM d   1      -4.318   2.819 -25.059  0.00  0.00     0.210 HD
ENDBRANCH   4  49
TORSDOF 12
