REMARK  10 active torsions:
REMARK  status: ('A' for Active; 'I' for Inactive)
REMARK    1  A    between atoms: N_1  and  CA_2 
REMARK    2  A    between atoms: CA_2  and  CB_3 
REMARK    3  A    between atoms: CA_2  and  C_6 
REMARK    4  A    between atoms: CB_3  and  CG_4 
REMARK    5  A    between atoms: CG_4  and  SD_5 
REMARK    6  A    between atoms: SD_5  and  C5'_9 
REMARK    7  A    between atoms: C5'_9  and  C4'_10 
REMARK    8  A    between atoms: C3'_12  and  O3'_13 
REMARK    9  A    between atoms: C2'_14  and  O2'_15 
REMARK   10  A    between atoms: C1'_16  and  N9_17 
ROOT
ATOM      1  C4' SAH d   1      40.179 272.403 162.931  0.00  0.00     0.076 C 
ATOM      2  O4' SAH d   1      40.503 272.123 164.280  0.00  0.00    -0.355 OA
ATOM      3  C3' SAH d   1      41.185 273.433 162.477  0.00  0.00     0.090 C 
ATOM      4  C2' SAH d   1      42.140 273.567 163.635  0.00  0.00     0.105 C 
ATOM      5  C1' SAH d   1      41.312 273.137 164.821  0.00  0.00     0.139 C 
ATOM      6  H11 SAH d   1      39.164 272.821 162.860  0.00  0.00     0.088 H 
ATOM      7  H12 SAH d   1      41.712 273.089 161.575  0.00  0.00     0.091 H 
ATOM      8  H14 SAH d   1      42.973 272.861 163.502  0.00  0.00     0.093 H 
ATOM      9  H16 SAH d   1      40.706 273.977 165.191  0.00  0.00     0.122 H 
ENDROOT
BRANCH   1  10
ATOM     10  C5' SAH d   1      40.242 271.118 162.120  0.00  0.00     0.003 C 
ATOM     11  H9  SAH d   1      41.292 270.793 162.074  0.00  0.00     0.052 H 
ATOM     12  H10 SAH d   1      39.644 270.355 162.640  0.00  0.00     0.052 H 
BRANCH  10  13
ATOM     13  SD  SAH d   1      39.643 271.259 160.486  0.00  0.00    -0.166 SA
BRANCH  13  14
ATOM     14  CG  SAH d   1      37.935 271.365 160.871  0.00  0.00    -0.021 C 
ATOM     15  H7  SAH d   1      37.626 270.449 161.397  0.00  0.00     0.049 H 
ATOM     16  H8  SAH d   1      37.765 272.236 161.521  0.00  0.00     0.049 H 
BRANCH  14  17
ATOM     17  CB  SAH d   1      37.102 271.518 159.602  0.00  0.00    -0.021 C 
ATOM     18  H5  SAH d   1      37.518 272.362 159.033  0.00  0.00     0.037 H 
ATOM     19  H6  SAH d   1      37.215 270.592 159.019  0.00  0.00     0.037 H 
BRANCH  17  20
ATOM     20  CA  SAH d   1      35.607 271.773 159.773  0.00  0.00     0.183 C 
ATOM     21  H4  SAH d   1      35.458 272.836 160.013  0.00  0.00     0.101 H 
BRANCH  20  22
ATOM     22  N   SAH d   1      35.057 270.992 160.845  0.00  0.00    -0.065 N 
ATOM     23  H1  SAH d   1      35.537 271.214 161.703  0.00  0.00     0.275 HD
ATOM     24  H2  SAH d   1      35.172 270.012 160.640  0.00  0.00     0.275 HD
ATOM     25  H3  SAH d   1      34.076 271.202 160.945  0.00  0.00     0.275 HD
ENDBRANCH  20  22
BRANCH  20  26
ATOM     26  C   SAH d   1      34.917 271.472 158.470  0.00  0.00     0.204 C 
ATOM     27  O   SAH d   1      34.967 272.271 157.565  0.00  0.00    -0.646 OA
ATOM     28  OXT SAH d   1      34.321 270.413 158.345  0.00  0.00    -0.646 OA
ENDBRANCH  20  26
ENDBRANCH  17  20
ENDBRANCH  14  17
ENDBRANCH  13  14
ENDBRANCH  10  13
ENDBRANCH   1  10
BRANCH   3  29
ATOM     29  O3' SAH d   1      40.559 274.666 162.214  0.00  0.00    -0.390 OA
ATOM     30  H13 SAH d   1      40.136 274.980 163.004  0.00  0.00     0.210 HD
ENDBRANCH   3  29
BRANCH   5  31
ATOM     31  N9  SAH d   1      42.107 272.593 165.931  0.00  0.00    -0.294 N 
ATOM     32  C8  SAH d   1      43.195 271.848 165.862  0.00  0.00     0.071 A 
ATOM     33  N7  SAH d   1      43.632 271.538 167.070  0.00  0.00    -0.236 NA
ATOM     34  H17 SAH d   1      43.669 271.531 164.934  0.00  0.00     0.144 H 
ATOM     35  C5  SAH d   1      42.813 272.084 167.935  0.00  0.00     0.149 A 
ATOM     36  C6  SAH d   1      42.690 272.137 169.390  0.00  0.00     0.155 A 
ATOM     37  C4  SAH d   1      41.794 272.764 167.183  0.00  0.00     0.167 A 
ATOM     38  N6  SAH d   1      43.588 271.518 170.123  0.00  0.00    -0.382 N 
ATOM     39  N1  SAH d   1      41.673 272.803 169.930  0.00  0.00    -0.222 NA
ATOM     40  H18 SAH d   1      43.520 271.543 171.150  0.00  0.00     0.157 HD
ATOM     41  H19 SAH d   1      44.360 271.008 169.670  0.00  0.00     0.157 HD
ATOM     42  C2  SAH d   1      40.777 273.405 169.156  0.00  0.00     0.091 A 
ATOM     43  N3  SAH d   1      40.814 273.398 167.837  0.00  0.00    -0.222 NA
ATOM     44  H20 SAH d   1      39.964 273.935 169.638  0.00  0.00     0.146 H 
ENDBRANCH   5  31
BRANCH   4  45
ATOM     45  O2' SAH d   1      42.695 274.838 163.757  0.00  0.00    -0.388 OA
ATOM     46  H15 SAH d   1      42.001 275.474 163.886  0.00  0.00     0.210 HD
ENDBRANCH   4  45
TORSDOF 10
