REMARK  6 active torsions:
REMARK  status: ('A' for Active; 'I' for Inactive)
REMARK    1  A    between atoms: S_6  and  CS5_5 
REMARK    2  A    between atoms: C5'_7  and  S_6 
REMARK    3  A    between atoms: C4'_8  and  C5'_7 
REMARK    4  A    between atoms: C10_11  and  N1'_10 
REMARK    5  A    between atoms: C10_11  and  C9_12 
REMARK    6  A    between atoms: C3'_19  and  O3'_20 
ROOT
ATOM      1  C4' 4F0 d   1     -25.016  -1.810 -24.737  0.00  0.00     0.004 C 
ATOM      2  C1' 4F0 d   1     -23.678  -1.186 -25.036  0.00  0.00     0.090 C 
ATOM      3  N1' 4F0 d   1     -22.744  -1.867 -24.142  0.00  0.00    -0.064 N 
ATOM      4  C2' 4F0 d   1     -23.208  -3.262 -24.067  0.00  0.00     0.108 C 
ATOM      5  C3' 4F0 d   1     -24.711  -3.116 -23.993  0.00  0.00     0.064 C 
ATOM      6  H7  4F0 d   1     -25.602  -1.151 -24.080  0.00  0.00     0.047 H 
ATOM      7  H8  4F0 d   1     -23.698  -0.106 -24.827  0.00  0.00     0.076 H 
ATOM      8  H9  4F0 d   1     -23.399  -1.351 -26.087  0.00  0.00     0.076 H 
ATOM      9  H10 4F0 d   1     -21.818  -1.835 -24.538  0.00  0.00     0.280 HD
ATOM     10  H17 4F0 d   1     -22.815  -3.762 -23.170  0.00  0.00     0.080 H 
ATOM     11  H18 4F0 d   1     -22.909  -3.827 -24.962  0.00  0.00     0.080 H 
ATOM     12  H19 4F0 d   1     -25.218  -3.962 -24.481  0.00  0.00     0.086 H 
ENDROOT
BRANCH   3  13
ATOM     13  C10 4F0 d   1     -22.697  -1.262 -22.792  0.00  0.00     0.111 C 
ATOM     14  H11 4F0 d   1     -21.944  -1.783 -22.182  0.00  0.00     0.083 H 
ATOM     15  H12 4F0 d   1     -23.683  -1.353 -22.314  0.00  0.00     0.083 H 
BRANCH  13  16
ATOM     16  C9  4F0 d   1     -22.330   0.189 -22.911  0.00  0.00     0.014 A 
ATOM     17  C4  4F0 d   1     -23.199   1.302 -22.589  0.00  0.00     0.098 A 
ATOM     18  C5  4F0 d   1     -22.456   2.522 -22.897  0.00  0.00     0.107 A 
ATOM     19  N3  4F0 d   1     -24.472   1.300 -22.132  0.00  0.00    -0.239 NA
ATOM     20  C6  4F0 d   1     -23.164   3.781 -22.624  0.00  0.00     0.151 A 
ATOM     21  N7  4F0 d   1     -21.229   2.141 -23.350  0.00  0.00    -0.360 N 
ATOM     22  N6  4F0 d   1     -22.582   4.992 -22.855  0.00  0.00    -0.382 N 
ATOM     23  N1  4F0 d   1     -24.441   3.687 -22.171  0.00  0.00    -0.223 NA
ATOM     24  H15 4F0 d   1     -23.101   5.859 -22.655  0.00  0.00     0.157 HD
ATOM     25  H16 4F0 d   1     -21.624   5.040 -23.230  0.00  0.00     0.157 HD
ATOM     26  C2  4F0 d   1     -25.043   2.500 -21.942  0.00  0.00     0.089 A 
ATOM     27  H1  4F0 d   1     -26.064   2.518 -21.578  0.00  0.00     0.146 H 
ATOM     28  C8  4F0 d   1     -21.146   0.772 -23.369  0.00  0.00    -0.012 A 
ATOM     29  H14 4F0 d   1     -20.477   2.784 -23.635  0.00  0.00     0.165 HD
ATOM     30  H13 4F0 d   1     -20.271   0.213 -23.698  0.00  0.00     0.112 H 
ENDBRANCH  13  16
ENDBRANCH   3  13
BRANCH   1  31
ATOM     31  C5' 4F0 d   1     -25.785  -1.996 -26.045  0.00  0.00    -0.017 C 
ATOM     32  H5  4F0 d   1     -25.166  -2.576 -26.745  0.00  0.00     0.049 H 
ATOM     33  H6  4F0 d   1     -26.716  -2.543 -25.838  0.00  0.00     0.049 H 
BRANCH  31  34
ATOM     34  S   4F0 d   1     -26.186  -0.427 -26.788  0.00  0.00    -0.173 SA
BRANCH  34  35
ATOM     35  CS5 4F0 d   1     -26.783  -0.572 -28.436  0.00  0.00    -0.035 C 
ATOM     36  H2  4F0 d   1     -27.010   0.428 -28.833  0.00  0.00     0.041 H 
ATOM     37  H3  4F0 d   1     -27.696  -1.185 -28.443  0.00  0.00     0.041 H 
ATOM     38  H4  4F0 d   1     -26.016  -1.050 -29.063  0.00  0.00     0.041 H 
ENDBRANCH  34  35
ENDBRANCH  31  34
ENDBRANCH   1  31
BRANCH   5  39
ATOM     39  O3' 4F0 d   1     -25.090  -3.058 -22.603  0.00  0.00    -0.393 OA
ATOM     40  H20 4F0 d   1     -24.817  -3.857 -22.168  0.00  0.00     0.210 HD
ENDBRANCH   5  39
TORSDOF 6
