REMARK  16 active torsions:
REMARK  status: ('A' for Active; 'I' for Inactive)
REMARK    1  A    between atoms: C7_2  and  N1_1 
REMARK    2  A    between atoms: C8_3  and  C7_2 
REMARK    3  A    between atoms: C14_32  and  C15_6 
REMARK    4  A    between atoms: N6_14  and  C32_15 
REMARK    5  A    between atoms: C32_15  and  C33_16 
REMARK    6  A    between atoms: C33_16  and  C34_17 
REMARK    7  A    between atoms: C34_17  and  C2_18 
REMARK       I    between atoms: C2_18  and  N4_19 
REMARK    8  A    between atoms: N4_19  and  C39_20 
REMARK    9  A    between atoms: N4_19  and  C37_21 
REMARK   10  A    between atoms: C37_21  and  C40_22 
REMARK   11  A    between atoms: C37_21  and  C35_23 
REMARK   12  A    between atoms: C35_23  and  C38_24 
REMARK   13  A    between atoms: C38_24  and  O36_25 
REMARK   14  A    between atoms: C11_30  and  C14_32 
REMARK   15  A    between atoms: C14_32  and  O17_33 
REMARK   16  A    between atoms: C14_32  and  C16_34 
ROOT
ATOM      1  N1  ZBD d   1      -6.751  28.872  15.942  0.00  0.00    -0.252 N 
ATOM      2  C24 ZBD d   1      -5.964  29.006  17.104  0.00  0.00     0.074 A 
ATOM      3  C26 ZBD d   1      -3.737  28.910  18.006  0.00  0.00    -0.054 A 
ATOM      4  C28 ZBD d   1      -5.575  29.374  19.462  0.00  0.00    -0.081 A 
ATOM      5  O31 ZBD d   1      -5.628  29.644  13.833  0.00  0.00    -0.182 OA
ATOM      6  S5  ZBD d   1      -5.666  28.532  14.720  0.00  0.00     0.328 S 
ATOM      7  O30 ZBD d   1      -5.899  27.192  14.292  0.00  0.00    -0.182 OA
ATOM      8  C25 ZBD d   1      -4.604  28.832  16.908  0.00  0.00     0.074 A 
ATOM      9  N6  ZBD d   1      -4.235  28.551  15.578  0.00  0.00    -0.257 N 
ATOM     10  C27 ZBD d   1      -4.222  29.169  19.273  0.00  0.00    -0.081 A 
ATOM     11  C29 ZBD d   1      -6.440  29.277  18.391  0.00  0.00    -0.054 A 
ATOM     12  H5  ZBD d   1      -2.673  28.765  17.859  0.00  0.00     0.087 H 
ATOM     13  H6  ZBD d   1      -5.956  29.610  20.449  0.00  0.00     0.083 H 
ATOM     14  H25 ZBD d   1      -3.543  29.211  20.117  0.00  0.00     0.083 H 
ATOM     15  H26 ZBD d   1      -7.504  29.413  18.549  0.00  0.00     0.087 H 
ENDROOT
BRANCH   9  16
ATOM     16  C32 ZBD d   1      -2.886  28.318  15.059  0.00  0.00     0.012 C 
ATOM     17  H7  ZBD d   1      -2.140  28.592  15.819  0.00  0.00     0.066 H 
ATOM     18  H8  ZBD d   1      -2.724  28.921  14.153  0.00  0.00     0.066 H 
BRANCH  16  19
ATOM     19  C33 ZBD d   1      -2.765  26.830  14.723  0.00  0.00    -0.041 C 
ATOM     20  H9  ZBD d   1      -3.568  26.543  14.028  0.00  0.00     0.036 H 
ATOM     21  H10 ZBD d   1      -2.849  26.236  15.645  0.00  0.00     0.036 H 
BRANCH  19  22
ATOM     22  C34 ZBD d   1      -1.410  26.574  14.072  0.00  0.00     0.011 C 
ATOM     23  H11 ZBD d   1      -0.668  27.271  14.490  0.00  0.00     0.047 H 
ATOM     24  H12 ZBD d   1      -1.492  26.733  12.987  0.00  0.00     0.047 H 
BRANCH  22  25
ATOM     25  C2  ZBD d   1      -0.965  25.153  14.336  0.00  0.00     0.219 C 
ATOM     26  N4  ZBD d   1       0.106  24.941  15.122  0.00  0.00    -0.352 N 
ATOM     27  O3  ZBD d   1      -1.555  24.208  13.846  0.00  0.00    -0.273 OA
BRANCH  26  28
ATOM     28  C39 ZBD d   1       0.794  26.099  15.694  0.00  0.00    -0.016 C 
ATOM     29  H13 ZBD d   1       0.286  27.021  15.376  0.00  0.00     0.056 H 
ATOM     30  H14 ZBD d   1       1.837  26.116  15.344  0.00  0.00     0.056 H 
ATOM     31  H15 ZBD d   1       0.777  26.030  16.792  0.00  0.00     0.056 H 
ENDBRANCH  26  28
BRANCH  26  32
ATOM     32  C37 ZBD d   1       0.561  23.564  15.374  0.00  0.00     0.012 C 
ATOM     33  H16 ZBD d   1       0.181  22.930  14.559  0.00  0.00     0.072 H 
BRANCH  32  34
ATOM     34  C40 ZBD d   1      -0.063  23.057  16.674  0.00  0.00    -0.057 C 
ATOM     35  H17 ZBD d   1       0.275  22.028  16.866  0.00  0.00     0.030 H 
ATOM     36  H18 ZBD d   1      -1.159  23.073  16.585  0.00  0.00     0.030 H 
ATOM     37  H19 ZBD d   1       0.246  23.706  17.507  0.00  0.00     0.030 H 
ENDBRANCH  32  34
BRANCH  32  38
ATOM     38  C35 ZBD d   1       2.103  23.460  15.341  0.00  0.00    -0.027 C 
ATOM     39  H20 ZBD d   1       2.485  24.247  14.674  0.00  0.00     0.039 H 
ATOM     40  H21 ZBD d   1       2.371  22.474  14.934  0.00  0.00     0.039 H 
BRANCH  38  41
ATOM     41  C38 ZBD d   1       2.790  23.616  16.706  0.00  0.00     0.018 C 
ATOM     42  H22 ZBD d   1       3.562  22.840  16.810  0.00  0.00     0.074 H 
ATOM     43  H23 ZBD d   1       2.039  23.495  17.501  0.00  0.00     0.074 H 
BRANCH  41  44
ATOM     44  O36 ZBD d   1       3.403  24.904  16.834  0.00  0.00    -0.401 OA
ATOM     45  H24 ZBD d   1       3.819  24.972  17.685  0.00  0.00     0.209 HD
ENDBRANCH  41  44
ENDBRANCH  38  41
ENDBRANCH  32  38
ENDBRANCH  26  32
ENDBRANCH  22  25
ENDBRANCH  19  22
ENDBRANCH  16  19
ENDBRANCH   9  16
BRANCH   1  46
ATOM     46  C7  ZBD d   1      -8.210  28.997  15.852  0.00  0.00     0.036 C 
ATOM     47  H1  ZBD d   1      -8.466  29.627  14.988  0.00  0.00     0.073 H 
ATOM     48  H2  ZBD d   1      -8.590  29.464  16.772  0.00  0.00     0.073 H 
BRANCH  46  49
ATOM     49  C8  ZBD d   1      -8.848  27.643  15.684  0.00  0.00    -0.039 A 
ATOM     50  C13 ZBD d   1      -9.069  27.147  14.414  0.00  0.00    -0.075 A 
ATOM     51  C12 ZBD d   1      -9.657  25.904  14.249  0.00  0.00    -0.073 A 
ATOM     52  H4  ZBD d   1      -8.782  27.730  13.547  0.00  0.00     0.084 H 
ATOM     53  C11 ZBD d   1     -10.037  25.155  15.350  0.00  0.00    -0.006 A 
ATOM     54  H27 ZBD d   1      -9.821  25.515  13.251  0.00  0.00     0.084 H 
ATOM     55  C10 ZBD d   1      -9.806  25.661  16.618  0.00  0.00    -0.073 A 
ATOM     56  C9  ZBD d   1      -9.217  26.902  16.791  0.00  0.00    -0.075 A 
ATOM     57  H3  ZBD d   1     -10.090  25.078  17.487  0.00  0.00     0.084 H 
ATOM     58  H28 ZBD d   1      -9.046  27.290  17.789  0.00  0.00     0.084 H 
BRANCH  53  59
ATOM     59  C14 ZBD d   1     -10.670  23.793  15.141  0.00  0.00     0.281 C 
BRANCH  59  60
ATOM     60  C15 ZBD d   1     -10.288  22.817  16.269  0.00  0.00     0.431 C 
ATOM     61  F21 ZBD d   1     -10.952  23.125  17.461  0.00  0.00    -0.167 F 
ATOM     62  F22 ZBD d   1     -10.659  21.530  15.875  0.00  0.00    -0.167 F 
ATOM     63  F23 ZBD d   1      -8.912  22.828  16.506  0.00  0.00    -0.167 F 
ENDBRANCH  59  60
BRANCH  59  64
ATOM     64  O17 ZBD d   1     -10.157  23.267  13.916  0.00  0.00    -0.370 OA
ATOM     65  H29 ZBD d   1     -10.537  22.411  13.757  0.00  0.00     0.211 HD
ENDBRANCH  59  64
BRANCH  59  66
ATOM     66  C16 ZBD d   1     -12.205  23.905  15.039  0.00  0.00     0.431 C 
ATOM     67  F20 ZBD d   1     -12.815  23.541  16.239  0.00  0.00    -0.167 F 
ATOM     68  F19 ZBD d   1     -12.668  23.058  14.026  0.00  0.00    -0.167 F 
ATOM     69  F18 ZBD d   1     -12.587  25.211  14.722  0.00  0.00    -0.167 F 
ENDBRANCH  59  66
ENDBRANCH  53  59
ENDBRANCH  46  49
ENDBRANCH   1  46
TORSDOF 16
