REMARK  6 active torsions:
REMARK  status: ('A' for Active; 'I' for Inactive)
REMARK    1  A    between atoms: N_1  and  CA_2 
REMARK    2  A    between atoms: CA_2  and  C_3 
REMARK    3  A    between atoms: CA_2  and  CB_5 
REMARK    4  A    between atoms: CB_5  and  CG_6 
REMARK    5  A    between atoms: CG_6  and  CD_7 
REMARK    6  A    between atoms: CD_7  and  NE_8 
REMARK       I    between atoms: NE_8  and  CZ_9 
REMARK       I    between atoms: CZ_9  and  NH1_10 
ROOT
ATOM      1  CG  ARG d   1      -5.652  -9.909 -17.534  0.00  0.00    -0.047 C 
ATOM      2  H7  ARG d   1      -5.967  -9.757 -18.577  0.00  0.00     0.035 H 
ATOM      3  H8  ARG d   1      -5.688  -8.950 -16.997  0.00  0.00     0.035 H 
ENDROOT
BRANCH   1   4
ATOM      4  CB  ARG d   1      -4.227 -10.427 -17.521  0.00  0.00    -0.028 C 
ATOM      5  H5  ARG d   1      -3.854 -10.388 -16.487  0.00  0.00     0.036 H 
ATOM      6  H6  ARG d   1      -4.235 -11.470 -17.869  0.00  0.00     0.036 H 
BRANCH   4   7
ATOM      7  CA  ARG d   1      -3.268  -9.632 -18.408  0.00  0.00     0.182 C 
ATOM      8  H4  ARG d   1      -2.246 -10.005 -18.245  0.00  0.00     0.101 H 
BRANCH   7   9
ATOM      9  N   ARG d   1      -3.307  -8.190 -18.048  0.00  0.00    -0.065 N 
ATOM     10  H1  ARG d   1      -3.065  -8.080 -17.076  0.00  0.00     0.275 HD
ATOM     11  H2  ARG d   1      -4.235  -7.829 -18.206  0.00  0.00     0.275 HD
ATOM     12  H3  ARG d   1      -2.648  -7.683 -18.618  0.00  0.00     0.275 HD
ENDBRANCH   7   9
BRANCH   7  13
ATOM     13  C   ARG d   1      -3.629  -9.831 -19.869  0.00  0.00     0.204 C 
ATOM     14  O   ARG d   1      -4.042  -8.892 -20.547  0.00  0.00    -0.646 OA
ATOM     15  OXT ARG d   1      -3.511 -10.936 -20.396  0.00  0.00    -0.646 OA
ENDBRANCH   7  13
ENDBRANCH   4   7
ENDBRANCH   1   4
BRANCH   1  16
ATOM     16  CD  ARG d   1      -6.609 -10.884 -16.867  0.00  0.00     0.009 C 
ATOM     17  H9  ARG d   1      -6.167 -11.231 -15.921  0.00  0.00     0.064 H 
ATOM     18  H10 ARG d   1      -6.769 -11.744 -17.534  0.00  0.00     0.064 H 
BRANCH  16  19
ATOM     19  NE  ARG d   1      -7.891 -10.253 -16.589  0.00  0.00    -0.227 N 
ATOM     20  CZ  ARG d   1      -8.918 -10.861 -16.008  0.00  0.00     0.665 C 
ATOM     21  NH1 ARG d   1      -8.835 -12.128 -15.639  0.00  0.00    -0.235 N 
ATOM     22  NH2 ARG d   1     -10.037 -10.192 -15.804  0.00  0.00    -0.235 N 
ATOM     23  H12 ARG d   1      -9.640 -12.587 -15.189  0.00  0.00     0.174 HD
ATOM     24  H13 ARG d   1      -7.965 -12.656 -15.801  0.00  0.00     0.174 HD
ATOM     25  H14 ARG d   1     -10.106  -9.205 -16.090  0.00  0.00     0.174 HD
ATOM     26  H15 ARG d   1     -10.841 -10.657 -15.359  0.00  0.00     0.174 HD
ATOM     27  H11 ARG d   1      -8.009  -9.267 -16.862  0.00  0.00     0.177 HD
ENDBRANCH  16  19
ENDBRANCH   1  16
TORSDOF 6
