REMARK  6 active torsions:
REMARK  status: ('A' for Active; 'I' for Inactive)
REMARK    1  A    between atoms: O3'_1  and  C3'_2 
REMARK    2  A    between atoms: C4'_3  and  C5'_4 
REMARK    3  A    between atoms: C5'_4  and  S_5 
REMARK    4  A    between atoms: S_5  and  C6'_20 
REMARK    5  A    between atoms: N1'_7  and  C10_9 
REMARK    6  A    between atoms: C10_9  and  C9_10 
ROOT
ATOM      1  C3' 4EH d   1      10.760  44.531 -35.153  0.00  0.00     0.064 C 
ATOM      2  C4' 4EH d   1      12.097  45.211 -35.386  0.00  0.00     0.004 C 
ATOM      3  C2' 4EH d   1       9.866  45.606 -34.554  0.00  0.00     0.108 C 
ATOM      4  N1' 4EH d   1      10.815  46.288 -33.656  0.00  0.00    -0.064 N 
ATOM      5  C1' 4EH d   1      12.149  46.281 -34.291  0.00  0.00     0.090 C 
ATOM      6  H2  4EH d   1      10.345  44.126 -36.087  0.00  0.00     0.086 H 
ATOM      7  H3  4EH d   1      12.908  44.476 -35.272  0.00  0.00     0.047 H 
ATOM      8  H6  4EH d   1       9.025  45.168 -33.996  0.00  0.00     0.080 H 
ATOM      9  H7  4EH d   1       9.479  46.287 -35.326  0.00  0.00     0.080 H 
ATOM     10  H8  4EH d   1      10.872  45.750 -32.806  0.00  0.00     0.280 HD
ATOM     11  H9  4EH d   1      12.367  47.266 -34.730  0.00  0.00     0.076 H 
ATOM     12  H10 4EH d   1      12.922  46.031 -33.550  0.00  0.00     0.076 H 
ENDROOT
BRANCH   4  13
ATOM     13  C10 4EH d   1      10.397  47.635 -33.281  0.00  0.00     0.111 C 
ATOM     14  H11 4EH d   1      11.033  47.925 -32.432  0.00  0.00     0.083 H 
ATOM     15  H12 4EH d   1       9.354  47.546 -32.944  0.00  0.00     0.083 H 
BRANCH  13  16
ATOM     16  C9  4EH d   1      10.427  48.812 -34.249  0.00  0.00     0.014 A 
ATOM     17  C4  4EH d   1       9.584  49.130 -35.419  0.00  0.00     0.098 A 
ATOM     18  N3  4EH d   1       8.614  48.423 -36.041  0.00  0.00    -0.239 NA
ATOM     19  C5  4EH d   1      10.026  50.441 -35.888  0.00  0.00     0.107 A 
ATOM     20  C2  4EH d   1       8.025  48.959 -37.133  0.00  0.00     0.089 A 
ATOM     21  N1  4EH d   1       8.375  50.170 -37.651  0.00  0.00    -0.223 NA
ATOM     22  H13 4EH d   1       7.236  48.398 -37.621  0.00  0.00     0.146 H 
ATOM     23  C6  4EH d   1       9.352  50.948 -37.075  0.00  0.00     0.151 A 
ATOM     24  N6  4EH d   1       9.715  52.152 -37.572  0.00  0.00    -0.382 N 
ATOM     25  H16 4EH d   1       9.248  52.525 -38.411  0.00  0.00     0.157 HD
ATOM     26  H17 4EH d   1      10.459  52.696 -37.112  0.00  0.00     0.157 HD
ATOM     27  N7  4EH d   1      10.994  50.860 -35.076  0.00  0.00    -0.360 N 
ATOM     28  C8  4EH d   1      11.241  49.933 -34.102  0.00  0.00    -0.012 A 
ATOM     29  H15 4EH d   1      11.489  51.759 -35.169  0.00  0.00     0.165 HD
ATOM     30  H14 4EH d   1      11.980  50.055 -33.312  0.00  0.00     0.112 H 
ENDBRANCH  13  16
ENDBRANCH   4  13
BRANCH   1  31
ATOM     31  O3' 4EH d   1      10.916  43.501 -34.169  0.00  0.00    -0.393 OA
ATOM     32  H1  4EH d   1      10.079  43.075 -34.023  0.00  0.00     0.210 HD
ENDBRANCH   1  31
BRANCH   2  33
ATOM     33  C5' 4EH d   1      12.272  45.936 -36.719  0.00  0.00    -0.010 C 
ATOM     34  H4  4EH d   1      13.165  46.575 -36.651  0.00  0.00     0.050 H 
ATOM     35  H5  4EH d   1      11.384  46.562 -36.892  0.00  0.00     0.050 H 
BRANCH  33  36
ATOM     36  S   4EH d   1      12.468  44.846 -38.108  0.00  0.00    -0.108 SA
BRANCH  36  37
ATOM     37  C6' 4EH d   1      14.089  44.370 -38.385  0.00  0.00     0.110 A 
ATOM     38  C9' 4EH d   1      15.151  44.825 -37.612  0.00  0.00     0.036 A 
ATOM     39  N3' 4EH d   1      16.396  44.398 -37.901  0.00  0.00    -0.269 NA
ATOM     40  H18 4EH d   1      14.980  45.512 -36.791  0.00  0.00     0.119 H 
ATOM     41  C8' 4EH d   1      16.650  43.543 -38.908  0.00  0.00     0.019 A 
ATOM     42  C7' 4EH d   1      15.596  43.089 -39.677  0.00  0.00     0.020 A 
ATOM     43  H19 4EH d   1      17.663  43.216 -39.112  0.00  0.00     0.117 H 
ATOM     44  N2' 4EH d   1      14.353  43.516 -39.408  0.00  0.00    -0.251 NA
ATOM     45  H20 4EH d   1      15.772  42.394 -40.490  0.00  0.00     0.117 H 
ENDBRANCH  36  37
ENDBRANCH  33  36
ENDBRANCH   2  33
TORSDOF 6
