REMARK  10 active torsions:
REMARK  status: ('A' for Active; 'I' for Inactive)
REMARK    1  A    between atoms: N1'_2  and  C1'_1 
REMARK    2  A    between atoms: C1'_1  and  O1_19 
REMARK    3  A    between atoms: C11_3  and  N1'_2 
REMARK    4  A    between atoms: N1'_2  and  C10_8 
REMARK    5  A    between atoms: C12_4  and  C11_3 
REMARK    6  A    between atoms: C13_5  and  C12_4 
REMARK    7  A    between atoms: C14_20  and  C13_5 
REMARK    8  A    between atoms: C15_6  and  C16_7 
REMARK    9  A    between atoms: C15_6  and  C14_20 
REMARK   10  A    between atoms: C10_8  and  C9_9 
ROOT
ATOM      1  N1' 4EZ d   1      -6.776  18.088 -24.746  0.00  0.00    -0.046 N 
ATOM      2  H3  4EZ d   1      -7.601  17.599 -24.435  0.00  0.00     0.282 HD
ENDROOT
BRANCH   1   3
ATOM      3  C1' 4EZ d   1      -5.525  17.328 -24.398  0.00  0.00     0.163 C 
ATOM      4  H1  4EZ d   1      -4.638  17.876 -24.750  0.00  0.00     0.118 H 
ATOM      5  H2  4EZ d   1      -5.547  16.330 -24.860  0.00  0.00     0.118 H 
BRANCH   3   6
ATOM      6  O1  4EZ d   1      -5.499  17.213 -22.995  0.00  0.00    -0.374 OA
ATOM      7  H22 4EZ d   1      -4.720  16.737 -22.732  0.00  0.00     0.211 HD
ENDBRANCH   3   6
ENDBRANCH   1   3
BRANCH   1   8
ATOM      8  C11 4EZ d   1      -6.658  19.352 -23.977  0.00  0.00     0.086 C 
ATOM      9  H4  4EZ d   1      -6.982  20.180 -24.625  0.00  0.00     0.076 H 
ATOM     10  H5  4EZ d   1      -5.601  19.491 -23.705  0.00  0.00     0.076 H 
BRANCH   8  11
ATOM     11  C12 4EZ d   1      -7.488  19.394 -22.699  0.00  0.00    -0.042 C 
ATOM     12  H6  4EZ d   1      -6.846  19.186 -21.830  0.00  0.00     0.035 H 
ATOM     13  H7  4EZ d   1      -8.290  18.643 -22.750  0.00  0.00     0.035 H 
BRANCH  11  14
ATOM     14  C13 4EZ d   1      -8.098  20.805 -22.574  0.00  0.00    -0.064 C 
ATOM     15  H8  4EZ d   1      -8.573  21.059 -23.533  0.00  0.00     0.033 H 
ATOM     16  H9  4EZ d   1      -7.282  21.514 -22.369  0.00  0.00     0.033 H 
BRANCH  14  17
ATOM     17  C14 4EZ d   1      -9.148  20.953 -21.467  0.00  0.00    -0.065 C 
ATOM     18  H23 4EZ d   1      -9.398  19.956 -21.074  0.00  0.00     0.033 H 
ATOM     19  H24 4EZ d   1     -10.051  21.418 -21.889  0.00  0.00     0.033 H 
BRANCH  17  20
ATOM     20  C15 4EZ d   1      -8.629  21.820 -20.327  0.00  0.00    -0.069 C 
ATOM     21  H10 4EZ d   1      -7.671  21.411 -19.974  0.00  0.00     0.032 H 
ATOM     22  H11 4EZ d   1      -8.476  22.844 -20.698  0.00  0.00     0.032 H 
BRANCH  20  23
ATOM     23  C16 4EZ d   1      -9.605  21.855 -19.170  0.00  0.00    -0.077 C 
ATOM     24  H12 4EZ d   1      -9.199  22.488 -18.367  0.00  0.00     0.027 H 
ATOM     25  H13 4EZ d   1      -9.759  20.834 -18.790  0.00  0.00     0.027 H 
ATOM     26  H14 4EZ d   1     -10.565  22.268 -19.513  0.00  0.00     0.027 H 
ENDBRANCH  20  23
ENDBRANCH  17  20
ENDBRANCH  14  17
ENDBRANCH  11  14
ENDBRANCH   8  11
ENDBRANCH   1   8
BRANCH   1  27
ATOM     27  C10 4EZ d   1      -6.801  18.147 -26.219  0.00  0.00     0.113 C 
ATOM     28  H15 4EZ d   1      -7.755  17.706 -26.544  0.00  0.00     0.083 H 
ATOM     29  H16 4EZ d   1      -5.968  17.527 -26.581  0.00  0.00     0.083 H 
BRANCH  27  30
ATOM     30  C9  4EZ d   1      -6.681  19.491 -26.896  0.00  0.00     0.014 A 
ATOM     31  C4  4EZ d   1      -5.687  20.554 -26.767  0.00  0.00     0.098 A 
ATOM     32  N3  4EZ d   1      -4.585  20.629 -26.024  0.00  0.00    -0.239 NA
ATOM     33  C5  4EZ d   1      -6.088  21.632 -27.662  0.00  0.00     0.107 A 
ATOM     34  C2  4EZ d   1      -3.832  21.745 -26.122  0.00  0.00     0.089 A 
ATOM     35  N1  4EZ d   1      -4.127  22.788 -26.903  0.00  0.00    -0.223 NA
ATOM     36  H21 4EZ d   1      -2.927  21.799 -25.527  0.00  0.00     0.146 H 
ATOM     37  C6  4EZ d   1      -5.211  22.811 -27.694  0.00  0.00     0.151 A 
ATOM     38  N6  4EZ d   1      -5.465  23.867 -28.483  0.00  0.00    -0.382 N 
ATOM     39  H19 4EZ d   1      -4.829  24.677 -28.480  0.00  0.00     0.157 HD
ATOM     40  H20 4EZ d   1      -6.296  23.867 -29.091  0.00  0.00     0.157 HD
ATOM     41  N7  4EZ d   1      -7.193  21.235 -28.265  0.00  0.00    -0.360 N 
ATOM     42  C8  4EZ d   1      -7.560  19.996 -27.849  0.00  0.00    -0.012 A 
ATOM     43  H18 4EZ d   1      -7.709  21.793 -28.960  0.00  0.00     0.165 HD
ATOM     44  H17 4EZ d   1      -8.435  19.462 -28.216  0.00  0.00     0.112 H 
ENDBRANCH  27  30
ENDBRANCH   1  27
TORSDOF 10
