REMARK  2 active torsions:
REMARK  status: ('A' for Active; 'I' for Inactive)
REMARK    1  A    between atoms: CAB_1  and  CAI_2 
REMARK    2  A    between atoms: CAI_2  and  CAA_3 
ROOT
ATOM      1  CAI 3IT d   1      22.094   7.144 -34.932  0.00  0.00    -0.074 C 
ATOM      2  CAK 3IT d   1      21.509   6.880 -36.227  0.00  0.00     0.006 A 
ATOM      3  CAG 3IT d   1      22.147   7.374 -37.386  0.00  0.00    -0.070 A 
ATOM      4  CAE 3IT d   1      21.763   7.247 -38.720  0.00  0.00    -0.082 A 
ATOM      5  CAF 3IT d   1      20.654   6.602 -39.288  0.00  0.00    -0.079 A 
ATOM      6  CAH 3IT d   1      19.584   5.950 -38.677  0.00  0.00    -0.032 A 
ATOM      7  CAL 3IT d   1      19.449   5.706 -37.326  0.00  0.00     0.209 A 
ATOM      8  OAC 3IT d   1      18.430   5.106 -36.975  0.00  0.00    -0.285 OA
ATOM      9  CAJ 3IT d   1      20.317   6.116 -36.294  0.00  0.00     0.167 A 
ATOM     10  OAD 3IT d   1      19.894   5.673 -35.127  0.00  0.00    -0.187 OA
ATOM     11  H7  3IT d   1      23.067   7.931 -37.214  0.00  0.00     0.084 H 
ATOM     12  H8  3IT d   1      22.430   7.725 -39.436  0.00  0.00     0.083 H 
ATOM     13  H9  3IT d   1      20.625   6.612 -40.377  0.00  0.00     0.083 H 
ATOM     14  H10 3IT d   1      18.782   5.601 -39.325  0.00  0.00     0.089 H 
ENDROOT
BRANCH   1  15
ATOM     15  CAB 3IT d   1      21.521   6.642 -33.567  0.00  0.00    -0.054 C 
ATOM     16  H1  3IT d   1      22.167   6.990 -32.748  0.00  0.00     0.033 H 
ATOM     17  H2  3IT d   1      21.487   5.543 -33.566  0.00  0.00     0.033 H 
ATOM     18  H3  3IT d   1      20.505   7.040 -33.427  0.00  0.00     0.033 H 
ENDBRANCH   1  15
BRANCH   1  19
ATOM     19  CAA 3IT d   1      23.416   7.856 -34.770  0.00  0.00    -0.054 C 
ATOM     20  H4  3IT d   1      23.776   8.189 -35.755  0.00  0.00     0.033 H 
ATOM     21  H5  3IT d   1      24.150   7.169 -34.324  0.00  0.00     0.033 H 
ATOM     22  H6  3IT d   1      23.284   8.729 -34.114  0.00  0.00     0.033 H 
ENDBRANCH   1  19
TORSDOF 2
