REMARK  11 active torsions:
REMARK  status: ('A' for Active; 'I' for Inactive)
REMARK    1  A    between atoms: N1_1  and  CA1_2 
REMARK    2  A    between atoms: CA1_2  and  C1_3 
REMARK    3  A    between atoms: CA1_2  and  CB1_6 
REMARK    4  A    between atoms: CB1_6  and  CG1_7 
REMARK    5  A    between atoms: CG1_7  and  CD1_8 
REMARK       I    between atoms: CD1_8  and  N2_10 
REMARK    6  A    between atoms: N2_10  and  CA2_11 
REMARK    7  A    between atoms: CA2_11  and  C2_12 
REMARK    8  A    between atoms: CA2_11  and  CB2_14 
REMARK       I    between atoms: C2_12  and  N3_16 
REMARK    9  A    between atoms: CB2_14  and  SG2_15 
REMARK   10  A    between atoms: N3_16  and  CA3_17 
REMARK   11  A    between atoms: CA3_17  and  C3_18 
ROOT
ATOM      1  CD1 GSH d   1     -27.003  25.699 -17.571  0.00  0.00     0.218 C 
ATOM      2  OE1 GSH d   1     -27.923  26.059 -18.275  0.00  0.00    -0.274 OA
ATOM      3  N2  GSH d   1     -27.077  25.767 -16.162  0.00  0.00    -0.347 N 
ATOM      4  H9  GSH d   1     -26.294  25.491 -15.604  0.00  0.00     0.163 HD
ENDROOT
BRANCH   3   5
ATOM      5  CA2 GSH d   1     -28.260  26.226 -15.544  0.00  0.00     0.097 C 
ATOM      6  H10 GSH d   1     -29.093  25.952 -16.207  0.00  0.00     0.088 H 
BRANCH   5   7
ATOM      7  C2  GSH d   1     -28.331  27.771 -15.428  0.00  0.00     0.241 C 
ATOM      8  O2  GSH d   1     -29.181  28.209 -14.694  0.00  0.00    -0.271 OA
ATOM      9  N3  GSH d   1     -27.580  28.809 -16.110  0.00  0.00    -0.349 N 
ATOM     10  H14 GSH d   1     -26.856  28.604 -16.768  0.00  0.00     0.163 HD
BRANCH   9  11
ATOM     11  CA3 GSH d   1     -27.963  30.182 -15.761  0.00  0.00     0.075 C 
ATOM     12  H15 GSH d   1     -27.636  30.326 -14.721  0.00  0.00     0.080 H 
ATOM     13  H16 GSH d   1     -29.062  30.204 -15.806  0.00  0.00     0.080 H 
BRANCH  11  14
ATOM     14  C3  GSH d   1     -27.488  31.444 -16.527  0.00  0.00     0.191 C 
ATOM     15  O31 GSH d   1     -26.547  31.335 -17.367  0.00  0.00    -0.647 OA
ATOM     16  O32 GSH d   1     -28.012  32.621 -16.341  0.00  0.00    -0.647 OA
ENDBRANCH  11  14
ENDBRANCH   9  11
ENDBRANCH   5   7
BRANCH   5  17
ATOM     17  CB2 GSH d   1     -28.460  25.407 -14.243  0.00  0.00     0.001 C 
ATOM     18  H11 GSH d   1     -29.271  25.872 -13.663  0.00  0.00     0.052 H 
ATOM     19  H12 GSH d   1     -27.526  25.445 -13.663  0.00  0.00     0.052 H 
BRANCH  17  20
ATOM     20  SG2 GSH d   1     -28.885  23.667 -14.525  0.00  0.00    -0.180 SA
ATOM     21  H13 GSH d   1     -28.998  23.202 -13.638  0.00  0.00     0.101 HD
ENDBRANCH  17  20
ENDBRANCH   5  17
ENDBRANCH   3   5
BRANCH   1  22
ATOM     22  CG1 GSH d   1     -25.720  25.174 -18.144  0.00  0.00     0.012 C 
ATOM     23  H7  GSH d   1     -24.878  25.689 -17.658  0.00  0.00     0.047 H 
ATOM     24  H8  GSH d   1     -25.657  24.095 -17.940  0.00  0.00     0.047 H 
BRANCH  22  25
ATOM     25  CB1 GSH d   1     -25.629  25.392 -19.628  0.00  0.00    -0.021 C 
ATOM     26  H5  GSH d   1     -26.402  24.814 -20.155  0.00  0.00     0.037 H 
ATOM     27  H6  GSH d   1     -25.738  26.459 -19.873  0.00  0.00     0.037 H 
BRANCH  25  28
ATOM     28  CA1 GSH d   1     -24.247  24.897 -19.993  0.00  0.00     0.183 C 
ATOM     29  H4  GSH d   1     -23.558  25.087 -19.157  0.00  0.00     0.101 H 
BRANCH  28  30
ATOM     30  N1  GSH d   1     -23.778  25.588 -21.147  0.00  0.00    -0.065 N 
ATOM     31  H1  GSH d   1     -23.740  26.577 -20.954  0.00  0.00     0.275 HD
ATOM     32  H2  GSH d   1     -24.406  25.420 -21.918  0.00  0.00     0.275 HD
ATOM     33  H3  GSH d   1     -22.857  25.256 -21.386  0.00  0.00     0.275 HD
ENDBRANCH  28  30
BRANCH  28  34
ATOM     34  C1  GSH d   1     -24.315  23.405 -20.255  0.00  0.00     0.204 C 
ATOM     35  O11 GSH d   1     -24.276  22.979 -21.446  0.00  0.00    -0.646 OA
ATOM     36  O12 GSH d   1     -24.425  22.595 -19.290  0.00  0.00    -0.646 OA
ENDBRANCH  28  34
ENDBRANCH  25  28
ENDBRANCH  22  25
ENDBRANCH   1  22
TORSDOF 11
