REMARK  6 active torsions:
REMARK  status: ('A' for Active; 'I' for Inactive)
REMARK    1  A    between atoms: N_25  and  C3_3 
REMARK    2  A    between atoms: C6_6  and  N_25 
REMARK    3  A    between atoms: N3_24  and  C8_10 
REMARK    4  A    between atoms: C10_13  and  N7_12 
REMARK    5  A    between atoms: C11_15  and  N6_16 
REMARK    6  A    between atoms: N6_16  and  C12_17 
ROOT
ATOM      1  N1  4HW d   1      11.376  12.974   1.638  0.00  0.00    -0.222 NA
ATOM      2  C7  4HW d   1      13.253  13.117   3.152  0.00  0.00     0.008 A 
ATOM      3  C6  4HW d   1      13.174  14.509   3.051  0.00  0.00     0.133 A 
ATOM      4  N2  4HW d   1      12.208  15.133   2.341  0.00  0.00    -0.224 NA
ATOM      5  C8  4HW d   1      12.343  12.397   2.375  0.00  0.00     0.174 A 
ATOM      6  C9  4HW d   1      11.366  14.317   1.684  0.00  0.00     0.091 A 
ATOM      7  H3  4HW d   1      13.976  12.627   3.794  0.00  0.00     0.095 H 
ATOM      8  H6  4HW d   1      10.579  14.804   1.120  0.00  0.00     0.146 H 
ENDROOT
BRANCH   5   9
ATOM      9  N3  4HW d   1      12.497  11.006   2.213  0.00  0.00    -0.027 N 
ATOM     10  C10 4HW d   1      11.843  10.058   1.496  0.00  0.00     0.739 A 
ATOM     11  N4  4HW d   1      12.399   8.857   1.704  0.00  0.00     0.131 NA
ATOM     12  C11 4HW d   1      13.431   9.125   2.568  0.00  0.00     0.760 A 
ATOM     13  N5  4HW d   1      13.532  10.398   2.912  0.00  0.00     0.043 NA
BRANCH  10  14
ATOM     14  N7  4HW d   1      10.857  10.331   0.642  0.00  0.00    -0.230 N 
ATOM     15  H7  4HW d   1      10.397   9.568   0.125  0.00  0.00     0.174 HD
ATOM     16  H8  4HW d   1      10.555  11.305   0.499  0.00  0.00     0.174 HD
ENDBRANCH  10  14
BRANCH  12  17
ATOM     17  N6  4HW d   1      14.248   8.105   3.016  0.00  0.00    -0.186 N 
ATOM     18  H9  4HW d   1      13.986   7.171   2.669  0.00  0.00     0.184 HD
BRANCH  17  19
ATOM     19  C12 4HW d   1      15.387   8.113   3.871  0.00  0.00     0.049 A 
ATOM     20  C17 4HW d   1      15.959   9.292   4.367  0.00  0.00    -0.057 A 
ATOM     21  C16 4HW d   1      17.045   9.223   5.245  0.00  0.00    -0.081 A 
ATOM     22  H10 4HW d   1      15.560  10.255   4.071  0.00  0.00     0.086 H 
ATOM     23  C15 4HW d   1      17.560   7.986   5.629  0.00  0.00    -0.083 A 
ATOM     24  H11 4HW d   1      17.488  10.135   5.628  0.00  0.00     0.083 H 
ATOM     25  C14 4HW d   1      17.004   6.823   5.135  0.00  0.00    -0.081 A 
ATOM     26  H12 4HW d   1      18.397   7.937   6.316  0.00  0.00     0.083 H 
ATOM     27  C13 4HW d   1      15.921   6.877   4.254  0.00  0.00    -0.057 A 
ATOM     28  H13 4HW d   1      17.410   5.863   5.432  0.00  0.00     0.083 H 
ATOM     29  H14 4HW d   1      15.493   5.960   3.866  0.00  0.00     0.086 H 
ENDBRANCH  17  19
ENDBRANCH  12  17
ENDBRANCH   5   9
BRANCH   3  30
ATOM     30  N   4HW d   1      14.265  15.199   3.550  0.00  0.00    -0.341 N 
ATOM     31  H15 4HW d   1      14.257  16.201   3.312  0.00  0.00     0.167 HD
BRANCH  30  32
ATOM     32  C3  4HW d   1      15.389  14.814   4.319  0.00  0.00     0.033 A 
ATOM     33  C2  4HW d   1      15.417  13.752   5.228  0.00  0.00    -0.057 A 
ATOM     34  C1  4HW d   1      16.634  13.207   5.633  0.00  0.00    -0.081 A 
ATOM     35  H2  4HW d   1      14.489  13.351   5.619  0.00  0.00     0.086 H 
ATOM     36  C   4HW d   1      17.825  13.713   5.138  0.00  0.00    -0.083 A 
ATOM     37  H1  4HW d   1      16.649  12.384   6.338  0.00  0.00     0.083 H 
ATOM     38  C5  4HW d   1      17.805  14.779   4.252  0.00  0.00    -0.081 A 
ATOM     39  H16 4HW d   1      18.770  13.277   5.442  0.00  0.00     0.083 H 
ATOM     40  C4  4HW d   1      16.591  15.343   3.852  0.00  0.00    -0.057 A 
ATOM     41  H4  4HW d   1      18.737  15.177   3.867  0.00  0.00     0.083 H 
ATOM     42  H5  4HW d   1      16.584  16.192   3.178  0.00  0.00     0.086 H 
ENDBRANCH  30  32
ENDBRANCH   3  30
TORSDOF 6
