REMARK  8 active torsions:
REMARK  status: ('A' for Active; 'I' for Inactive)
REMARK    1  A    between atoms: C9_5  and  C10_20 
REMARK    2  A    between atoms: C6_7  and  N1_8 
REMARK    3  A    between atoms: N1_8  and  C1_9 
REMARK    4  A    between atoms: C1_9  and  C2_10 
REMARK    5  A    between atoms: C1_9  and  C3_11 
REMARK    6  A    between atoms: C1_9  and  C_19 
REMARK       I    between atoms: C3_11  and  N_12 
REMARK    7  A    between atoms: N_12  and  C4_13 
REMARK    8  A    between atoms: C4_13  and  C5_14 
ROOT
ATOM      1  F3  467 d   1      12.263  17.424   4.486  0.00  0.00    -0.201 F 
ATOM      2  C7  467 d   1      12.215  16.173   3.975  0.00  0.00     0.179 A 
ATOM      3  C8  467 d   1      11.247  15.804   3.016  0.00  0.00     0.045 A 
ATOM      4  N2  467 d   1      11.195  14.521   2.501  0.00  0.00    -0.237 NA
ATOM      5  C9  467 d   1      12.140  13.585   2.972  0.00  0.00     0.164 A 
ATOM      6  N3  467 d   1      13.111  13.873   3.884  0.00  0.00    -0.208 NA
ATOM      7  C6  467 d   1      13.167  15.159   4.400  0.00  0.00     0.167 A 
ATOM      8  H1  467 d   1      10.529  16.542   2.676  0.00  0.00     0.119 H 
ENDROOT
BRANCH   7   9
ATOM      9  N1  467 d   1      14.142  15.482   5.358  0.00  0.00    -0.355 N 
ATOM     10  H2  467 d   1      14.098  16.436   5.745  0.00  0.00     0.162 HD
BRANCH   9  11
ATOM     11  C1  467 d   1      15.245  14.602   5.888  0.00  0.00     0.105 C 
BRANCH  11  12
ATOM     12  C2  467 d   1      16.197  15.493   6.693  0.00  0.00    -0.045 C 
ATOM     13  H3  467 d   1      17.018  14.882   7.097  0.00  0.00     0.031 H 
ATOM     14  H4  467 d   1      15.647  15.962   7.522  0.00  0.00     0.031 H 
ATOM     15  H5  467 d   1      16.610  16.275   6.038  0.00  0.00     0.031 H 
ENDBRANCH  11  12
BRANCH  11  16
ATOM     16  C3  467 d   1      16.033  14.003   4.688  0.00  0.00     0.245 C 
ATOM     17  N   467 d   1      16.236  14.861   3.629  0.00  0.00    -0.350 N 
ATOM     18  H6  467 d   1      15.888  15.796   3.703  0.00  0.00     0.162 HD
ATOM     19  O   467 d   1      16.416  12.842   4.640  0.00  0.00    -0.271 OA
BRANCH  17  20
ATOM     20  C4  467 d   1      16.927  14.480   2.415  0.00  0.00     0.085 C 
ATOM     21  H7  467 d   1      17.309  13.454   2.523  0.00  0.00     0.077 H 
ATOM     22  H8  467 d   1      17.768  15.169   2.246  0.00  0.00     0.077 H 
BRANCH  20  23
ATOM     23  C5  467 d   1      16.000  14.538   1.240  0.00  0.00     0.403 C 
ATOM     24  F2  467 d   1      15.540  15.752   1.017  0.00  0.00    -0.169 F 
ATOM     25  F1  467 d   1      14.916  13.775   1.407  0.00  0.00    -0.169 F 
ATOM     26  F   467 d   1      16.599  14.145   0.131  0.00  0.00    -0.169 F 
ENDBRANCH  20  23
ENDBRANCH  17  20
ENDBRANCH  11  16
BRANCH  11  27
ATOM     27  C   467 d   1      14.654  13.529   6.808  0.00  0.00    -0.045 C 
ATOM     28  H9  467 d   1      15.463  12.890   7.192  0.00  0.00     0.031 H 
ATOM     29  H10 467 d   1      13.938  12.915   6.242  0.00  0.00     0.031 H 
ATOM     30  H11 467 d   1      14.137  14.012   7.650  0.00  0.00     0.031 H 
ENDBRANCH  11  27
ENDBRANCH   9  11
ENDBRANCH   7   9
BRANCH   5  31
ATOM     31  C10 467 d   1      12.053  12.209   2.517  0.00  0.00     0.041 A 
ATOM     32  C13 467 d   1      12.922  11.091   2.821  0.00  0.00     0.027 A 
ATOM     33  C14 467 d   1      14.152  10.870   3.545  0.00  0.00    -0.046 A 
ATOM     34  C12 467 d   1      12.370   9.951   2.142  0.00  0.00     0.138 A 
ATOM     35  C15 467 d   1      14.681   9.590   3.529  0.00  0.00     0.052 A 
ATOM     36  H12 467 d   1      14.642  11.675   4.080  0.00  0.00     0.087 H 
ATOM     37 CL   467 d   1      16.107   9.248   4.388  0.00  0.00    -0.083 Cl
ATOM     38  C16 467 d   1      14.055   8.497   2.838  0.00  0.00     0.025 A 
ATOM     39  N5  467 d   1      12.899   8.667   2.150  0.00  0.00    -0.241 NA
ATOM     40  H13 467 d   1      14.516   7.516   2.867  0.00  0.00     0.117 H 
ATOM     41  N4  467 d   1      11.230  10.370   1.421  0.00  0.00    -0.349 N 
ATOM     42  C11 467 d   1      11.045  11.736   1.664  0.00  0.00    -0.007 A 
ATOM     43  H14 467 d   1      10.639   9.775   0.822  0.00  0.00     0.167 HD
ATOM     44  H15 467 d   1      10.239  12.341   1.252  0.00  0.00     0.112 H 
ENDBRANCH   5  31
TORSDOF 8
