REMARK  2 active torsions:
REMARK  status: ('A' for Active; 'I' for Inactive)
REMARK    1  A    between atoms: C04_4  and  S07_7 
REMARK    2  A    between atoms: S07_7  and  NP0_10 
ROOT
ATOM      1  C01 FB2 d   1      -1.143   6.473  84.412  0.00  0.00    -0.083 A 
ATOM      2  C02 FB2 d   1      -2.472   6.417  84.771  0.00  0.00    -0.082 A 
ATOM      3  C03 FB2 d   1      -2.969   5.328  85.468  0.00  0.00    -0.060 A 
ATOM      4  C04 FB2 d   1      -2.110   4.294  85.806  0.00  0.00     0.079 A 
ATOM      5  C05 FB2 d   1      -0.773   4.335  85.440  0.00  0.00    -0.060 A 
ATOM      6  C06 FB2 d   1      -0.298   5.434  84.743  0.00  0.00    -0.082 A 
ATOM      7  H1  FB2 d   1      -0.762   7.332  83.871  0.00  0.00     0.083 H 
ATOM      8  H2  FB2 d   1      -3.135   7.233  84.506  0.00  0.00     0.083 H 
ATOM      9  H3  FB2 d   1      -4.016   5.285  85.746  0.00  0.00     0.085 H 
ATOM     10  H4  FB2 d   1      -0.108   3.518  85.696  0.00  0.00     0.085 H 
ATOM     11  H5  FB2 d   1       0.746   5.478  84.455  0.00  0.00     0.083 H 
ENDROOT
BRANCH   4  12
ATOM     12  S07 FB2 d   1      -2.716   2.934  86.762  0.00  0.00     0.256 S 
ATOM     13  O09 FB2 d   1      -4.141   2.911  86.605  0.00  0.00    -0.201 OA
ATOM     14  O08 FB2 d   1      -2.171   3.077  88.079  0.00  0.00    -0.201 OA
BRANCH  12  15
ATOM     15  NP0 FB2 d   1      -2.101   1.627  86.149  0.00  0.00    -0.324 N 
ATOM     16  H6  FB2 d   1      -2.320   0.737  86.548  0.00  0.00     0.169 HD
ATOM     17  H7  FB2 d   1      -1.490   1.685  85.360  0.00  0.00     0.169 HD
ENDBRANCH  12  15
ENDBRANCH   4  12
TORSDOF 2
