REMARK  3 active torsions:
REMARK  status: ('A' for Active; 'I' for Inactive)
REMARK    1  A    between atoms: C1_1  and  C_11 
REMARK    2  A    between atoms: C4_3  and  S_6 
REMARK    3  A    between atoms: S_6  and  N_8 
ROOT
ATOM      1  C1  4J8 d   1      -1.112   4.697  84.602  0.00  0.00    -0.062 A 
ATOM      2  C2  4J8 d   1      -0.314   3.628  84.982  0.00  0.00    -0.076 A 
ATOM      3  C4  4J8 d   1      -2.169   2.547  86.031  0.00  0.00     0.079 A 
ATOM      4  C6  4J8 d   1      -2.456   4.660  84.947  0.00  0.00    -0.076 A 
ATOM      5  C3  4J8 d   1      -0.827   2.554  85.693  0.00  0.00    -0.060 A 
ATOM      6  C5  4J8 d   1      -2.994   3.596  85.655  0.00  0.00    -0.060 A 
ATOM      7  H1  4J8 d   1       0.737   3.632  84.716  0.00  0.00     0.084 H 
ATOM      8  H2  4J8 d   1      -3.100   5.482  84.656  0.00  0.00     0.084 H 
ATOM      9  H5  4J8 d   1      -0.185   1.730  85.981  0.00  0.00     0.085 H 
ATOM     10  H6  4J8 d   1      -4.047   3.584  85.912  0.00  0.00     0.085 H 
ENDROOT
BRANCH   3  11
ATOM     11  S   4J8 d   1      -2.833   1.208  86.989  0.00  0.00     0.256 S 
ATOM     12  O1  4J8 d   1      -4.255   1.268  86.856  0.00  0.00    -0.201 OA
ATOM     13  O   4J8 d   1      -2.288   1.333  88.318  0.00  0.00    -0.201 OA
BRANCH  11  14
ATOM     14  N   4J8 d   1      -2.315  -0.159  86.358  0.00  0.00    -0.324 N 
ATOM     15  H3  4J8 d   1      -2.586  -1.032  86.764  0.00  0.00     0.169 HD
ATOM     16  H4  4J8 d   1      -1.719  -0.145  85.555  0.00  0.00     0.169 HD
ENDBRANCH  11  14
ENDBRANCH   3  11
BRANCH   1  17
ATOM     17  C   4J8 d   1      -0.539   5.869  83.847  0.00  0.00    -0.051 C 
ATOM     18  H7  4J8 d   1       0.535   5.704  83.674  0.00  0.00     0.033 H 
ATOM     19  H8  4J8 d   1      -0.678   6.788  84.436  0.00  0.00     0.033 H 
ATOM     20  H9  4J8 d   1      -1.055   5.971  82.881  0.00  0.00     0.033 H 
ENDBRANCH   1  17
TORSDOF 3
