REMARK  7 active torsions:
REMARK  status: ('A' for Active; 'I' for Inactive)
REMARK    1  A    between atoms: C11_2  and  C12_3 
REMARK       I    between atoms: C11_2  and  N2_14 
REMARK    2  A    between atoms: C15_6  and  N3_7 
REMARK    3  A    between atoms: N2_14  and  C10_15 
REMARK    4  A    between atoms: C10_15  and  C9_16 
REMARK    5  A    between atoms: C9_16  and  C8_17 
REMARK    6  A    between atoms: C6_24  and  C7_25 
REMARK    7  A    between atoms: C1_26  and  C_27 
ROOT
ATOM      1  C10 4K6 d   1     -15.525 -36.867 -13.419  0.00  0.00     0.002 C 
ATOM      2  H8  4K6 d   1     -16.312 -36.392 -12.815  0.00  0.00     0.064 H 
ATOM      3  H9  4K6 d   1     -15.911 -37.071 -14.428  0.00  0.00     0.064 H 
ENDROOT
BRANCH   1   4
ATOM      4  N2  4K6 d   1     -15.153 -38.132 -12.794  0.00  0.00    -0.356 N 
ATOM      5  C11 4K6 d   1     -16.076 -39.040 -12.467  0.00  0.00     0.251 C 
ATOM      6  O   4K6 d   1     -17.267 -38.873 -12.728  0.00  0.00    -0.268 OA
ATOM      7  H7  4K6 d   1     -14.189 -38.322 -12.607  0.00  0.00     0.162 HD
BRANCH   5   8
ATOM      8  C12 4K6 d   1     -15.613 -40.283 -11.774  0.00  0.00     0.032 A 
ATOM      9  C17 4K6 d   1     -16.374 -41.434 -11.971  0.00  0.00    -0.066 A 
ATOM     10  C16 4K6 d   1     -16.152 -42.568 -11.213  0.00  0.00    -0.056 A 
ATOM     11  H1  4K6 d   1     -17.150 -41.440 -12.728  0.00  0.00     0.085 H 
ATOM     12  C15 4K6 d   1     -15.154 -42.578 -10.249  0.00  0.00     0.041 A 
ATOM     13  H2  4K6 d   1     -16.759 -43.452 -11.372  0.00  0.00     0.087 H 
ATOM     14  C14 4K6 d   1     -14.354 -41.454 -10.074  0.00  0.00    -0.056 A 
ATOM     15  C13 4K6 d   1     -14.580 -40.317 -10.836  0.00  0.00    -0.066 A 
ATOM     16  H5  4K6 d   1     -13.554 -41.466  -9.342  0.00  0.00     0.087 H 
ATOM     17  H6  4K6 d   1     -13.948 -39.447 -10.702  0.00  0.00     0.085 H 
BRANCH  12  18
ATOM     18  N3  4K6 d   1     -14.974 -43.727  -9.418  0.00  0.00    -0.297 N 
ATOM     19  C19 4K6 d   1     -14.766 -43.761  -8.075  0.00  0.00     0.093 A 
ATOM     20  N5  4K6 d   1     -14.712 -44.987  -7.642  0.00  0.00    -0.144 NA
ATOM     21  H3  4K6 d   1     -14.659 -42.879  -7.445  0.00  0.00     0.147 H 
ATOM     22  N4  4K6 d   1     -14.896 -45.815  -8.746  0.00  0.00    -0.144 NA
ATOM     23  C18 4K6 d   1     -15.045 -45.037  -9.780  0.00  0.00     0.093 A 
ATOM     24  H4  4K6 d   1     -15.205 -45.388 -10.798  0.00  0.00     0.147 H 
ENDBRANCH  12  18
ENDBRANCH   5   8
ENDBRANCH   1   4
BRANCH   1  25
ATOM     25  C9  4K6 d   1     -14.359 -35.919 -13.529  0.00  0.00     0.005 C 
ATOM     26  H10 4K6 d   1     -14.684 -35.019 -14.071  0.00  0.00     0.047 H 
ATOM     27  H11 4K6 d   1     -13.552 -36.413 -14.090  0.00  0.00     0.047 H 
BRANCH  25  28
ATOM     28  C8  4K6 d   1     -13.838 -35.514 -12.193  0.00  0.00     0.106 A 
ATOM     29  N1  4K6 d   1     -14.593 -34.853 -11.286  0.00  0.00    -0.233 NA
ATOM     30  C3  4K6 d   1     -13.763 -34.541 -10.211  0.00  0.00     0.086 A 
ATOM     31  C2  4K6 d   1     -13.991 -33.940  -8.982  0.00  0.00    -0.047 A 
ATOM     32  C4  4K6 d   1     -12.516 -35.063 -10.550  0.00  0.00     0.063 A 
ATOM     33  C1  4K6 d   1     -12.949 -33.869  -8.059  0.00  0.00    -0.054 A 
ATOM     34  H12 4K6 d   1     -14.966 -33.531  -8.743  0.00  0.00     0.088 H 
ATOM     35  C6  4K6 d   1     -11.657 -34.342  -8.420  0.00  0.00    -0.054 A 
ATOM     36  C5  4K6 d   1     -11.456 -34.947  -9.657  0.00  0.00    -0.049 A 
ATOM     37  H14 4K6 d   1     -10.476 -35.327  -9.924  0.00  0.00     0.087 H 
ATOM     38  N   4K6 d   1     -12.590 -35.683 -11.797  0.00  0.00    -0.343 N 
ATOM     39  H13 4K6 d   1     -11.834 -36.168 -12.301  0.00  0.00     0.167 HD
BRANCH  33  40
ATOM     40  C   4K6 d   1     -13.224 -33.370  -6.661  0.00  0.00    -0.051 C 
ATOM     41  H18 4K6 d   1     -14.274 -33.051  -6.585  0.00  0.00     0.033 H 
ATOM     42  H19 4K6 d   1     -12.565 -32.517  -6.440  0.00  0.00     0.033 H 
ATOM     43  H20 4K6 d   1     -13.033 -34.178  -5.939  0.00  0.00     0.033 H 
ENDBRANCH  33  40
BRANCH  35  44
ATOM     44  C7  4K6 d   1     -10.484 -34.191  -7.486  0.00  0.00    -0.051 C 
ATOM     45  H15 4K6 d   1      -9.585 -34.620  -7.954  0.00  0.00     0.033 H 
ATOM     46  H16 4K6 d   1     -10.695 -34.719  -6.544  0.00  0.00     0.033 H 
ATOM     47  H17 4K6 d   1     -10.316 -33.124  -7.278  0.00  0.00     0.033 H 
ENDBRANCH  35  44
ENDBRANCH  25  28
ENDBRANCH   1  25
TORSDOF 7
