REMARK  3 active torsions:
REMARK  status: ('A' for Active; 'I' for Inactive)
REMARK    1  A    between atoms: C2'_10  and  O2'_11 
REMARK    2  A    between atoms: C1'_12  and  N9_13 
REMARK    3  A    between atoms: C2_20  and  N2_21 
ROOT
ATOM      1  PA  PCG d   1      25.904 -21.901 -27.529  0.00  0.00     0.408 P 
ATOM      2  O1A PCG d   1      25.004 -23.069 -26.803  0.00  0.00    -0.624 OA
ATOM      3  O2A PCG d   1      26.144 -22.002 -28.963  0.00  0.00    -0.624 OA
ATOM      4  O5' PCG d   1      25.160 -20.593 -27.260  0.00  0.00    -0.287 OA
ATOM      5  C5' PCG d   1      24.986 -20.456 -25.742  0.00  0.00     0.058 C 
ATOM      6  C4' PCG d   1      26.327 -20.189 -25.165  0.00  0.00     0.090 C 
ATOM      7  O4' PCG d   1      26.565 -19.822 -23.790  0.00  0.00    -0.353 OA
ATOM      8  C3' PCG d   1      27.183 -21.422 -25.311  0.00  0.00     0.106 C 
ATOM      9  O3' PCG d   1      27.324 -21.883 -26.697  0.00  0.00    -0.279 OA
ATOM     10  C2' PCG d   1      28.464 -21.126 -24.561  0.00  0.00     0.106 C 
ATOM     11  C1' PCG d   1      27.978 -20.106 -23.509  0.00  0.00     0.140 C 
ATOM     12  H1  PCG d   1      24.576 -21.387 -25.325  0.00  0.00     0.079 H 
ATOM     13  H2  PCG d   1      24.306 -19.622 -25.515  0.00  0.00     0.079 H 
ATOM     14  H3  PCG d   1      26.745 -19.377 -25.778  0.00  0.00     0.090 H 
ATOM     15  H4  PCG d   1      26.680 -22.242 -24.778  0.00  0.00     0.092 H 
ATOM     16  H5  PCG d   1      28.770 -22.034 -24.021  0.00  0.00     0.093 H 
ATOM     17  H7  PCG d   1      28.570 -19.184 -23.601  0.00  0.00     0.122 H 
ENDROOT
BRANCH  11  18
ATOM     18  N9  PCG d   1      28.100 -20.618 -22.117  0.00  0.00    -0.293 N 
ATOM     19  C8  PCG d   1      28.759 -19.953 -20.986  0.00  0.00     0.071 C 
ATOM     20  N7  PCG d   1      28.755 -20.887 -19.870  0.00  0.00    -0.235 NA
ATOM     21  H8  PCG d   1      29.174 -18.946 -20.983  0.00  0.00     0.144 H 
ATOM     22  C5  PCG d   1      27.854 -21.990 -20.248  0.00  0.00     0.159 A 
ATOM     23  C6  PCG d   1      27.336 -23.159 -19.462  0.00  0.00     0.226 A 
ATOM     24  C4  PCG d   1      27.447 -21.835 -21.600  0.00  0.00     0.185 A 
ATOM     25  O6  PCG d   1      27.741 -23.308 -18.138  0.00  0.00    -0.169 OA
ATOM     26  N1  PCG d   1      26.471 -24.066 -20.039  0.00  0.00    -0.164 N 
ATOM     27  C2  PCG d   1      26.072 -23.906 -21.389  0.00  0.00     0.702 A 
ATOM     28  H9  PCG d   1      26.125 -24.837 -19.504  0.00  0.00     0.186 HD
ATOM     29  N3  PCG d   1      26.584 -22.737 -22.190  0.00  0.00    -0.044 NA
BRANCH  27  30
ATOM     30  N2  PCG d   1      25.195 -24.892 -22.000  0.00  0.00    -0.233 N 
ATOM     31  H10 PCG d   1      24.901 -24.782 -22.981  0.00  0.00     0.174 HD
ATOM     32  H11 PCG d   1      24.868 -25.700 -21.452  0.00  0.00     0.174 HD
ENDBRANCH  27  30
ENDBRANCH  11  18
BRANCH  10  33
ATOM     33  O2' PCG d   1      29.540 -20.811 -25.373  0.00  0.00    -0.388 OA
ATOM     34  H6  PCG d   1      29.720 -21.540 -25.955  0.00  0.00     0.210 HD
ENDBRANCH  10  33
TORSDOF 3
