REMARK  6 active torsions:
REMARK  status: ('A' for Active; 'I' for Inactive)
REMARK    1  A    between atoms: C13_2  and  C14_3 
REMARK       I    between atoms: C13_2  and  N2_14 
REMARK    2  A    between atoms: C17_6  and  N3_7 
REMARK    3  A    between atoms: N2_14  and  C9_15 
REMARK    4  A    between atoms: C9_15  and  C12_16 
REMARK    5  A    between atoms: C4_20  and  O1_21 
REMARK    6  A    between atoms: C1_29  and  C_30 
ROOT
ATOM      1  C9  4LN d   1     -15.126 -35.759 -12.831  0.00  0.00     0.034 C 
ATOM      2  C8  4LN d   1     -15.198 -34.722 -11.692  0.00  0.00    -0.014 C 
ATOM      3  C7  4LN d   1     -13.938 -34.750 -10.883  0.00  0.00     0.002 A 
ATOM      4  C5  4LN d   1     -13.673 -34.263  -9.620  0.00  0.00     0.100 A 
ATOM      5  C4  4LN d   1     -14.452 -33.689  -8.580  0.00  0.00     0.095 A 
ATOM      6  C3  4LN d   1     -13.820 -33.337  -7.405  0.00  0.00    -0.047 A 
ATOM      7  C2  4LN d   1     -12.465 -33.570  -7.238  0.00  0.00    -0.057 A 
ATOM      8  C10 4LN d   1     -13.791 -35.593 -13.573  0.00  0.00    -0.037 C 
ATOM      9  C11 4LN d   1     -12.581 -35.965 -12.705  0.00  0.00    -0.020 C 
ATOM     10  C6  4LN d   1     -12.727 -35.283 -11.382  0.00  0.00     0.064 A 
ATOM     11  N1  4LN d   1     -11.713 -35.122 -10.476  0.00  0.00    -0.171 NA
ATOM     12  N   4LN d   1     -12.296 -34.500  -9.413  0.00  0.00    -0.235 N 
ATOM     13  C1  4LN d   1     -11.677 -34.132  -8.235  0.00  0.00     0.033 A 
ATOM     14  H11 4LN d   1     -16.053 -34.957 -11.041  0.00  0.00     0.044 H 
ATOM     15  H12 4LN d   1     -15.330 -33.718 -12.123  0.00  0.00     0.044 H 
ATOM     16  H14 4LN d   1     -14.391 -32.872  -6.603  0.00  0.00     0.087 H 
ATOM     17  H15 4LN d   1     -12.000 -33.303  -6.290  0.00  0.00     0.086 H 
ATOM     18  H16 4LN d   1     -13.690 -34.543 -13.886  0.00  0.00     0.037 H 
ATOM     19  H17 4LN d   1     -13.799 -36.241 -14.462  0.00  0.00     0.037 H 
ATOM     20  H18 4LN d   1     -11.655 -35.632 -13.195  0.00  0.00     0.042 H 
ATOM     21  H19 4LN d   1     -12.548 -37.055 -12.560  0.00  0.00     0.042 H 
ENDROOT
BRANCH   1  22
ATOM     22  N2  4LN d   1     -15.198 -37.093 -12.211  0.00  0.00    -0.348 N 
ATOM     23  C13 4LN d   1     -15.122 -38.289 -12.836  0.00  0.00     0.252 C 
ATOM     24  O   4LN d   1     -15.026 -38.406 -14.058  0.00  0.00    -0.268 OA
ATOM     25  H7  4LN d   1     -15.316 -37.117 -11.218  0.00  0.00     0.163 HD
BRANCH  23  26
ATOM     26  C14 4LN d   1     -15.179 -39.493 -11.961  0.00  0.00     0.032 A 
ATOM     27  C19 4LN d   1     -14.276 -39.658 -10.913  0.00  0.00    -0.066 A 
ATOM     28  C18 4LN d   1     -14.258 -40.826 -10.175  0.00  0.00    -0.056 A 
ATOM     29  H1  4LN d   1     -13.580 -38.862 -10.674  0.00  0.00     0.085 H 
ATOM     30  C17 4LN d   1     -15.160 -41.839 -10.460  0.00  0.00     0.041 A 
ATOM     31  H2  4LN d   1     -13.539 -40.950  -9.373  0.00  0.00     0.087 H 
ATOM     32  C16 4LN d   1     -16.081 -41.676 -11.484  0.00  0.00    -0.056 A 
ATOM     33  C15 4LN d   1     -16.085 -40.513 -12.231  0.00  0.00    -0.066 A 
ATOM     34  H5  4LN d   1     -16.798 -42.461 -11.698  0.00  0.00     0.087 H 
ATOM     35  H6  4LN d   1     -16.802 -40.395 -13.036  0.00  0.00     0.085 H 
BRANCH  30  36
ATOM     36  N3  4LN d   1     -15.123 -43.059  -9.719  0.00  0.00    -0.297 N 
ATOM     37  C21 4LN d   1     -15.306 -44.322 -10.187  0.00  0.00     0.093 A 
ATOM     38  N5  4LN d   1     -15.195 -45.194  -9.227  0.00  0.00    -0.144 NA
ATOM     39  H3  4LN d   1     -15.517 -44.571 -11.226  0.00  0.00     0.147 H 
ATOM     40  N4  4LN d   1     -14.925 -44.484  -8.064  0.00  0.00    -0.144 NA
ATOM     41  C20 4LN d   1     -14.889 -43.224  -8.391  0.00  0.00     0.093 A 
ATOM     42  H4  4LN d   1     -14.697 -42.411  -7.693  0.00  0.00     0.147 H 
ENDBRANCH  30  36
ENDBRANCH  23  26
ENDBRANCH   1  22
BRANCH   1  43
ATOM     43  C12 4LN d   1     -16.285 -35.573 -13.806  0.00  0.00    -0.053 C 
ATOM     44  H8  4LN d   1     -16.223 -34.575 -14.264  0.00  0.00     0.030 H 
ATOM     45  H9  4LN d   1     -17.238 -35.670 -13.265  0.00  0.00     0.030 H 
ATOM     46  H10 4LN d   1     -16.230 -36.341 -14.592  0.00  0.00     0.030 H 
ENDBRANCH   1  43
BRANCH   5  47
ATOM     47  O1  4LN d   1     -15.794 -33.564  -8.747  0.00  0.00    -0.358 OA
ATOM     48  H13 4LN d   1     -16.173 -33.166  -7.972  0.00  0.00     0.217 HD
ENDBRANCH   5  47
BRANCH  13  49
ATOM     49  C   4LN d   1     -10.203 -34.310  -8.076  0.00  0.00    -0.035 C 
ATOM     50  H20 4LN d   1      -9.897 -33.962  -7.078  0.00  0.00     0.035 H 
ATOM     51  H21 4LN d   1      -9.678 -33.724  -8.845  0.00  0.00     0.035 H 
ATOM     52  H22 4LN d   1      -9.948 -35.374  -8.188  0.00  0.00     0.035 H 
ENDBRANCH  13  49
TORSDOF 6
