REMARK  3 active torsions:
REMARK  status: ('A' for Active; 'I' for Inactive)
REMARK    1  A    between atoms: C10_5  and  C9_4 
REMARK       I    between atoms: C9_4  and  N_21 
REMARK    2  A    between atoms: S_12  and  N1_14 
REMARK    3  A    between atoms: C13_15  and  S_12 
ROOT
ATOM      1  C2  4K9 d   1      19.152   9.713  14.532  0.00  0.00    -0.056 A 
ATOM      2  C3  4K9 d   1      21.408  10.020  12.793  0.00  0.00    -0.075 A 
ATOM      3  C4  4K9 d   1      20.586   8.859  12.751  0.00  0.00    -0.031 A 
ATOM      4  C9  4K9 d   1      17.499   7.472  14.005  0.00  0.00     0.258 C 
ATOM      5  C1  4K9 d   1      19.971  10.828  14.536  0.00  0.00    -0.081 A 
ATOM      6  C5  4K9 d   1      19.488   8.746  13.607  0.00  0.00     0.043 A 
ATOM      7  C6  4K9 d   1      19.561   6.417  13.584  0.00  0.00     0.004 C 
ATOM      8  C7  4K9 d   1      20.705   6.445  12.586  0.00  0.00    -0.046 C 
ATOM      9  C8  4K9 d   1      20.903   7.721  11.812  0.00  0.00    -0.037 C 
ATOM     10  O   4K9 d   1      16.760   8.385  13.746  0.00  0.00    -0.267 OA
ATOM     11  N   4K9 d   1      18.713   7.538  13.546  0.00  0.00    -0.313 N 
ATOM     12  C   4K9 d   1      21.046  10.959  13.714  0.00  0.00    -0.082 A 
ATOM     13  H1  4K9 d   1      18.309   9.607  15.205  0.00  0.00     0.086 H 
ATOM     14  H2  4K9 d   1      22.262  10.149  12.139  0.00  0.00     0.084 H 
ATOM     15  H3  4K9 d   1      19.745  11.633  15.226  0.00  0.00     0.083 H 
ATOM     16  H4  4K9 d   1      19.991   6.348  14.594  0.00  0.00     0.065 H 
ATOM     17  H5  4K9 d   1      18.954   5.522  13.382  0.00  0.00     0.065 H 
ATOM     18  H6  4K9 d   1      20.531   5.639  11.858  0.00  0.00     0.035 H 
ATOM     19  H7  4K9 d   1      21.634   6.245  13.140  0.00  0.00     0.035 H 
ATOM     20  H8  4K9 d   1      21.945   7.795  11.466  0.00  0.00     0.040 H 
ATOM     21  H9  4K9 d   1      20.226   7.746  10.945  0.00  0.00     0.040 H 
ATOM     22  H16 4K9 d   1      21.647  11.857  13.795  0.00  0.00     0.083 H 
ENDROOT
BRANCH   4  23
ATOM     23  C10 4K9 d   1      16.904   6.255  14.685  0.00  0.00     0.032 A 
ATOM     24  C11 4K9 d   1      17.663   5.206  15.132  0.00  0.00    -0.066 A 
ATOM     25  C12 4K9 d   1      17.082   4.120  15.729  0.00  0.00    -0.059 A 
ATOM     26  H13 4K9 d   1      18.740   5.236  15.011  0.00  0.00     0.085 H 
ATOM     27  C13 4K9 d   1      15.708   4.037  15.923  0.00  0.00     0.079 A 
ATOM     28  H12 4K9 d   1      17.711   3.301  16.060  0.00  0.00     0.085 H 
ATOM     29  C14 4K9 d   1      14.886   5.109  15.487  0.00  0.00    -0.059 A 
ATOM     30  C15 4K9 d   1      15.537   6.206  14.815  0.00  0.00    -0.066 A 
ATOM     31  H14 4K9 d   1      13.815   5.103  15.652  0.00  0.00     0.085 H 
ATOM     32  H15 4K9 d   1      14.936   7.009  14.404  0.00  0.00     0.085 H 
BRANCH  27  33
ATOM     33  S   4K9 d   1      15.061   2.665  16.792  0.00  0.00     0.256 S 
ATOM     34  O2  4K9 d   1      13.614   2.702  16.684  0.00  0.00    -0.201 OA
ATOM     35  O1  4K9 d   1      15.633   2.773  18.109  0.00  0.00    -0.201 OA
BRANCH  33  36
ATOM     36  N1  4K9 d   1      15.590   1.332  16.157  0.00  0.00    -0.324 N 
ATOM     37  H10 4K9 d   1      15.306   1.071  15.235  0.00  0.00     0.169 HD
ATOM     38  H11 4K9 d   1      16.211   0.744  16.675  0.00  0.00     0.169 HD
ENDBRANCH  33  36
ENDBRANCH  27  33
ENDBRANCH   4  23
TORSDOF 3
