REMARK  5 active torsions:
REMARK  status: ('A' for Active; 'I' for Inactive)
REMARK    1  A    between atoms: S_2  and  N1_4 
REMARK    2  A    between atoms: S_2  and  C2_5 
REMARK    3  A    between atoms: C5_9  and  C6_11 
REMARK       I    between atoms: C6_11  and  N_13 
REMARK    4  A    between atoms: C13_17  and  O3_18 
REMARK    5  A    between atoms: O3_18  and  C16_19 
ROOT
ATOM      1  C6  DF5 d   1      16.964   7.312  13.453  0.00  0.00     0.258 C 
ATOM      2  O   DF5 d   1      16.055   7.920  12.822  0.00  0.00    -0.267 OA
ATOM      3  N   DF5 d   1      18.288   7.853  13.292  0.00  0.00    -0.313 N 
ATOM      4  C10 DF5 d   1      18.532   8.750  12.205  0.00  0.00     0.044 A 
ATOM      5  C15 DF5 d   1      18.301   8.374  10.854  0.00  0.00    -0.054 A 
ATOM      6  C14 DF5 d   1      18.546   9.247   9.784  0.00  0.00    -0.049 A 
ATOM      7  C13 DF5 d   1      19.043  10.527  10.048  0.00  0.00     0.068 A 
ATOM      8  C12 DF5 d   1      19.285  10.936  11.372  0.00  0.00    -0.043 A 
ATOM      9  C11 DF5 d   1      19.030  10.068  12.446  0.00  0.00    -0.028 A 
ATOM     10  C9  DF5 d   1      19.336  10.563  13.815  0.00  0.00    -0.037 C 
ATOM     11  C8  DF5 d   1      19.355   9.536  14.907  0.00  0.00    -0.046 C 
ATOM     12  C7  DF5 d   1      18.933   8.111  14.568  0.00  0.00     0.004 C 
ATOM     13  H7  DF5 d   1      17.923   7.380  10.644  0.00  0.00     0.087 H 
ATOM     14  H8  DF5 d   1      18.352   8.933   8.765  0.00  0.00     0.087 H 
ATOM     15  H12 DF5 d   1      19.672  11.930  11.565  0.00  0.00     0.088 H 
ATOM     16  H13 DF5 d   1      18.577  11.315  14.076  0.00  0.00     0.040 H 
ATOM     17  H14 DF5 d   1      20.328  11.038  13.785  0.00  0.00     0.040 H 
ATOM     18  H15 DF5 d   1      18.684   9.894  15.702  0.00  0.00     0.035 H 
ATOM     19  H16 DF5 d   1      20.385   9.488  15.291  0.00  0.00     0.035 H 
ATOM     20  H17 DF5 d   1      19.840   7.489  14.603  0.00  0.00     0.065 H 
ATOM     21  H18 DF5 d   1      18.235   7.786  15.354  0.00  0.00     0.065 H 
ENDROOT
BRANCH   1  22
ATOM     22  C5  DF5 d   1      16.636   6.098  14.294  0.00  0.00     0.032 A 
ATOM     23  C4  DF5 d   1      15.332   6.030  14.783  0.00  0.00    -0.066 A 
ATOM     24  C3  DF5 d   1      14.931   4.962  15.580  0.00  0.00    -0.059 A 
ATOM     25  H5  DF5 d   1      14.625   6.815  14.540  0.00  0.00     0.085 H 
ATOM     26  C2  DF5 d   1      15.810   3.904  15.911  0.00  0.00     0.079 A 
ATOM     27  H4  DF5 d   1      13.915   4.940  15.958  0.00  0.00     0.085 H 
ATOM     28  C1  DF5 d   1      17.132   3.987  15.432  0.00  0.00    -0.059 A 
ATOM     29  C   DF5 d   1      17.541   5.062  14.616  0.00  0.00    -0.066 A 
ATOM     30  H3  DF5 d   1      17.845   3.214  15.694  0.00  0.00     0.085 H 
ATOM     31  H6  DF5 d   1      18.555   5.094  14.234  0.00  0.00     0.085 H 
BRANCH  26  32
ATOM     32  S   DF5 d   1      15.231   2.623  16.867  0.00  0.00     0.256 S 
ATOM     33  O2  DF5 d   1      13.833   2.725  16.794  0.00  0.00    -0.201 OA
ATOM     34  O1  DF5 d   1      15.771   2.747  18.182  0.00  0.00    -0.201 OA
BRANCH  32  35
ATOM     35  N1  DF5 d   1      15.615   1.287  16.093  0.00  0.00    -0.324 N 
ATOM     36  H1  DF5 d   1      15.273   1.130  15.166  0.00  0.00     0.169 HD
ATOM     37  H2  DF5 d   1      16.198   0.604  16.533  0.00  0.00     0.169 HD
ENDBRANCH  32  35
ENDBRANCH  26  32
ENDBRANCH   1  22
BRANCH   7  38
ATOM     38  O3  DF5 d   1      19.321  11.469   9.077  0.00  0.00    -0.356 OA
BRANCH  38  39
ATOM     39  C16 DF5 d   1      20.698  11.540   8.623  0.00  0.00     0.010 C 
ATOM     40  H9  DF5 d   1      20.791  12.322   7.855  0.00  0.00     0.066 H 
ATOM     41  H10 DF5 d   1      20.994  10.570   8.196  0.00  0.00     0.066 H 
ATOM     42  H11 DF5 d   1      21.352  11.781   9.473  0.00  0.00     0.066 H 
ENDBRANCH  38  39
ENDBRANCH   7  38
TORSDOF 5
