REMARK  3 active torsions:
REMARK  status: ('A' for Active; 'I' for Inactive)
REMARK    1  A    between atoms: C9_3  and  C10_4 
REMARK       I    between atoms: N_19  and  C9_3 
REMARK    2  A    between atoms: C13_14  and  S_15 
REMARK    3  A    between atoms: S_15  and  N1_16 
ROOT
ATOM      1  C3  4KC d   1      18.638  11.148  11.699  0.00  0.00    -0.075 A 
ATOM      2  C4  4KC d   1      18.544   9.987  12.493  0.00  0.00    -0.034 A 
ATOM      3  C9  4KC d   1      16.393   7.209  13.061  0.00  0.00     0.254 C 
ATOM      4  C5  4KC d   1      17.863   8.766  11.887  0.00  0.00     0.022 C 
ATOM      5  C6  4KC d   1      18.711   7.622  13.849  0.00  0.00     0.002 C 
ATOM      6  C7  4KC d   1      18.958   8.849  14.696  0.00  0.00    -0.025 C 
ATOM      7  C8  4KC d   1      19.042  10.022  13.831  0.00  0.00    -0.049 A 
ATOM      8  O   4KC d   1      15.406   7.574  12.378  0.00  0.00    -0.267 OA
ATOM      9  N   4KC d   1      17.627   7.768  12.911  0.00  0.00    -0.343 N 
ATOM     10  C18 4KC d   1      19.665  11.163  14.378  0.00  0.00    -0.076 A 
ATOM     11  C17 4KC d   1      19.761  12.309  13.578  0.00  0.00    -0.082 A 
ATOM     12  C16 4KC d   1      19.248  12.290  12.255  0.00  0.00    -0.082 A 
ATOM     13  H1  4KC d   1      18.251  11.162  10.687  0.00  0.00     0.084 H 
ATOM     14  H2  4KC d   1      18.509   8.340  11.105  0.00  0.00     0.071 H 
ATOM     15  H3  4KC d   1      16.902   9.068  11.444  0.00  0.00     0.071 H 
ATOM     16  H4  4KC d   1      18.479   6.780  14.518  0.00  0.00     0.064 H 
ATOM     17  H5  4KC d   1      19.629   7.400  13.285  0.00  0.00     0.064 H 
ATOM     18  H6  4KC d   1      19.902   8.731  15.248  0.00  0.00     0.042 H 
ATOM     19  H7  4KC d   1      18.130   8.976  15.409  0.00  0.00     0.042 H 
ATOM     20  H14 4KC d   1      20.058  11.153  15.388  0.00  0.00     0.084 H 
ATOM     21  H15 4KC d   1      20.226  13.207  13.968  0.00  0.00     0.083 H 
ATOM     22  H16 4KC d   1      19.328  13.186  11.650  0.00  0.00     0.083 H 
ENDROOT
BRANCH   3  23
ATOM     23  C10 4KC d   1      16.148   6.082  14.004  0.00  0.00     0.032 A 
ATOM     24  C11 4KC d   1      16.999   4.947  14.018  0.00  0.00    -0.066 A 
ATOM     25  C12 4KC d   1      16.679   3.892  14.883  0.00  0.00    -0.059 A 
ATOM     26  H8  4KC d   1      17.872   4.897  13.378  0.00  0.00     0.085 H 
ATOM     27  C13 4KC d   1      15.555   3.921  15.730  0.00  0.00     0.079 A 
ATOM     28  H9  4KC d   1      17.322   3.019  14.901  0.00  0.00     0.085 H 
ATOM     29  C14 4KC d   1      14.747   5.077  15.648  0.00  0.00    -0.059 A 
ATOM     30  C15 4KC d   1      15.040   6.138  14.822  0.00  0.00    -0.066 A 
ATOM     31  H11 4KC d   1      13.856   5.131  16.263  0.00  0.00     0.085 H 
ATOM     32  H10 4KC d   1      14.402   7.014  14.815  0.00  0.00     0.085 H 
BRANCH  27  33
ATOM     33  S   4KC d   1      15.113   2.638  16.786  0.00  0.00     0.256 S 
ATOM     34  O1  4KC d   1      13.640   2.672  16.786  0.00  0.00    -0.201 OA
ATOM     35  O2  4KC d   1      15.751   2.873  18.034  0.00  0.00    -0.201 OA
BRANCH  33  36
ATOM     36  N1  4KC d   1      15.695   1.280  16.155  0.00  0.00    -0.324 N 
ATOM     37  H12 4KC d   1      15.546   0.408  16.621  0.00  0.00     0.169 HD
ATOM     38  H13 4KC d   1      16.207   1.307  15.296  0.00  0.00     0.169 HD
ENDBRANCH  33  36
ENDBRANCH  27  33
ENDBRANCH   3  23
TORSDOF 3
