REMARK  5 active torsions:
REMARK  status: ('A' for Active; 'I' for Inactive)
REMARK    1  A    between atoms: C9_3  and  C10_4 
REMARK       I    between atoms: N_19  and  C9_3 
REMARK    2  A    between atoms: C13_14  and  S_15 
REMARK    3  A    between atoms: S_15  and  N1_16 
REMARK    4  A    between atoms: C17_21  and  O17_22 
REMARK    5  A    between atoms: C16_23  and  O16_24 
ROOT
ATOM      1  C3  4KB d   1      18.582  11.000  11.618  0.00  0.00    -0.040 A 
ATOM      2  C4  4KB d   1      18.552   9.928  12.501  0.00  0.00    -0.031 A 
ATOM      3  C9  4KB d   1      16.465   7.192  13.155  0.00  0.00     0.254 C 
ATOM      4  C5  4KB d   1      17.908   8.710  11.978  0.00  0.00     0.022 C 
ATOM      5  C6  4KB d   1      18.724   7.597  13.996  0.00  0.00     0.002 C 
ATOM      6  C7  4KB d   1      19.043   8.886  14.699  0.00  0.00    -0.025 C 
ATOM      7  C8  4KB d   1      19.101  10.025  13.778  0.00  0.00    -0.046 A 
ATOM      8  O   4KB d   1      15.482   7.468  12.421  0.00  0.00    -0.267 OA
ATOM      9  N   4KB d   1      17.681   7.750  13.061  0.00  0.00    -0.343 N 
ATOM     10  C18 4KB d   1      19.717  11.203  14.214  0.00  0.00    -0.042 A 
ATOM     11  C17 4KB d   1      19.756  12.288  13.330  0.00  0.00     0.099 A 
ATOM     12  C16 4KB d   1      19.185  12.176  12.046  0.00  0.00     0.099 A 
ATOM     13  H1  4KB d   1      18.149  10.921  10.627  0.00  0.00     0.088 H 
ATOM     14  H2  4KB d   1      18.559   8.253  11.218  0.00  0.00     0.071 H 
ATOM     15  H3  4KB d   1      16.943   8.977  11.522  0.00  0.00     0.071 H 
ATOM     16  H4  4KB d   1      18.423   6.849  14.745  0.00  0.00     0.064 H 
ATOM     17  H5  4KB d   1      19.624   7.247  13.470  0.00  0.00     0.064 H 
ATOM     18  H6  4KB d   1      20.018   8.785  15.197  0.00  0.00     0.042 H 
ATOM     19  H7  4KB d   1      18.265   9.080  15.452  0.00  0.00     0.042 H 
ATOM     20  H14 4KB d   1      20.151  11.274  15.205  0.00  0.00     0.088 H 
ENDROOT
BRANCH   3  21
ATOM     21  C10 4KB d   1      16.201   6.065  14.093  0.00  0.00     0.032 A 
ATOM     22  C11 4KB d   1      17.060   4.970  14.196  0.00  0.00    -0.066 A 
ATOM     23  C12 4KB d   1      16.723   3.907  15.047  0.00  0.00    -0.059 A 
ATOM     24  H8  4KB d   1      17.980   4.941  13.623  0.00  0.00     0.085 H 
ATOM     25  C13 4KB d   1      15.552   3.892  15.795  0.00  0.00     0.079 A 
ATOM     26  H9  4KB d   1      17.402   3.065  15.124  0.00  0.00     0.085 H 
ATOM     27  C14 4KB d   1      14.731   5.023  15.645  0.00  0.00    -0.059 A 
ATOM     28  C15 4KB d   1      15.069   6.084  14.838  0.00  0.00    -0.066 A 
ATOM     29  H11 4KB d   1      13.793   5.060  16.188  0.00  0.00     0.085 H 
ATOM     30  H10 4KB d   1      14.419   6.950  14.797  0.00  0.00     0.085 H 
BRANCH  25  31
ATOM     31  S   4KB d   1      15.057   2.603  16.819  0.00  0.00     0.256 S 
ATOM     32  O1  4KB d   1      13.651   2.657  16.798  0.00  0.00    -0.201 OA
ATOM     33  O2  4KB d   1      15.653   2.841  18.090  0.00  0.00    -0.201 OA
BRANCH  31  34
ATOM     34  N1  4KB d   1      15.628   1.272  16.207  0.00  0.00    -0.324 N 
ATOM     35  H12 4KB d   1      15.450   0.398  16.658  0.00  0.00     0.169 HD
ATOM     36  H13 4KB d   1      16.169   1.300  15.367  0.00  0.00     0.169 HD
ENDBRANCH  31  34
ENDBRANCH  25  31
ENDBRANCH   3  21
BRANCH  12  37
ATOM     37  O16 4KB d   1      19.226  13.263  11.176  0.00  0.00    -0.358 OA
ATOM     38  H16 4KB d   1      18.802  13.029  10.358  0.00  0.00     0.217 HD
ENDBRANCH  12  37
BRANCH  11  39
ATOM     39  O17 4KB d   1      20.385  13.426  13.825  0.00  0.00    -0.358 OA
ATOM     40  H15 4KB d   1      21.286  13.219  14.043  0.00  0.00     0.217 HD
ENDBRANCH  11  39
TORSDOF 5
