REMARK  6 active torsions:
REMARK  status: ('A' for Active; 'I' for Inactive)
REMARK    1  A    between atoms: C13_1  and  C17_2 
REMARK       I    between atoms: C17_2  and  N19_14 
REMARK    2  A    between atoms: N05_5  and  C01_4 
REMARK    3  A    between atoms: C06_6  and  C47_27 
REMARK    4  A    between atoms: C27_17  and  C36_21 
REMARK    5  A    between atoms: C29_18  and  C31_19 
REMARK    6  A    between atoms: C31_19  and  O34_20 
ROOT
ATOM      1  C47 4LC d   1     -11.087 -16.132  29.172  0.00  0.00     0.038 A 
ATOM      2  C48 4LC d   1     -10.395 -17.209  29.672  0.00  0.00    -0.008 A 
ATOM      3  N50 4LC d   1     -10.762 -18.352  29.013  0.00  0.00    -0.364 N 
ATOM      4  C52 4LC d   1     -11.609 -18.026  27.980  0.00  0.00     0.044 A 
ATOM      5  C53 4LC d   1     -12.189 -18.829  27.001  0.00  0.00    -0.036 A 
ATOM      6  C55 4LC d   1     -13.077 -18.243  26.100  0.00  0.00     0.046 A 
ATOM      7  C56 4LC d   1     -13.381 -16.882  26.181  0.00  0.00    -0.062 A 
ATOM      8  C58 4LC d   1     -12.805 -16.091  27.175  0.00  0.00    -0.068 A 
ATOM      9  C60 4LC d   1     -11.905 -16.647  28.086  0.00  0.00     0.006 A 
ATOM     10  C61 4LC d   1     -13.626 -19.035  25.032  0.00  0.00     0.099 C 
ATOM     11  N62 4LC d   1     -14.053 -19.636  24.170  0.00  0.00    -0.191 NA
ATOM     12  H21 4LC d   1      -9.662 -17.160  30.475  0.00  0.00     0.112 H 
ATOM     13  H22 4LC d   1     -10.453 -19.305  29.253  0.00  0.00     0.165 HD
ATOM     14  H23 4LC d   1     -11.955 -19.886  26.941  0.00  0.00     0.089 H 
ATOM     15  H24 4LC d   1     -14.067 -16.439  25.468  0.00  0.00     0.085 H 
ATOM     16  H25 4LC d   1     -13.057 -15.039  27.241  0.00  0.00     0.085 H 
ENDROOT
BRANCH   1  17
ATOM     17  C06 4LC d   1     -10.984 -14.740  29.624  0.00  0.00     0.143 C 
ATOM     18  N05 4LC d   1     -10.791 -13.666  28.795  0.00  0.00    -0.333 N 
ATOM     19  C16 4LC d   1     -10.588 -12.568  29.625  0.00  0.00     0.065 A 
ATOM     20  C08 4LC d   1     -10.552 -13.078  30.917  0.00  0.00     0.086 A 
ATOM     21  C14 4LC d   1     -10.448 -11.212  29.364  0.00  0.00    -0.039 A 
ATOM     22  N07 4LC d   1     -10.766 -14.457  30.896  0.00  0.00    -0.228 NA
ATOM     23  C09 4LC d   1     -10.357 -12.210  31.993  0.00  0.00    -0.052 A 
ATOM     24  C11 4LC d   1     -10.172 -10.858  31.742  0.00  0.00    -0.065 A 
ATOM     25  H6  4LC d   1     -10.350 -12.587  33.009  0.00  0.00     0.087 H 
ATOM     26  C13 4LC d   1     -10.246 -10.346  30.442  0.00  0.00     0.034 A 
ATOM     27  H7  4LC d   1      -9.966 -10.187  32.568  0.00  0.00     0.085 H 
ATOM     28  H8  4LC d   1     -10.494 -10.834  28.349  0.00  0.00     0.088 H 
BRANCH  18  29
ATOM     29  C01 4LC d   1     -10.837 -13.593  27.329  0.00  0.00    -0.012 C 
ATOM     30  H3  4LC d   1     -11.009 -14.598  26.917  0.00  0.00     0.057 H 
ATOM     31  H4  4LC d   1      -9.881 -13.201  26.951  0.00  0.00     0.057 H 
ATOM     32  H5  4LC d   1     -11.655 -12.925  27.021  0.00  0.00     0.057 H 
ENDBRANCH  18  29
BRANCH  26  33
ATOM     33  C17 4LC d   1     -10.061  -8.889  30.144  0.00  0.00     0.254 C 
ATOM     34  O18 4LC d   1      -8.953  -8.462  29.881  0.00  0.00    -0.267 OA
ATOM     35  N19 4LC d   1     -11.153  -8.080  30.160  0.00  0.00    -0.336 N 
ATOM     36  C20 4LC d   1     -12.498  -8.612  30.426  0.00  0.00     0.018 C 
ATOM     37  C29 4LC d   1     -11.150  -6.649  29.781  0.00  0.00     0.064 C 
ATOM     38  C23 4LC d   1     -13.187  -7.761  31.466  0.00  0.00     0.035 C 
ATOM     39  H1  4LC d   1     -12.416  -9.645  30.795  0.00  0.00     0.067 H 
ATOM     40  H2  4LC d   1     -13.086  -8.600  29.496  0.00  0.00     0.067 H 
ATOM     41  O26 4LC d   1     -13.251  -6.386  31.035  0.00  0.00    -0.377 OA
ATOM     42  H9  4LC d   1     -12.625  -7.818  32.410  0.00  0.00     0.076 H 
ATOM     43  H10 4LC d   1     -14.208  -8.138  31.623  0.00  0.00     0.076 H 
ATOM     44  C27 4LC d   1     -11.956  -5.819  30.790  0.00  0.00     0.085 C 
ATOM     45  H11 4LC d   1     -12.124  -4.848  30.301  0.00  0.00     0.094 H 
ATOM     46  H12 4LC d   1     -10.108  -6.298  29.825  0.00  0.00     0.080 H 
BRANCH  44  47
ATOM     47  C36 4LC d   1     -11.266  -5.503  32.113  0.00  0.00    -0.027 A 
ATOM     48  C37 4LC d   1     -11.912  -4.714  33.058  0.00  0.00    -0.074 A 
ATOM     49  C39 4LC d   1     -11.284  -4.371  34.249  0.00  0.00    -0.082 A 
ATOM     50  H16 4LC d   1     -12.918  -4.362  32.863  0.00  0.00     0.084 H 
ATOM     51  C41 4LC d   1     -10.007  -4.822  34.518  0.00  0.00    -0.083 A 
ATOM     52  H17 4LC d   1     -11.799  -3.747  34.970  0.00  0.00     0.083 H 
ATOM     53  C43 4LC d   1      -9.340  -5.590  33.581  0.00  0.00    -0.082 A 
ATOM     54  H18 4LC d   1      -9.529  -4.575  35.459  0.00  0.00     0.083 H 
ATOM     55  C45 4LC d   1      -9.969  -5.941  32.389  0.00  0.00    -0.074 A 
ATOM     56  H19 4LC d   1      -8.326  -5.919  33.775  0.00  0.00     0.083 H 
ATOM     57  H20 4LC d   1      -9.447  -6.560  31.669  0.00  0.00     0.084 H 
ENDBRANCH  44  47
BRANCH  37  58
ATOM     58  C31 4LC d   1     -11.635  -6.444  28.345  0.00  0.00     0.038 C 
ATOM     59  H13 4LC d   1     -11.380  -5.423  28.024  0.00  0.00     0.077 H 
ATOM     60  H14 4LC d   1     -12.727  -6.575  28.315  0.00  0.00     0.077 H 
BRANCH  58  61
ATOM     61  O34 4LC d   1     -11.033  -7.373  27.452  0.00  0.00    -0.399 OA
ATOM     62  H15 4LC d   1     -11.355  -7.218  26.572  0.00  0.00     0.209 HD
ENDBRANCH  58  61
ENDBRANCH  37  58
ENDBRANCH  26  33
ENDBRANCH   1  17
TORSDOF 6
