REMARK  3 active torsions:
REMARK  status: ('A' for Active; 'I' for Inactive)
REMARK    1  A    between atoms: C5_2  and  C4_1 
REMARK    2  A    between atoms: C4_1  and  C3_8 
REMARK    3  A    between atoms: C9_22  and  C8_23 
ROOT
ATOM      1  C5  4L7 d   1     -13.478 -10.114   6.305  0.00  0.00     0.041 C 
ATOM      2  C6  4L7 d   1     -14.541  -8.999   6.304  0.00  0.00     0.092 C 
ATOM      3  C7  4L7 d   1     -12.591  -8.141   7.284  0.00  0.00     0.089 C 
ATOM      4  N   4L7 d   1     -13.933  -7.784   6.871  0.00  0.00    -0.074 N 
ATOM      5  C8  4L7 d   1     -12.551  -9.683   7.480  0.00  0.00     0.006 C 
ATOM      6  H1  4L7 d   1     -12.907 -10.101   5.365  0.00  0.00     0.056 H 
ATOM      7  H2  4L7 d   1     -15.402  -9.305   6.916  0.00  0.00     0.076 H 
ATOM      8  H3  4L7 d   1     -14.874  -8.803   5.274  0.00  0.00     0.076 H 
ATOM      9  H4  4L7 d   1     -12.343  -7.637   8.230  0.00  0.00     0.076 H 
ATOM     10  H5  4L7 d   1     -11.869  -7.843   6.510  0.00  0.00     0.076 H 
ATOM     11  H8  4L7 d   1     -14.467  -7.466   7.665  0.00  0.00     0.277 HD
ATOM     12  H9  4L7 d   1     -13.900  -7.056   6.175  0.00  0.00     0.277 HD
ATOM     13  H15 4L7 d   1     -13.002  -9.967   8.442  0.00  0.00     0.051 H 
ENDROOT
BRANCH   5  14
ATOM     14  C9  4L7 d   1     -11.143 -10.242   7.451  0.00  0.00    -0.049 A 
ATOM     15  C10 4L7 d   1     -10.398 -10.214   6.272  0.00  0.00    -0.048 A 
ATOM     16  C11 4L7 d   1      -9.017 -10.431   6.301  0.00  0.00     0.074 A 
ATOM     17  H12 4L7 d   1     -10.893 -10.023   5.327  0.00  0.00     0.087 H 
ATOM     18  N2  4L7 d   1      -8.320 -10.381   5.086  0.00  0.00    -0.243 NA
ATOM     19  C12 4L7 d   1      -8.381 -10.691   7.523  0.00  0.00     0.061 A 
ATOM     20  C16 4L7 d   1      -6.999 -10.567   5.148  0.00  0.00     0.067 A 
ATOM     21  N1  4L7 d   1      -6.299 -10.778   6.288  0.00  0.00    -0.317 N 
ATOM     22  H11 4L7 d   1      -6.443 -10.547   4.212  0.00  0.00     0.143 H 
ATOM     23  C15 4L7 d   1      -6.916 -10.861   7.538  0.00  0.00     0.258 A 
ATOM     24  H10 4L7 d   1      -5.306 -10.878   6.233  0.00  0.00     0.169 HD
ATOM     25  O1  4L7 d   1      -6.264 -11.062   8.561  0.00  0.00    -0.267 OA
ATOM     26  C13 4L7 d   1      -9.142 -10.800   8.684  0.00  0.00    -0.065 A 
ATOM     27  C14 4L7 d   1     -10.510 -10.597   8.637  0.00  0.00    -0.075 A 
ATOM     28  H13 4L7 d   1      -8.663 -11.044   9.625  0.00  0.00     0.085 H 
ATOM     29  H14 4L7 d   1     -11.098 -10.717   9.540  0.00  0.00     0.084 H 
ENDBRANCH   5  14
BRANCH   1  30
ATOM     30  C4  4L7 d   1     -14.123 -11.486   6.435  0.00  0.00     0.172 C 
ATOM     31  O   4L7 d   1     -13.975 -12.168   7.432  0.00  0.00    -0.291 OA
BRANCH  30  32
ATOM     32  C3  4L7 d   1     -14.926 -11.954   5.304  0.00  0.00     0.052 A 
ATOM     33  C2  4L7 d   1     -15.113 -11.374   4.082  0.00  0.00    -0.061 A 
ATOM     34  C1  4L7 d   1     -16.008 -12.071   3.250  0.00  0.00    -0.058 A 
ATOM     35  H7  4L7 d   1     -14.614 -10.455   3.779  0.00  0.00     0.085 H 
ATOM     36  C   4L7 d   1     -16.486 -13.181   3.838  0.00  0.00     0.052 A 
ATOM     37  H6  4L7 d   1     -16.282 -11.749   2.246  0.00  0.00     0.086 H 
ATOM     38 BR   4L7 d   1     -17.660 -14.430   3.081  0.00  0.00    -0.043 Br
ATOM     39  S   4L7 d   1     -15.877 -13.415   5.441  0.00  0.00    -0.079 SA
ENDBRANCH  30  32
ENDBRANCH   1  30
TORSDOF 3
