REMARK  3 active torsions:
REMARK  status: ('A' for Active; 'I' for Inactive)
REMARK    1  A    between atoms: CAT_11  and  CAY_12 
REMARK    2  A    between atoms: CAX_16  and  CAQ_17 
REMARK    3  A    between atoms: CAQ_17  and  CAS_19 
ROOT
ATOM      1  CAY NVX d   1     -25.085  -8.030  22.472  0.00  0.00     0.006 C 
ATOM      2  CAM NVX d   1     -23.539  -7.945  22.489  0.00  0.00     0.089 C 
ATOM      3  NAN NVX d   1     -23.173  -6.584  22.081  0.00  0.00    -0.074 N 
ATOM      4  CAL NVX d   1     -24.331  -6.028  21.363  0.00  0.00     0.092 C 
ATOM      5  CAX NVX d   1     -25.434  -7.101  21.275  0.00  0.00     0.041 C 
ATOM      6  H6  NVX d   1     -25.494  -7.595  23.396  0.00  0.00     0.051 H 
ATOM      7  H7  NVX d   1     -23.114  -8.676  21.786  0.00  0.00     0.076 H 
ATOM      8  H8  NVX d   1     -23.162  -8.149  23.502  0.00  0.00     0.076 H 
ATOM      9  H9  NVX d   1     -22.368  -6.608  21.475  0.00  0.00     0.277 HD
ATOM     10  H10 NVX d   1     -22.966  -6.023  22.892  0.00  0.00     0.277 HD
ATOM     11  H11 NVX d   1     -24.027  -5.729  20.349  0.00  0.00     0.076 H 
ATOM     12  H12 NVX d   1     -24.713  -5.151  21.905  0.00  0.00     0.076 H 
ATOM     13  H13 NVX d   1     -25.346  -7.660  20.332  0.00  0.00     0.056 H 
ENDROOT
BRANCH   1  14
ATOM     14  CAT NVX d   1     -25.590  -9.456  22.395  0.00  0.00    -0.049 A 
ATOM     15  CAK NVX d   1     -25.567 -10.161  21.191  0.00  0.00    -0.048 A 
ATOM     16  CAV NVX d   1     -25.800 -11.541  21.179  0.00  0.00     0.074 A 
ATOM     17  H1  NVX d   1     -25.368  -9.638  20.262  0.00  0.00     0.087 H 
ATOM     18  NAO NVX d   1     -25.723 -12.210  19.955  0.00  0.00    -0.243 NA
ATOM     19  CAW NVX d   1     -26.058 -12.210  22.382  0.00  0.00     0.061 A 
ATOM     20  CAI NVX d   1     -25.852 -13.521  19.991  0.00  0.00     0.067 A 
ATOM     21  NAP NVX d   1     -26.057 -14.248  21.111  0.00  0.00    -0.317 N 
ATOM     22  H2  NVX d   1     -25.788 -14.059  19.046  0.00  0.00     0.143 H 
ATOM     23  CAU NVX d   1     -26.186 -13.674  22.362  0.00  0.00     0.258 A 
ATOM     24  H3  NVX d   1     -26.118 -15.243  21.032  0.00  0.00     0.169 HD
ATOM     25  OAB NVX d   1     -26.357 -14.348  23.374  0.00  0.00    -0.267 OA
ATOM     26  CAH NVX d   1     -26.147 -11.487  23.569  0.00  0.00    -0.065 A 
ATOM     27  CAG NVX d   1     -25.919 -10.125  23.563  0.00  0.00    -0.075 A 
ATOM     28  H4  NVX d   1     -26.395 -11.992  24.495  0.00  0.00     0.085 H 
ATOM     29  H5  NVX d   1     -25.999  -9.569  24.490  0.00  0.00     0.084 H 
ENDBRANCH   1  14
BRANCH   5  30
ATOM     30  CAQ NVX d   1     -26.828  -6.500  21.330  0.00  0.00     0.166 C 
ATOM     31  OAA NVX d   1     -27.520  -6.644  22.326  0.00  0.00    -0.292 OA
BRANCH  30  32
ATOM     32  CAS NVX d   1     -27.320  -5.720  20.158  0.00  0.00     0.012 A 
ATOM     33  CAJ NVX d   1     -28.549  -5.060  20.133  0.00  0.00    -0.049 A 
ATOM     34  CAR NVX d   1     -28.907  -4.353  19.001  0.00  0.00     0.035 A 
ATOM     35  H14 NVX d   1     -29.213  -5.101  20.989  0.00  0.00     0.087 H 
ATOM     36 CL   NVX d   1     -30.472  -3.608  18.930  0.00  0.00    -0.084 Cl
ATOM     37  CAE NVX d   1     -28.076  -4.252  17.906  0.00  0.00    -0.062 A 
ATOM     38  CAD NVX d   1     -26.864  -4.916  17.932  0.00  0.00    -0.080 A 
ATOM     39  H15 NVX d   1     -28.367  -3.664  17.043  0.00  0.00     0.086 H 
ATOM     40  CAF NVX d   1     -26.491  -5.649  19.043  0.00  0.00    -0.069 A 
ATOM     41  H16 NVX d   1     -26.202  -4.862  17.076  0.00  0.00     0.083 H 
ATOM     42  H17 NVX d   1     -25.543  -6.174  19.046  0.00  0.00     0.085 H 
ENDBRANCH  30  32
ENDBRANCH   5  30
TORSDOF 3
