REMARK  8 active torsions:
REMARK  status: ('A' for Active; 'I' for Inactive)
REMARK    1  A    between atoms: O2_20  and  C8_1 
REMARK    2  A    between atoms: C14_5  and  C15_11 
REMARK    3  A    between atoms: C3_6  and  C4_13 
REMARK    4  A    between atoms: C2_7  and  C1_19 
REMARK    5  A    between atoms: C16_8  and  C17_21 
REMARK    6  A    between atoms: C6_15  and  C5_14 
REMARK    7  A    between atoms: C7_17  and  O2_20 
REMARK    8  A    between atoms: C18_22  and  C19_23 
ROOT
ATOM      1  C9  4LD d   1      18.146  -5.392   8.737  0.00  0.00    -0.037 A 
ATOM      2  C10 4LD d   1      19.004  -4.443   8.198  0.00  0.00     0.008 A 
ATOM      3  C13 4LD d   1      20.245  -3.867   8.639  0.00  0.00     0.033 A 
ATOM      4  C14 4LD d   1      21.011  -3.944   9.800  0.00  0.00     0.084 A 
ATOM      5  C12 4LD d   1      20.710  -3.058   7.556  0.00  0.00     0.047 A 
ATOM      6  C6  4LD d   1      16.777  -5.201   6.698  0.00  0.00     0.014 A 
ATOM      7  C11 4LD d   1      18.758  -3.911   6.918  0.00  0.00     0.044 A 
ATOM      8  C7  4LD d   1      17.011  -5.766   7.970  0.00  0.00     0.080 A 
ATOM      9  C22 4LD d   1      22.647  -2.587   8.785  0.00  0.00     0.005 A 
ATOM     10  C23 4LD d   1      21.942  -2.411   7.590  0.00  0.00    -0.039 A 
ATOM     11  C24 4LD d   1      17.674  -4.263   6.165  0.00  0.00    -0.043 A 
ATOM     12  N5  4LD d   1      22.224  -3.287   9.860  0.00  0.00    -0.259 NA
ATOM     13  N2  4LD d   1      19.800  -3.058   6.541  0.00  0.00    -0.355 N 
ATOM     14  H4  4LD d   1      18.336  -5.832   9.709  0.00  0.00     0.089 H 
ATOM     15  H20 4LD d   1      23.622  -2.119   8.855  0.00  0.00     0.114 H 
ATOM     16  H21 4LD d   1      22.322  -1.822   6.763  0.00  0.00     0.089 H 
ATOM     17  H22 4LD d   1      17.512  -3.830   5.184  0.00  0.00     0.088 H 
ATOM     18  H23 4LD d   1      19.867  -2.528   5.660  0.00  0.00     0.166 HD
ENDROOT
BRANCH   4  19
ATOM     19  C15 4LD d   1      20.602  -4.634  10.989  0.00  0.00     0.044 A 
ATOM     20  C16 4LD d   1      21.319  -5.644  11.652  0.00  0.00     0.038 A 
ATOM     21  N3  4LD d   1      20.516  -6.037  12.697  0.00  0.00    -0.281 N 
ATOM     22  N4  4LD d   1      19.335  -5.361  12.759  0.00  0.00    -0.178 NA
ATOM     23  H8  4LD d   1      20.782  -6.772  13.368  0.00  0.00     0.189 HD
ATOM     24  C18 4LD d   1      19.377  -4.486  11.724  0.00  0.00     0.073 A 
BRANCH  20  25
ATOM     25  C17 4LD d   1      22.654  -6.243  11.380  0.00  0.00    -0.035 C 
ATOM     26  H12 4LD d   1      23.098  -5.763  10.495  0.00  0.00     0.035 H 
ATOM     27  H13 4LD d   1      22.541  -7.321  11.194  0.00  0.00     0.035 H 
ATOM     28  H14 4LD d   1      23.310  -6.087  12.249  0.00  0.00     0.035 H 
ENDBRANCH  20  25
BRANCH  24  29
ATOM     29  C19 4LD d   1      18.264  -3.549  11.464  0.00  0.00    -0.009 A 
ATOM     30  C20 4LD d   1      17.422  -3.026  12.619  0.00  0.00    -0.056 A 
ATOM     31  C21 4LD d   1      16.840  -4.036  11.693  0.00  0.00    -0.056 A 
ATOM     32  H16 4LD d   1      17.052  -1.990  12.602  0.00  0.00     0.034 H 
ATOM     33  H17 4LD d   1      17.672  -3.310  13.652  0.00  0.00     0.034 H 
ATOM     34  H18 4LD d   1      16.662  -5.063  12.044  0.00  0.00     0.034 H 
ATOM     35  H19 4LD d   1      16.042  -3.744  10.995  0.00  0.00     0.034 H 
ATOM     36  H15 4LD d   1      18.510  -2.897  10.613  0.00  0.00     0.049 H 
ENDBRANCH  24  29
ENDBRANCH   4  19
BRANCH   8  37
ATOM     37  O2  4LD d   1      16.053  -6.670   8.417  0.00  0.00    -0.355 OA
BRANCH  37  38
ATOM     38  C8  4LD d   1      16.343  -7.494   9.525  0.00  0.00     0.010 C 
ATOM     39  H1  4LD d   1      15.479  -8.141   9.737  0.00  0.00     0.066 H 
ATOM     40  H2  4LD d   1      16.555  -6.866  10.403  0.00  0.00     0.066 H 
ATOM     41  H3  4LD d   1      17.221  -8.117   9.299  0.00  0.00     0.066 H 
ENDBRANCH  37  38
ENDBRANCH   8  37
BRANCH   6  42
ATOM     42  C5  4LD d   1      15.574  -5.633   5.989  0.00  0.00     0.035 A 
ATOM     43  C3  4LD d   1      15.248  -6.918   5.655  0.00  0.00     0.088 A 
ATOM     44  O1  4LD d   1      13.993  -6.958   5.123  0.00  0.00    -0.217 OA
ATOM     45  N1  4LD d   1      13.502  -5.672   5.088  0.00  0.00    -0.133 NA
ATOM     46  C2  4LD d   1      14.439  -4.844   5.587  0.00  0.00     0.072 A 
BRANCH  43  47
ATOM     47  C4  4LD d   1      16.003  -8.174   5.752  0.00  0.00    -0.028 C 
ATOM     48  H5  4LD d   1      16.988  -7.976   6.199  0.00  0.00     0.036 H 
ATOM     49  H6  4LD d   1      16.135  -8.601   4.747  0.00  0.00     0.036 H 
ATOM     50  H7  4LD d   1      15.451  -8.886   6.383  0.00  0.00     0.036 H 
ENDBRANCH  43  47
BRANCH  46  51
ATOM     51  C1  4LD d   1      14.279  -3.376   5.671  0.00  0.00    -0.033 C 
ATOM     52  H9  4LD d   1      15.183  -2.933   6.115  0.00  0.00     0.035 H 
ATOM     53  H10 4LD d   1      13.408  -3.137   6.299  0.00  0.00     0.035 H 
ATOM     54  H11 4LD d   1      14.127  -2.965   4.662  0.00  0.00     0.035 H 
ENDBRANCH  46  51
ENDBRANCH   6  42
TORSDOF 8
