REMARK  8 active torsions:
REMARK  status: ('A' for Active; 'I' for Inactive)
REMARK    1  A    between atoms: C9_22  and  C10_12 
REMARK    2  A    between atoms: C7_26  and  C18_13 
REMARK    3  A    between atoms: C1_14  and  C24_23 
REMARK    4  A    between atoms: C_15  and  C25_24 
REMARK    5  A    between atoms: C13_17  and  N3_30 
REMARK    6  A    between atoms: C7_26  and  C6_21 
REMARK       I    between atoms: N2_32  and  C9_22 
REMARK    7  A    between atoms: C8_25  and  C7_26 
REMARK    8  A    between atoms: C8_25  and  N2_32 
ROOT
ATOM      1  C7  4M1 d   1     -14.511 -35.886 -13.385  0.00  0.00     0.044 C 
ATOM      2  H20 4M1 d   1     -13.789 -36.612 -13.787  0.00  0.00     0.062 H 
ENDROOT
BRANCH   1   3
ATOM      3  C18 4M1 d   1     -14.581 -34.707 -14.350  0.00  0.00    -0.045 A 
ATOM      4  C23 4M1 d   1     -14.242 -34.882 -15.686  0.00  0.00    -0.076 A 
ATOM      5  C22 4M1 d   1     -14.298 -33.821 -16.577  0.00  0.00    -0.082 A 
ATOM      6  H4  4M1 d   1     -13.930 -35.859 -16.036  0.00  0.00     0.084 H 
ATOM      7  C21 4M1 d   1     -14.683 -32.571 -16.146  0.00  0.00    -0.083 A 
ATOM      8  H2  4M1 d   1     -14.037 -33.976 -17.618  0.00  0.00     0.083 H 
ATOM      9  C20 4M1 d   1     -15.016 -32.380 -14.821  0.00  0.00    -0.082 A 
ATOM     10  H1  4M1 d   1     -14.724 -31.742 -16.844  0.00  0.00     0.083 H 
ATOM     11  C19 4M1 d   1     -14.984 -33.444 -13.931  0.00  0.00    -0.076 A 
ATOM     12  H3  4M1 d   1     -15.304 -31.394 -14.474  0.00  0.00     0.083 H 
ATOM     13  H5  4M1 d   1     -15.276 -33.289 -12.899  0.00  0.00     0.084 H 
ENDBRANCH   1   3
BRANCH   1  14
ATOM     14  C6  4M1 d   1     -14.030 -35.456 -12.021  0.00  0.00     0.115 A 
ATOM     15  N1  4M1 d   1     -12.745 -35.525 -11.582  0.00  0.00    -0.342 N 
ATOM     16  C3  4M1 d   1     -12.666 -35.053 -10.276  0.00  0.00     0.063 A 
ATOM     17  H21 4M1 d   1     -11.949 -35.875 -12.134  0.00  0.00     0.167 HD
ATOM     18  C2  4M1 d   1     -11.662 -34.897  -9.332  0.00  0.00    -0.049 A 
ATOM     19  C4  4M1 d   1     -13.954 -34.662  -9.923  0.00  0.00     0.086 A 
ATOM     20  C1  4M1 d   1     -11.911 -34.366  -8.070  0.00  0.00    -0.054 A 
ATOM     21  H6  4M1 d   1     -10.652 -35.198  -9.585  0.00  0.00     0.087 H 
ATOM     22  C   4M1 d   1     -13.223 -33.972  -7.732  0.00  0.00    -0.054 A 
ATOM     23  C5  4M1 d   1     -14.238 -34.120  -8.672  0.00  0.00    -0.047 A 
ATOM     24  H7  4M1 d   1     -15.249 -33.814  -8.431  0.00  0.00     0.088 H 
ATOM     25  N   4M1 d   1     -14.758 -34.929 -11.013  0.00  0.00    -0.233 NA
BRANCH  20  26
ATOM     26  C24 4M1 d   1     -10.797 -34.305  -7.060  0.00  0.00    -0.051 C 
ATOM     27  H12 4M1 d   1      -9.862 -34.654  -7.524  0.00  0.00     0.033 H 
ATOM     28  H13 4M1 d   1     -11.043 -34.949  -6.203  0.00  0.00     0.033 H 
ATOM     29  H14 4M1 d   1     -10.671 -33.268  -6.715  0.00  0.00     0.033 H 
ENDBRANCH  20  26
BRANCH  22  30
ATOM     30  C25 4M1 d   1     -13.565 -33.536  -6.329  0.00  0.00    -0.051 C 
ATOM     31  H15 4M1 d   1     -14.632 -33.272  -6.277  0.00  0.00     0.033 H 
ATOM     32  H16 4M1 d   1     -12.957 -32.660  -6.059  0.00  0.00     0.033 H 
ATOM     33  H17 4M1 d   1     -13.356 -34.358  -5.628  0.00  0.00     0.033 H 
ENDBRANCH  22  30
ENDBRANCH   1  14
BRANCH   1  34
ATOM     34  C8  4M1 d   1     -15.895 -36.588 -13.276  0.00  0.00     0.009 C 
ATOM     35  H18 4M1 d   1     -16.238 -36.885 -14.278  0.00  0.00     0.065 H 
ATOM     36  H19 4M1 d   1     -16.625 -35.898 -12.828  0.00  0.00     0.065 H 
BRANCH  34  37
ATOM     37  N2  4M1 d   1     -15.759 -37.767 -12.437  0.00  0.00    -0.356 N 
ATOM     38  C9  4M1 d   1     -15.493 -38.976 -12.936  0.00  0.00     0.255 C 
ATOM     39  O   4M1 d   1     -15.325 -39.180 -14.137  0.00  0.00    -0.268 OA
ATOM     40  H22 4M1 d   1     -15.869 -37.669 -11.448  0.00  0.00     0.162 HD
BRANCH  38  41
ATOM     41  C10 4M1 d   1     -15.446 -40.110 -11.949  0.00  0.00     0.075 A 
ATOM     42  C11 4M1 d   1     -14.330 -40.328 -11.140  0.00  0.00     0.053 A 
ATOM     43  C12 4M1 d   1     -14.230 -41.430 -10.309  0.00  0.00    -0.035 A 
ATOM     44 CL1  4M1 d   1     -12.996 -39.229 -11.215  0.00  0.00    -0.083 Cl
ATOM     45  C13 4M1 d   1     -15.260 -42.369 -10.284  0.00  0.00     0.044 A 
ATOM     46  H8  4M1 d   1     -13.356 -41.562  -9.681  0.00  0.00     0.089 H 
ATOM     47  C14 4M1 d   1     -16.387 -42.172 -11.080  0.00  0.00    -0.035 A 
ATOM     48  C15 4M1 d   1     -16.475 -41.045 -11.875  0.00  0.00     0.053 A 
ATOM     49  H9  4M1 d   1     -17.191 -42.899 -11.075  0.00  0.00     0.089 H 
ATOM     50 CL   4M1 d   1     -17.945 -40.766 -12.751  0.00  0.00    -0.083 Cl
BRANCH  45  51
ATOM     51  N3  4M1 d   1     -15.188 -43.531  -9.447  0.00  0.00    -0.297 N 
ATOM     52  C17 4M1 d   1     -14.695 -43.620  -8.184  0.00  0.00     0.093 A 
ATOM     53  N5  4M1 d   1     -14.818 -44.829  -7.719  0.00  0.00    -0.144 NA
ATOM     54  H10 4M1 d   1     -14.255 -42.789  -7.634  0.00  0.00     0.147 H 
ATOM     55  N4  4M1 d   1     -15.396 -45.591  -8.727  0.00  0.00    -0.144 NA
ATOM     56  C16 4M1 d   1     -15.609 -44.793  -9.732  0.00  0.00     0.093 A 
ATOM     57  H11 4M1 d   1     -16.063 -45.094 -10.675  0.00  0.00     0.147 H 
ENDBRANCH  45  51
ENDBRANCH  38  41
ENDBRANCH  34  37
ENDBRANCH   1  34
TORSDOF 8
