REMARK  23 active torsions:
REMARK  status: ('A' for Active; 'I' for Inactive)
REMARK    1  A    between atoms: CA1_2  and  N1_1 
REMARK    2  A    between atoms: CA1_2  and  C1_3 
REMARK    3  A    between atoms: CB1_6  and  CA1_2 
REMARK    4  A    between atoms: CG1_7  and  CB1_6 
REMARK    5  A    between atoms: CD1_8  and  CG1_7 
REMARK       I    between atoms: N2_10  and  CD1_8 
REMARK    6  A    between atoms: CA2_11  and  N2_10 
REMARK    7  A    between atoms: CA2_11  and  C2_12 
REMARK    8  A    between atoms: CB2_14  and  CA2_11 
REMARK       I    between atoms: C2_12  and  N3_16 
REMARK    9  A    between atoms: SG2_15  and  CB2_14 
REMARK   10  A    between atoms: SG5_31  and  SG2_15 
REMARK   11  A    between atoms: N3_16  and  CA3_17 
REMARK   12  A    between atoms: CA3_17  and  C3_18 
REMARK   13  A    between atoms: N4_21  and  CA4_22 
REMARK       I    between atoms: C5_26  and  N4_21 
REMARK   14  A    between atoms: CA4_22  and  C4_23 
REMARK   15  A    between atoms: CA5_28  and  C5_26 
REMARK   16  A    between atoms: N5_29  and  CA5_28 
REMARK   17  A    between atoms: CA5_28  and  CB5_30 
REMARK       I    between atoms: CD6_39  and  N5_29 
REMARK   18  A    between atoms: CB5_30  and  SG5_31 
REMARK   19  A    between atoms: CA6_32  and  C6_33 
REMARK   20  A    between atoms: CA6_32  and  N6_36 
REMARK   21  A    between atoms: CB6_37  and  CA6_32 
REMARK   22  A    between atoms: CG6_38  and  CB6_37 
REMARK   23  A    between atoms: CG6_38  and  CD6_39 
ROOT
ATOM      1  SG2 GDS d   1      23.050   0.415   7.107  0.00  0.00    -0.095 SA
ENDROOT
BRANCH   1   2
ATOM      2  CB2 GDS d   1      22.132   1.272   8.399  0.00  0.00     0.013 C 
ATOM      3  H11 GDS d   1      22.288   2.358   8.314  0.00  0.00     0.053 H 
ATOM      4  H12 GDS d   1      21.059   1.047   8.310  0.00  0.00     0.053 H 
BRANCH   2   5
ATOM      5  CA2 GDS d   1      22.659   0.774   9.740  0.00  0.00     0.098 C 
ATOM      6  H10 GDS d   1      23.759   0.801   9.749  0.00  0.00     0.088 H 
BRANCH   5   7
ATOM      7  N2  GDS d   1      22.216  -0.588   9.976  0.00  0.00    -0.347 N 
ATOM      8  CD1 GDS d   1      23.149  -1.600  10.101  0.00  0.00     0.218 C 
ATOM      9  O1  GDS d   1      24.354  -1.356  10.023  0.00  0.00    -0.274 OA
ATOM     10  H9  GDS d   1      21.240  -0.793  10.048  0.00  0.00     0.163 HD
BRANCH   8  11
ATOM     11  CG1 GDS d   1      22.570  -2.988  10.329  0.00  0.00     0.012 C 
ATOM     12  H7  GDS d   1      21.696  -2.912  10.992  0.00  0.00     0.047 H 
ATOM     13  H8  GDS d   1      22.262  -3.416   9.364  0.00  0.00     0.047 H 
BRANCH  11  14
ATOM     14  CB1 GDS d   1      23.610  -3.895  10.971  0.00  0.00    -0.021 C 
ATOM     15  H5  GDS d   1      23.241  -4.931  10.972  0.00  0.00     0.037 H 
ATOM     16  H6  GDS d   1      24.547  -3.840  10.398  0.00  0.00     0.037 H 
BRANCH  14  17
ATOM     17  CA1 GDS d   1      23.870  -3.437  12.433  0.00  0.00     0.183 C 
ATOM     18  H4  GDS d   1      24.086  -2.358  12.432  0.00  0.00     0.101 H 
BRANCH  17  19
ATOM     19  N1  GDS d   1      25.048  -4.152  12.986  0.00  0.00    -0.065 N 
ATOM     20  H1  GDS d   1      25.852  -3.973  12.406  0.00  0.00     0.275 HD
ATOM     21  H2  GDS d   1      24.861  -5.142  13.005  0.00  0.00     0.275 HD
ATOM     22  H3  GDS d   1      25.230  -3.826  13.922  0.00  0.00     0.275 HD
ENDBRANCH  17  19
BRANCH  17  23
ATOM     23  C1  GDS d   1      22.621  -3.680  13.284  0.00  0.00     0.204 C 
ATOM     24  OE1 GDS d   1      21.748  -2.765  13.260  0.00  0.00    -0.646 OA
ATOM     25  OE2 GDS d   1      22.549  -4.710  13.949  0.00  0.00    -0.646 OA
ENDBRANCH  17  23
ENDBRANCH  14  17
ENDBRANCH  11  14
ENDBRANCH   8  11
ENDBRANCH   5   7
BRANCH   5  26
ATOM     26  C2  GDS d   1      22.112   1.725  10.782  0.00  0.00     0.241 C 
ATOM     27  O2  GDS d   1      21.030   1.487  11.346  0.00  0.00    -0.271 OA
ATOM     28  N3  GDS d   1      22.827   2.836  11.022  0.00  0.00    -0.349 N 
ATOM     29  H13 GDS d   1      23.695   2.994  10.551  0.00  0.00     0.163 HD
BRANCH  28  30
ATOM     30  CA3 GDS d   1      22.323   3.792  11.966  0.00  0.00     0.075 C 
ATOM     31  H14 GDS d   1      22.792   3.634  12.948  0.00  0.00     0.080 H 
ATOM     32  H15 GDS d   1      21.232   3.689  12.060  0.00  0.00     0.080 H 
BRANCH  30  33
ATOM     33  C3  GDS d   1      22.670   5.168  11.442  0.00  0.00     0.191 C 
ATOM     34  OE3 GDS d   1      22.671   6.082  12.311  0.00  0.00    -0.647 OA
ATOM     35  OE4 GDS d   1      22.914   5.292  10.245  0.00  0.00    -0.647 OA
ENDBRANCH  30  33
ENDBRANCH  28  30
ENDBRANCH   5  26
ENDBRANCH   2   5
ENDBRANCH   1   2
BRANCH   1  36
ATOM     36  SG5 GDS d   1      24.620   1.668   6.727  0.00  0.00    -0.095 SA
BRANCH  36  37
ATOM     37  CB5 GDS d   1      26.104   0.683   7.078  0.00  0.00     0.013 C 
ATOM     38  H21 GDS d   1      25.902  -0.373   6.848  0.00  0.00     0.053 H 
ATOM     39  H22 GDS d   1      26.935   1.042   6.453  0.00  0.00     0.053 H 
BRANCH  37  40
ATOM     40  CA5 GDS d   1      26.487   0.814   8.551  0.00  0.00     0.098 C 
ATOM     41  H19 GDS d   1      25.587   0.690   9.172  0.00  0.00     0.088 H 
BRANCH  40  42
ATOM     42  C5  GDS d   1      27.484  -0.306   8.821  0.00  0.00     0.241 C 
ATOM     43  N4  GDS d   1      27.020  -1.491   9.297  0.00  0.00    -0.349 N 
ATOM     44  H16 GDS d   1      26.044  -1.625   9.469  0.00  0.00     0.163 HD
ATOM     45  O5  GDS d   1      28.694  -0.101   8.609  0.00  0.00    -0.271 OA
BRANCH  43  46
ATOM     46  CA4 GDS d   1      27.984  -2.575   9.554  0.00  0.00     0.075 C 
ATOM     47  H17 GDS d   1      28.995  -2.146   9.619  0.00  0.00     0.080 H 
ATOM     48  H18 GDS d   1      27.943  -3.293   8.722  0.00  0.00     0.080 H 
BRANCH  46  49
ATOM     49  C4  GDS d   1      27.675  -3.306  10.851  0.00  0.00     0.191 C 
ATOM     50  OE5 GDS d   1      27.010  -2.651  11.704  0.00  0.00    -0.647 OA
ATOM     51  OE6 GDS d   1      28.082  -4.454  10.982  0.00  0.00    -0.647 OA
ENDBRANCH  46  49
ENDBRANCH  43  46
ENDBRANCH  40  42
BRANCH  40  52
ATOM     52  N5  GDS d   1      27.143   2.101   8.907  0.00  0.00    -0.347 N 
ATOM     53  CD6 GDS d   1      26.643   2.871   9.965  0.00  0.00     0.218 C 
ATOM     54  O6  GDS d   1      25.644   2.481  10.572  0.00  0.00    -0.274 OA
ATOM     55  H20 GDS d   1      27.940   2.416   8.392  0.00  0.00     0.163 HD
BRANCH  53  56
ATOM     56  CG6 GDS d   1      27.379   4.163  10.293  0.00  0.00     0.012 C 
ATOM     57  H29 GDS d   1      28.370   3.928  10.708  0.00  0.00     0.047 H 
ATOM     58  H30 GDS d   1      27.497   4.762   9.378  0.00  0.00     0.047 H 
BRANCH  56  59
ATOM     59  CB6 GDS d   1      26.567   4.952  11.322  0.00  0.00    -0.021 C 
ATOM     60  H27 GDS d   1      25.707   5.429  10.829  0.00  0.00     0.037 H 
ATOM     61  H28 GDS d   1      26.208   4.274  12.110  0.00  0.00     0.037 H 
BRANCH  59  62
ATOM     62  CA6 GDS d   1      27.483   6.041  11.946  0.00  0.00     0.183 C 
ATOM     63  H23 GDS d   1      28.402   5.564  12.317  0.00  0.00     0.101 H 
BRANCH  62  64
ATOM     64  C6  GDS d   1      27.856   7.056  10.869  0.00  0.00     0.204 C 
ATOM     65  OE7 GDS d   1      27.007   7.962  10.647  0.00  0.00    -0.646 OA
ATOM     66  OE8 GDS d   1      28.949   6.953  10.316  0.00  0.00    -0.646 OA
ENDBRANCH  62  64
BRANCH  62  67
ATOM     67  N6  GDS d   1      26.799   6.705  13.091  0.00  0.00    -0.065 N 
ATOM     68  H24 GDS d   1      26.563   6.015  13.787  0.00  0.00     0.275 HD
ATOM     69  H25 GDS d   1      25.958   7.154  12.765  0.00  0.00     0.275 HD
ATOM     70  H26 GDS d   1      27.413   7.394  13.495  0.00  0.00     0.275 HD
ENDBRANCH  62  67
ENDBRANCH  59  62
ENDBRANCH  56  59
ENDBRANCH  53  56
ENDBRANCH  40  52
ENDBRANCH  37  40
ENDBRANCH  36  37
ENDBRANCH   1  36
TORSDOF 23
