REMARK  23 active torsions:
REMARK  status: ('A' for Active; 'I' for Inactive)
REMARK    1  A    between atoms: CA1_2  and  N1_1 
REMARK    2  A    between atoms: CA1_2  and  C1_3 
REMARK    3  A    between atoms: CB1_6  and  CA1_2 
REMARK    4  A    between atoms: CG1_7  and  CB1_6 
REMARK    5  A    between atoms: CD1_8  and  CG1_7 
REMARK       I    between atoms: N2_10  and  CD1_8 
REMARK    6  A    between atoms: CA2_11  and  N2_10 
REMARK    7  A    between atoms: CA2_11  and  C2_12 
REMARK    8  A    between atoms: CB2_14  and  CA2_11 
REMARK       I    between atoms: C2_12  and  N3_16 
REMARK    9  A    between atoms: SG2_15  and  CB2_14 
REMARK   10  A    between atoms: SG5_31  and  SG2_15 
REMARK   11  A    between atoms: N3_16  and  CA3_17 
REMARK   12  A    between atoms: CA3_17  and  C3_18 
REMARK   13  A    between atoms: N4_21  and  CA4_22 
REMARK       I    between atoms: C5_26  and  N4_21 
REMARK   14  A    between atoms: CA4_22  and  C4_23 
REMARK   15  A    between atoms: CA5_28  and  C5_26 
REMARK   16  A    between atoms: N5_29  and  CA5_28 
REMARK   17  A    between atoms: CA5_28  and  CB5_30 
REMARK       I    between atoms: CD6_39  and  N5_29 
REMARK   18  A    between atoms: CB5_30  and  SG5_31 
REMARK   19  A    between atoms: CA6_32  and  C6_33 
REMARK   20  A    between atoms: CA6_32  and  N6_36 
REMARK   21  A    between atoms: CB6_37  and  CA6_32 
REMARK   22  A    between atoms: CG6_38  and  CB6_37 
REMARK   23  A    between atoms: CG6_38  and  CD6_39 
ROOT
ATOM      1  SG2 GDS d   1      -6.523   6.089 -10.697  0.00  0.00    -0.095 SA
ENDROOT
BRANCH   1   2
ATOM      2  CB2 GDS d   1      -6.730   7.802 -10.349  0.00  0.00     0.013 C 
ATOM      3  H11 GDS d   1      -5.972   8.378 -10.900  0.00  0.00     0.053 H 
ATOM      4  H12 GDS d   1      -7.734   8.118 -10.668  0.00  0.00     0.053 H 
BRANCH   2   5
ATOM      5  CA2 GDS d   1      -6.572   8.064  -8.852  0.00  0.00     0.098 C 
ATOM      6  H10 GDS d   1      -5.766   7.422  -8.469  0.00  0.00     0.088 H 
BRANCH   5   7
ATOM      7  N2  GDS d   1      -7.793   7.713  -8.151  0.00  0.00    -0.347 N 
ATOM      8  CD1 GDS d   1      -7.806   6.925  -7.080  0.00  0.00     0.218 C 
ATOM      9  O1  GDS d   1      -6.849   6.261  -6.736  0.00  0.00    -0.274 OA
ATOM     10  H9  GDS d   1      -8.661   8.079  -8.487  0.00  0.00     0.163 HD
BRANCH   8  11
ATOM     11  CG1 GDS d   1      -9.096   6.891  -6.286  0.00  0.00     0.012 C 
ATOM     12  H7  GDS d   1      -9.086   7.712  -5.554  0.00  0.00     0.047 H 
ATOM     13  H8  GDS d   1      -9.943   7.024  -6.975  0.00  0.00     0.047 H 
BRANCH  11  14
ATOM     14  CB1 GDS d   1      -9.263   5.571  -5.547  0.00  0.00    -0.021 C 
ATOM     15  H5  GDS d   1      -9.227   4.747  -6.274  0.00  0.00     0.037 H 
ATOM     16  H6  GDS d   1      -8.441   5.459  -4.825  0.00  0.00     0.037 H 
BRANCH  14  17
ATOM     17  CA1 GDS d   1     -10.595   5.515  -4.797  0.00  0.00     0.183 C 
ATOM     18  H4  GDS d   1     -10.792   6.494  -4.336  0.00  0.00     0.101 H 
BRANCH  17  19
ATOM     19  N1  GDS d   1     -10.532   4.507  -3.761  0.00  0.00    -0.065 N 
ATOM     20  H1  GDS d   1      -9.788   4.731  -3.119  0.00  0.00     0.275 HD
ATOM     21  H2  GDS d   1     -10.355   3.607  -4.178  0.00  0.00     0.275 HD
ATOM     22  H3  GDS d   1     -11.409   4.481  -3.264  0.00  0.00     0.275 HD
ENDBRANCH  17  19
BRANCH  17  23
ATOM     23  C1  GDS d   1     -11.703   5.192  -5.764  0.00  0.00     0.204 C 
ATOM     24  OE1 GDS d   1     -11.866   4.009  -6.101  0.00  0.00    -0.646 OA
ATOM     25  OE2 GDS d   1     -12.406   6.115  -6.200  0.00  0.00    -0.646 OA
ENDBRANCH  17  23
ENDBRANCH  14  17
ENDBRANCH  11  14
ENDBRANCH   8  11
ENDBRANCH   5   7
BRANCH   5  26
ATOM     26  C2  GDS d   1      -6.171   9.497  -8.629  0.00  0.00     0.241 C 
ATOM     27  O2  GDS d   1      -7.000  10.386  -8.603  0.00  0.00    -0.271 OA
ATOM     28  N3  GDS d   1      -4.876   9.733  -8.467  0.00  0.00    -0.349 N 
ATOM     29  H13 GDS d   1      -4.223   8.983  -8.575  0.00  0.00     0.163 HD
BRANCH  28  30
ATOM     30  CA3 GDS d   1      -4.390  11.057  -8.136  0.00  0.00     0.075 C 
ATOM     31  H14 GDS d   1      -5.253  11.725  -7.999  0.00  0.00     0.080 H 
ATOM     32  H15 GDS d   1      -3.771  11.424  -8.968  0.00  0.00     0.080 H 
BRANCH  30  33
ATOM     33  C3  GDS d   1      -3.561  11.072  -6.874  0.00  0.00     0.191 C 
ATOM     34  OE3 GDS d   1      -2.556  11.807  -6.831  0.00  0.00    -0.647 OA
ATOM     35  OE4 GDS d   1      -3.913  10.343  -5.928  0.00  0.00    -0.647 OA
ENDBRANCH  30  33
ENDBRANCH  28  30
ENDBRANCH   5  26
ENDBRANCH   2   5
ENDBRANCH   1   2
BRANCH   1  36
ATOM     36  SG5 GDS d   1      -4.511   5.881 -10.633  0.00  0.00    -0.095 SA
BRANCH  36  37
ATOM     37  CB5 GDS d   1      -4.316   4.620  -9.409  0.00  0.00     0.013 C 
ATOM     38  H21 GDS d   1      -5.282   4.113  -9.268  0.00  0.00     0.053 H 
ATOM     39  H22 GDS d   1      -3.570   3.895  -9.766  0.00  0.00     0.053 H 
BRANCH  37  40
ATOM     40  CA5 GDS d   1      -3.853   5.175  -8.061  0.00  0.00     0.098 C 
ATOM     41  H19 GDS d   1      -4.512   6.011  -7.783  0.00  0.00     0.088 H 
BRANCH  40  42
ATOM     42  C5  GDS d   1      -3.971   4.106  -7.004  0.00  0.00     0.241 C 
ATOM     43  N4  GDS d   1      -5.113   4.049  -6.328  0.00  0.00    -0.349 N 
ATOM     44  H16 GDS d   1      -5.800   4.760  -6.479  0.00  0.00     0.163 HD
ATOM     45  O5  GDS d   1      -3.053   3.338  -6.808  0.00  0.00    -0.271 OA
BRANCH  43  46
ATOM     46  CA4 GDS d   1      -5.397   2.993  -5.381  0.00  0.00     0.075 C 
ATOM     47  H17 GDS d   1      -5.387   3.420  -4.367  0.00  0.00     0.080 H 
ATOM     48  H18 GDS d   1      -4.611   2.228  -5.465  0.00  0.00     0.080 H 
BRANCH  46  49
ATOM     49  C4  GDS d   1      -6.739   2.332  -5.611  0.00  0.00     0.191 C 
ATOM     50  OE5 GDS d   1      -7.205   2.265  -6.767  0.00  0.00    -0.647 OA
ATOM     51  OE6 GDS d   1      -7.326   1.873  -4.620  0.00  0.00    -0.647 OA
ENDBRANCH  46  49
ENDBRANCH  43  46
ENDBRANCH  40  42
BRANCH  40  52
ATOM     52  N5  GDS d   1      -2.499   5.680  -8.152  0.00  0.00    -0.347 N 
ATOM     53  CD6 GDS d   1      -2.184   6.963  -7.996  0.00  0.00     0.218 C 
ATOM     54  O6  GDS d   1      -3.011   7.840  -7.849  0.00  0.00    -0.274 OA
ATOM     55  H20 GDS d   1      -1.763   5.031  -8.342  0.00  0.00     0.163 HD
BRANCH  53  56
ATOM     56  CG6 GDS d   1      -0.707   7.292  -8.010  0.00  0.00     0.012 C 
ATOM     57  H29 GDS d   1      -0.162   6.511  -7.459  0.00  0.00     0.047 H 
ATOM     58  H30 GDS d   1      -0.357   7.318  -9.052  0.00  0.00     0.047 H 
BRANCH  56  59
ATOM     59  CB6 GDS d   1      -0.429   8.643  -7.360  0.00  0.00    -0.021 C 
ATOM     60  H27 GDS d   1       0.632   8.891  -7.510  0.00  0.00     0.037 H 
ATOM     61  H28 GDS d   1      -1.056   9.402  -7.851  0.00  0.00     0.037 H 
BRANCH  59  62
ATOM     62  CA6 GDS d   1      -0.724   8.665  -5.863  0.00  0.00     0.183 C 
ATOM     63  H23 GDS d   1      -1.738   8.277  -5.689  0.00  0.00     0.101 H 
BRANCH  62  64
ATOM     64  C6  GDS d   1       0.266   7.814  -5.116  0.00  0.00     0.204 C 
ATOM     65  OE7 GDS d   1       1.266   8.359  -4.601  0.00  0.00    -0.646 OA
ATOM     66  OE8 GDS d   1       0.050   6.593  -5.044  0.00  0.00    -0.646 OA
ENDBRANCH  62  64
BRANCH  62  67
ATOM     67  N6  GDS d   1      -0.640  10.027  -5.381  0.00  0.00    -0.065 N 
ATOM     68  H24 GDS d   1      -1.302  10.601  -5.879  0.00  0.00     0.275 HD
ATOM     69  H25 GDS d   1       0.292  10.380  -5.533  0.00  0.00     0.275 HD
ATOM     70  H26 GDS d   1      -0.851  10.048  -4.396  0.00  0.00     0.275 HD
ENDBRANCH  62  67
ENDBRANCH  59  62
ENDBRANCH  56  59
ENDBRANCH  53  56
ENDBRANCH  40  52
ENDBRANCH  37  40
ENDBRANCH  36  37
ENDBRANCH   1  36
TORSDOF 23
