REMARK  23 active torsions:
REMARK  status: ('A' for Active; 'I' for Inactive)
REMARK    1  A    between atoms: CA1_2  and  N1_1 
REMARK    2  A    between atoms: CA1_2  and  C1_3 
REMARK    3  A    between atoms: CB1_6  and  CA1_2 
REMARK    4  A    between atoms: CG1_7  and  CB1_6 
REMARK    5  A    between atoms: CD1_8  and  CG1_7 
REMARK       I    between atoms: N2_10  and  CD1_8 
REMARK    6  A    between atoms: CA2_11  and  N2_10 
REMARK    7  A    between atoms: CA2_11  and  C2_12 
REMARK    8  A    between atoms: CB2_14  and  CA2_11 
REMARK       I    between atoms: C2_12  and  N3_16 
REMARK    9  A    between atoms: SG2_15  and  CB2_14 
REMARK   10  A    between atoms: SG5_31  and  SG2_15 
REMARK   11  A    between atoms: N3_16  and  CA3_17 
REMARK   12  A    between atoms: CA3_17  and  C3_18 
REMARK   13  A    between atoms: N4_21  and  CA4_22 
REMARK       I    between atoms: C5_26  and  N4_21 
REMARK   14  A    between atoms: CA4_22  and  C4_23 
REMARK   15  A    between atoms: CA5_28  and  C5_26 
REMARK   16  A    between atoms: N5_29  and  CA5_28 
REMARK   17  A    between atoms: CA5_28  and  CB5_30 
REMARK       I    between atoms: CD6_39  and  N5_29 
REMARK   18  A    between atoms: CB5_30  and  SG5_31 
REMARK   19  A    between atoms: CA6_32  and  C6_33 
REMARK   20  A    between atoms: CA6_32  and  N6_36 
REMARK   21  A    between atoms: CB6_37  and  CA6_32 
REMARK   22  A    between atoms: CG6_38  and  CB6_37 
REMARK   23  A    between atoms: CG6_38  and  CD6_39 
ROOT
ATOM      1  SG2 GDS d   1      33.442 102.292  30.886  0.00  0.00    -0.095 SA
ENDROOT
BRANCH   1   2
ATOM      2  CB2 GDS d   1      31.959 103.151  30.179  0.00  0.00     0.013 C 
ATOM      3  H11 GDS d   1      31.055 102.562  30.393  0.00  0.00     0.053 H 
ATOM      4  H12 GDS d   1      31.861 104.150  30.629  0.00  0.00     0.053 H 
BRANCH   2   5
ATOM      5  CA2 GDS d   1      32.145 103.289  28.619  0.00  0.00     0.098 C 
ATOM      6  H10 GDS d   1      32.946 104.006  28.387  0.00  0.00     0.088 H 
BRANCH   5   7
ATOM      7  N2  GDS d   1      30.854 103.768  28.099  0.00  0.00    -0.347 N 
ATOM      8  CD1 GDS d   1      30.699 105.018  27.550  0.00  0.00     0.218 C 
ATOM      9  O1  GDS d   1      31.654 105.795  27.446  0.00  0.00    -0.274 OA
ATOM     10  H9  GDS d   1      30.061 103.161  28.147  0.00  0.00     0.163 HD
BRANCH   8  11
ATOM     11  CG1 GDS d   1      29.289 105.342  27.098  0.00  0.00     0.012 C 
ATOM     12  H7  GDS d   1      28.962 104.594  26.361  0.00  0.00     0.047 H 
ATOM     13  H8  GDS d   1      28.614 105.320  27.966  0.00  0.00     0.047 H 
BRANCH  11  14
ATOM     14  CB1 GDS d   1      29.248 106.730  26.462  0.00  0.00    -0.021 C 
ATOM     15  H5  GDS d   1      29.468 107.490  27.226  0.00  0.00     0.037 H 
ATOM     16  H6  GDS d   1      29.999 106.788  25.660  0.00  0.00     0.037 H 
BRANCH  14  17
ATOM     17  CA1 GDS d   1      27.836 106.986  25.868  0.00  0.00     0.183 C 
ATOM     18  H4  GDS d   1      27.544 106.122  25.253  0.00  0.00     0.101 H 
BRANCH  17  19
ATOM     19  N1  GDS d   1      27.895 108.190  25.011  0.00  0.00    -0.065 N 
ATOM     20  H1  GDS d   1      28.580 108.052  24.285  0.00  0.00     0.275 HD
ATOM     21  H2  GDS d   1      28.154 108.988  25.570  0.00  0.00     0.275 HD
ATOM     22  H3  GDS d   1      26.991 108.350  24.594  0.00  0.00     0.275 HD
ENDBRANCH  17  19
BRANCH  17  23
ATOM     23  C1  GDS d   1      26.802 107.164  26.984  0.00  0.00     0.204 C 
ATOM     24  OE1 GDS d   1      26.745 108.316  27.492  0.00  0.00    -0.646 OA
ATOM     25  OE2 GDS d   1      26.093 106.213  27.310  0.00  0.00    -0.646 OA
ENDBRANCH  17  23
ENDBRANCH  14  17
ENDBRANCH  11  14
ENDBRANCH   8  11
ENDBRANCH   5   7
BRANCH   5  26
ATOM     26  C2  GDS d   1      32.472 101.945  28.016  0.00  0.00     0.241 C 
ATOM     27  O2  GDS d   1      31.614 101.059  27.978  0.00  0.00    -0.271 OA
ATOM     28  N3  GDS d   1      33.721 101.756  27.557  0.00  0.00    -0.349 N 
ATOM     29  H13 GDS d   1      34.389 102.501  27.562  0.00  0.00     0.163 HD
BRANCH  28  30
ATOM     30  CA3 GDS d   1      34.077 100.430  27.049  0.00  0.00     0.075 C 
ATOM     31  H14 GDS d   1      33.235  99.754  27.259  0.00  0.00     0.080 H 
ATOM     32  H15 GDS d   1      34.967 100.089  27.599  0.00  0.00     0.080 H 
BRANCH  30  33
ATOM     33  C3  GDS d   1      34.383 100.337  25.583  0.00  0.00     0.191 C 
ATOM     34  OE3 GDS d   1      34.353 101.417  24.927  0.00  0.00    -0.647 OA
ATOM     35  OE4 GDS d   1      34.640  99.224  25.143  0.00  0.00    -0.647 OA
ENDBRANCH  30  33
ENDBRANCH  28  30
ENDBRANCH   5  26
ENDBRANCH   2   5
ENDBRANCH   1   2
BRANCH   1  36
ATOM     36  SG5 GDS d   1      34.641 103.793  31.635  0.00  0.00    -0.095 SA
BRANCH  36  37
ATOM     37  CB5 GDS d   1      35.439 104.561  30.172  0.00  0.00     0.013 C 
ATOM     38  H21 GDS d   1      34.663 104.942  29.491  0.00  0.00     0.053 H 
ATOM     39  H22 GDS d   1      36.079 105.393  30.500  0.00  0.00     0.053 H 
BRANCH  37  40
ATOM     40  CA5 GDS d   1      36.282 103.534  29.448  0.00  0.00     0.098 C 
ATOM     41  H19 GDS d   1      35.701 102.602  29.389  0.00  0.00     0.088 H 
BRANCH  40  42
ATOM     42  C5  GDS d   1      36.531 104.011  28.005  0.00  0.00     0.241 C 
ATOM     43  N4  GDS d   1      37.609 104.793  27.719  0.00  0.00    -0.349 N 
ATOM     44  H16 GDS d   1      38.231 105.074  28.450  0.00  0.00     0.163 HD
ATOM     45  O5  GDS d   1      35.694 103.699  27.150  0.00  0.00    -0.271 OA
BRANCH  43  46
ATOM     46  CA4 GDS d   1      37.859 105.226  26.328  0.00  0.00     0.075 C 
ATOM     47  H17 GDS d   1      37.578 104.401  25.657  0.00  0.00     0.080 H 
ATOM     48  H18 GDS d   1      38.934 105.434  26.222  0.00  0.00     0.080 H 
BRANCH  46  49
ATOM     49  C4  GDS d   1      37.088 106.474  25.897  0.00  0.00     0.191 C 
ATOM     50  OE5 GDS d   1      36.318 107.006  26.748  0.00  0.00    -0.647 OA
ATOM     51  OE6 GDS d   1      37.271 106.870  24.749  0.00  0.00    -0.647 OA
ENDBRANCH  46  49
ENDBRANCH  43  46
ENDBRANCH  40  42
BRANCH  40  52
ATOM     52  N5  GDS d   1      37.517 103.224  30.202  0.00  0.00    -0.347 N 
ATOM     53  CD6 GDS d   1      38.240 102.086  29.868  0.00  0.00     0.218 C 
ATOM     54  O6  GDS d   1      37.870 101.378  28.930  0.00  0.00    -0.274 OA
ATOM     55  H20 GDS d   1      37.826 103.824  30.940  0.00  0.00     0.163 HD
BRANCH  53  56
ATOM     56  CG6 GDS d   1      39.459 101.786  30.689  0.00  0.00     0.012 C 
ATOM     57  H29 GDS d   1      40.342 101.709  30.038  0.00  0.00     0.047 H 
ATOM     58  H30 GDS d   1      39.619 102.582  31.431  0.00  0.00     0.047 H 
BRANCH  56  59
ATOM     59  CB6 GDS d   1      39.207 100.437  31.404  0.00  0.00    -0.021 C 
ATOM     60  H27 GDS d   1      38.416 100.556  32.160  0.00  0.00     0.037 H 
ATOM     61  H28 GDS d   1      38.902  99.676  30.671  0.00  0.00     0.037 H 
BRANCH  59  62
ATOM     62  CA6 GDS d   1      40.517 100.015  32.081  0.00  0.00     0.183 C 
ATOM     63  H23 GDS d   1      40.946 100.878  32.611  0.00  0.00     0.101 H 
BRANCH  62  64
ATOM     64  C6  GDS d   1      40.187  98.925  33.090  0.00  0.00     0.204 C 
ATOM     65  OE7 GDS d   1      39.309  99.210  33.951  0.00  0.00    -0.646 OA
ATOM     66  OE8 GDS d   1      40.794  97.858  33.012  0.00  0.00    -0.646 OA
ENDBRANCH  62  64
BRANCH  62  67
ATOM     67  N6  GDS d   1      41.497  99.547  31.076  0.00  0.00    -0.065 N 
ATOM     68  H24 GDS d   1      41.692 100.291  30.425  0.00  0.00     0.275 HD
ATOM     69  H25 GDS d   1      41.117  98.757  30.578  0.00  0.00     0.275 HD
ATOM     70  H26 GDS d   1      42.349  99.274  31.540  0.00  0.00     0.275 HD
ENDBRANCH  62  67
ENDBRANCH  59  62
ENDBRANCH  56  59
ENDBRANCH  53  56
ENDBRANCH  40  52
ENDBRANCH  37  40
ENDBRANCH  36  37
ENDBRANCH   1  36
TORSDOF 23
