REMARK  7 active torsions:
REMARK  status: ('A' for Active; 'I' for Inactive)
REMARK    1  A    between atoms: CAU_2  and  CAY_4 
REMARK    2  A    between atoms: SBE_10  and  OAB_11 
REMARK    3  A    between atoms: CAW_17  and  CAQ_18 
REMARK    4  A    between atoms: CAQ_18  and  CAN_19 
REMARK    5  A    between atoms: CAN_19  and  CAP_20 
REMARK    6  A    between atoms: CAP_20  and  OAT_21 
REMARK    7  A    between atoms: OAT_21  and  CAV_22 
ROOT
ATOM      1  CAY 4M7 d   1     -32.032  27.142  -0.008  0.00  0.00     0.119 A 
ATOM      2  NBD 4M7 d   1     -31.371  28.122   0.712  0.00  0.00    -0.339 N 
ATOM      3  CBC 4M7 d   1     -30.211  27.615   1.246  0.00  0.00     0.064 A 
ATOM      4  CAR 4M7 d   1     -31.793  29.511   0.920  0.00  0.00     0.001 C 
ATOM      5  CAO 4M7 d   1     -30.828  30.510   0.332  0.00  0.00    -0.040 C 
ATOM      6  CAS 4M7 d   1     -29.792  31.037   1.285  0.00  0.00    -0.004 C 
ATOM      7  SBE 4M7 d   1     -29.314  29.914   2.559  0.00  0.00    -0.055 S 
ATOM      8  CAX 4M7 d   1     -29.209  28.180   2.039  0.00  0.00     0.043 A 
ATOM      9  CAI 4M7 d   1     -28.100  27.419   2.455  0.00  0.00    -0.063 A 
ATOM     10  CAG 4M7 d   1     -28.005  26.060   2.064  0.00  0.00    -0.081 A 
ATOM     11  CAM 4M7 d   1     -29.004  25.485   1.264  0.00  0.00    -0.070 A 
ATOM     12  CBB 4M7 d   1     -30.099  26.254   0.856  0.00  0.00     0.001 A 
ATOM     13  CAW 4M7 d   1     -31.261  25.971   0.054  0.00  0.00    -0.012 A 
ATOM     14  H1  4M7 d   1     -31.874  29.695   2.001  0.00  0.00     0.065 H 
ATOM     15  H2  4M7 d   1     -32.777  29.654   0.449  0.00  0.00     0.065 H 
ATOM     16  H3  4M7 d   1     -31.410  31.364  -0.044  0.00  0.00     0.036 H 
ATOM     17  H4  4M7 d   1     -30.305  30.025  -0.505  0.00  0.00     0.036 H 
ATOM     18  H5  4M7 d   1     -30.195  31.943   1.762  0.00  0.00     0.051 H 
ATOM     19  H6  4M7 d   1     -28.895  31.297   0.705  0.00  0.00     0.051 H 
ATOM     20  H8  4M7 d   1     -27.327  27.868   3.068  0.00  0.00     0.085 H 
ATOM     21  H9  4M7 d   1     -27.158  25.463   2.384  0.00  0.00     0.083 H 
ATOM     22  H10 4M7 d   1     -28.927  24.447   0.963  0.00  0.00     0.084 H 
ENDROOT
BRANCH  13  23
ATOM     23  CAQ 4M7 d   1     -31.615  24.650  -0.582  0.00  0.00    -0.036 C 
ATOM     24  H11 4M7 d   1     -30.701  24.043  -0.661  0.00  0.00     0.040 H 
ATOM     25  H12 4M7 d   1     -32.017  24.841  -1.588  0.00  0.00     0.040 H 
BRANCH  23  26
ATOM     26  CAN 4M7 d   1     -32.647  23.871   0.211  0.00  0.00    -0.041 C 
ATOM     27  H13 4M7 d   1     -32.938  22.991  -0.380  0.00  0.00     0.036 H 
ATOM     28  H14 4M7 d   1     -33.523  24.519   0.360  0.00  0.00     0.036 H 
BRANCH  26  29
ATOM     29  CAP 4M7 d   1     -32.186  23.396   1.556  0.00  0.00     0.026 C 
ATOM     30  H15 4M7 d   1     -32.960  22.744   1.988  0.00  0.00     0.075 H 
ATOM     31  H16 4M7 d   1     -32.036  24.268   2.209  0.00  0.00     0.075 H 
BRANCH  29  32
ATOM     32  OAT 4M7 d   1     -31.005  22.692   1.474  0.00  0.00    -0.350 OA
BRANCH  32  33
ATOM     33  CAV 4M7 d   1     -30.438  22.083   2.577  0.00  0.00     0.079 A 
ATOM     34  CBA 4M7 d   1     -29.414  21.149   2.344  0.00  0.00     0.007 A 
ATOM     35  CAL 4M7 d   1     -29.028  20.848   1.004  0.00  0.00    -0.070 A 
ATOM     36  CAZ 4M7 d   1     -28.801  20.535   3.410  0.00  0.00    -0.023 A 
ATOM     37  CAE 4M7 d   1     -28.016  19.927   0.782  0.00  0.00    -0.082 A 
ATOM     38  H17 4M7 d   1     -29.520  21.334   0.169  0.00  0.00     0.085 H 
ATOM     39  CAD 4M7 d   1     -27.392  19.305   1.863  0.00  0.00    -0.082 A 
ATOM     40  H18 4M7 d   1     -27.710  19.691  -0.231  0.00  0.00     0.083 H 
ATOM     41  CAJ 4M7 d   1     -27.783  19.589   3.173  0.00  0.00    -0.072 A 
ATOM     42  H19 4M7 d   1     -26.594  18.593   1.684  0.00  0.00     0.083 H 
ATOM     43  H20 4M7 d   1     -27.305  19.084   4.005  0.00  0.00     0.084 H 
ATOM     44  CAK 4M7 d   1     -29.194  20.848   4.730  0.00  0.00    -0.072 A 
ATOM     45  CAF 4M7 d   1     -30.214  21.774   4.954  0.00  0.00    -0.080 A 
ATOM     46  H21 4M7 d   1     -28.703  20.369   5.569  0.00  0.00     0.084 H 
ATOM     47  CAH 4M7 d   1     -30.841  22.402   3.866  0.00  0.00    -0.050 A 
ATOM     48  H22 4M7 d   1     -30.522  22.008   5.967  0.00  0.00     0.083 H 
ATOM     49  H23 4M7 d   1     -31.630  23.127   4.031  0.00  0.00     0.087 H 
ENDBRANCH  32  33
ENDBRANCH  29  32
ENDBRANCH  26  29
ENDBRANCH  23  26
ENDBRANCH  13  23
BRANCH   1  50
ATOM     50  CAU 4M7 d   1     -33.325  27.298  -0.763  0.00  0.00     0.227 C 
ATOM     51  OAA 4M7 d   1     -34.258  26.461  -0.642  0.00  0.00    -0.643 OA
ATOM     52  OAC 4M7 d   1     -33.480  28.259  -1.558  0.00  0.00    -0.643 OA
ENDBRANCH   1  50
BRANCH   7  53
ATOM     53  OAB 4M7 d   1     -30.331  30.043   3.643  0.00  0.00    -0.336 OA
ATOM     54  H7  4M7 d   1     -30.111  29.452   4.354  0.00  0.00     0.227 HD
ENDBRANCH   7  53
TORSDOF 7
