REMARK  6 active torsions:
REMARK  status: ('A' for Active; 'I' for Inactive)
REMARK    1  A    between atoms: CAT_2  and  CAX_4 
REMARK    2  A    between atoms: CAW_15  and  CAQ_16 
REMARK    3  A    between atoms: CAQ_16  and  CAM_17 
REMARK    4  A    between atoms: CAM_17  and  CAO_18 
REMARK    5  A    between atoms: CAO_18  and  OAS_19 
REMARK    6  A    between atoms: OAS_19  and  CAV_20 
ROOT
ATOM      1  CAQ 4M6 d   1      -8.186 -23.077   4.600  0.00  0.00    -0.036 C 
ATOM      2  H10 4M6 d   1      -8.677 -23.084   3.616  0.00  0.00     0.040 H 
ATOM      3  H11 4M6 d   1      -8.370 -24.035   5.108  0.00  0.00     0.040 H 
ENDROOT
BRANCH   1   4
ATOM      4  CAW 4M6 d   1      -8.767 -21.946   5.440  0.00  0.00    -0.012 A 
ATOM      5  CAX 4M6 d   1      -8.757 -21.854   6.849  0.00  0.00     0.119 A 
ATOM      6  NBC 4M6 d   1      -9.375 -20.685   7.217  0.00  0.00    -0.340 N 
ATOM      7  CBB 4M6 d   1      -9.767 -20.043   6.112  0.00  0.00     0.052 A 
ATOM      8  CAR 4M6 d   1      -9.630 -20.082   8.569  0.00  0.00     0.001 C 
ATOM      9  CAU 4M6 d   1     -10.421 -18.831   6.041  0.00  0.00    -0.030 A 
ATOM     10  CBA 4M6 d   1      -9.424 -20.765   4.961  0.00  0.00     0.000 A 
ATOM     11  CAP 4M6 d   1     -10.752 -18.102   7.356  0.00  0.00    -0.037 C 
ATOM     12  CAG 4M6 d   1     -10.758 -18.310   4.750  0.00  0.00    -0.075 A 
ATOM     13  CAN 4M6 d   1      -9.885 -18.553   8.523  0.00  0.00    -0.046 C 
ATOM     14  H5  4M6 d   1     -10.602 -17.023   7.205  0.00  0.00     0.040 H 
ATOM     15  H6  4M6 d   1     -11.805 -18.295   7.607  0.00  0.00     0.040 H 
ATOM     16  H3  4M6 d   1      -8.913 -18.043   8.449  0.00  0.00     0.035 H 
ATOM     17  H4  4M6 d   1     -10.384 -18.258   9.458  0.00  0.00     0.035 H 
ATOM     18  CAE 4M6 d   1     -10.428 -19.039   3.576  0.00  0.00    -0.082 A 
ATOM     19  H7  4M6 d   1     -11.267 -17.356   4.668  0.00  0.00     0.084 H 
ATOM     20  CAL 4M6 d   1      -9.755 -20.274   3.679  0.00  0.00    -0.070 A 
ATOM     21  H8  4M6 d   1     -10.694 -18.646   2.601  0.00  0.00     0.083 H 
ATOM     22  H9  4M6 d   1      -9.496 -20.837   2.789  0.00  0.00     0.084 H 
ATOM     23  H1  4M6 d   1      -8.753 -20.270   9.206  0.00  0.00     0.065 H 
ATOM     24  H2  4M6 d   1     -10.513 -20.570   9.008  0.00  0.00     0.065 H 
BRANCH   5  25
ATOM     25  CAT 4M6 d   1      -8.163 -22.894   7.793  0.00  0.00     0.227 C 
ATOM     26  OAA 4M6 d   1      -8.740 -23.174   8.876  0.00  0.00    -0.643 OA
ATOM     27  OAB 4M6 d   1      -7.103 -23.485   7.509  0.00  0.00    -0.643 OA
ENDBRANCH   5  25
ENDBRANCH   1   4
BRANCH   1  28
ATOM     28  CAM 4M6 d   1      -6.680 -22.893   4.408  0.00  0.00    -0.041 C 
ATOM     29  H12 4M6 d   1      -6.278 -23.778   3.893  0.00  0.00     0.036 H 
ATOM     30  H13 4M6 d   1      -6.206 -22.796   5.396  0.00  0.00     0.036 H 
BRANCH  28  31
ATOM     31  CAO 4M6 d   1      -6.351 -21.651   3.581  0.00  0.00     0.026 C 
ATOM     32  H14 4M6 d   1      -5.262 -21.549   3.467  0.00  0.00     0.075 H 
ATOM     33  H15 4M6 d   1      -6.755 -20.752   4.069  0.00  0.00     0.075 H 
BRANCH  31  34
ATOM     34  OAS 4M6 d   1      -6.954 -21.833   2.328  0.00  0.00    -0.350 OA
BRANCH  34  35
ATOM     35  CAV 4M6 d   1      -6.592 -20.920   1.321  0.00  0.00     0.079 A 
ATOM     36  CAZ 4M6 d   1      -6.955 -21.202  -0.005  0.00  0.00     0.007 A 
ATOM     37  CAK 4M6 d   1      -7.663 -22.385  -0.292  0.00  0.00    -0.070 A 
ATOM     38  CAY 4M6 d   1      -6.630 -20.331  -1.018  0.00  0.00    -0.023 A 
ATOM     39  CAD 4M6 d   1      -8.037 -22.687  -1.601  0.00  0.00    -0.082 A 
ATOM     40  H16 4M6 d   1      -7.919 -23.066   0.511  0.00  0.00     0.085 H 
ATOM     41  CAC 4M6 d   1      -7.708 -21.810  -2.621  0.00  0.00    -0.082 A 
ATOM     42  H17 4M6 d   1      -8.580 -23.600  -1.818  0.00  0.00     0.083 H 
ATOM     43  CAI 4M6 d   1      -7.010 -20.642  -2.335  0.00  0.00    -0.072 A 
ATOM     44  H18 4M6 d   1      -7.995 -22.034  -3.642  0.00  0.00     0.083 H 
ATOM     45  H19 4M6 d   1      -6.755 -19.961  -3.139  0.00  0.00     0.084 H 
ATOM     46  CAJ 4M6 d   1      -5.924 -19.143  -0.736  0.00  0.00    -0.072 A 
ATOM     47  CAF 4M6 d   1      -5.556 -18.867   0.573  0.00  0.00    -0.080 A 
ATOM     48  H20 4M6 d   1      -5.672 -18.453  -1.533  0.00  0.00     0.084 H 
ATOM     49  CAH 4M6 d   1      -5.893 -19.750   1.599  0.00  0.00    -0.050 A 
ATOM     50  H21 4M6 d   1      -5.005 -17.962   0.799  0.00  0.00     0.083 H 
ATOM     51  H22 4M6 d   1      -5.608 -19.523   2.620  0.00  0.00     0.087 H 
ENDBRANCH  34  35
ENDBRANCH  31  34
ENDBRANCH  28  31
ENDBRANCH   1  28
TORSDOF 6
