REMARK  16 active torsions:
REMARK  status: ('A' for Active; 'I' for Inactive)
REMARK    1  A    between atoms: N1_1  and  C1'_9 
REMARK    2  A    between atoms: C4_4  and  N4_8 
REMARK    3  A    between atoms: C2'_10  and  O2'_11 
REMARK    4  A    between atoms: C3'_12  and  O3'_15 
REMARK    5  A    between atoms: C4'_13  and  C5'_16 
REMARK    6  A    between atoms: C5'_16  and  O5'_17 
REMARK    7  A    between atoms: O5'_17  and  PA_18 
REMARK    8  A    between atoms: PA_18  and  O3A_21 
REMARK    9  A    between atoms: O3A_21  and  PB_22 
REMARK   10  A    between atoms: PB_22  and  O1B_23 
REMARK   11  A    between atoms: O1B_23  and  C14_26 
REMARK   12  A    between atoms: C14_26  and  C15_27 
REMARK   13  A    between atoms: C15_27  and  N11_28 
REMARK   14  A    between atoms: N11_28  and  C16_29 
REMARK   15  A    between atoms: N11_28  and  C17_30 
REMARK   16  A    between atoms: N11_28  and  C18_31 
ROOT
ATOM      1  C5' CDC d   1      17.684  23.949  50.070  0.00  0.00     0.058 C 
ATOM      2  H11 CDC d   1      17.854  23.902  48.984  0.00  0.00     0.079 H 
ATOM      3  H12 CDC d   1      17.682  25.000  50.396  0.00  0.00     0.079 H 
ENDROOT
BRANCH   1   4
ATOM      4  C4' CDC d   1      18.780  23.206  50.781  0.00  0.00     0.089 C 
ATOM      5  C3' CDC d   1      18.938  21.839  50.146  0.00  0.00     0.091 C 
ATOM      6  C2' CDC d   1      18.290  20.901  51.162  0.00  0.00     0.105 C 
ATOM      7  H8  CDC d   1      18.462  21.767  49.157  0.00  0.00     0.091 H 
ATOM      8  C1' CDC d   1      18.696  21.560  52.448  0.00  0.00     0.141 C 
ATOM      9  H6  CDC d   1      17.200  20.838  51.030  0.00  0.00     0.093 H 
ATOM     10  O4' CDC d   1      18.553  22.938  52.233  0.00  0.00    -0.353 OA
ATOM     11  H5  CDC d   1      19.733  21.306  52.712  0.00  0.00     0.123 H 
ATOM     12  H9  CDC d   1      19.709  23.785  50.671  0.00  0.00     0.090 H 
BRANCH   5  13
ATOM     13  O3' CDC d   1      20.316  21.608  50.069  0.00  0.00    -0.390 OA
ATOM     14  H10 CDC d   1      20.720  22.283  49.537  0.00  0.00     0.210 HD
ENDBRANCH   5  13
BRANCH   6  15
ATOM     15  O2' CDC d   1      18.868  19.624  51.160  0.00  0.00    -0.388 OA
ATOM     16  H7  CDC d   1      19.813  19.705  51.214  0.00  0.00     0.210 HD
ENDBRANCH   6  15
BRANCH   8  17
ATOM     17  N1  CDC d   1      17.802  21.156  53.490  0.00  0.00    -0.280 N 
ATOM     18  C2  CDC d   1      18.291  20.493  54.512  0.00  0.00     0.330 A 
ATOM     19  N3  CDC d   1      17.440  20.114  55.553  0.00  0.00    -0.293 N 
ATOM     20  O2  CDC d   1      19.491  20.199  54.502  0.00  0.00    -0.246 OA
ATOM     21  C4  CDC d   1      16.062  20.360  55.513  0.00  0.00     0.125 A 
ATOM     22  H1  CDC d   1      17.827  19.653  56.352  0.00  0.00     0.172 HD
ATOM     23  C5  CDC d   1      15.554  21.088  54.445  0.00  0.00    -0.024 A 
ATOM     24  C6  CDC d   1      16.435  21.472  53.433  0.00  0.00    -0.009 A 
ATOM     25  H2  CDC d   1      14.498  21.352  54.398  0.00  0.00     0.091 H 
ATOM     26  H3  CDC d   1      16.053  22.030  52.579  0.00  0.00     0.112 H 
BRANCH  21  27
ATOM     27  N4  CDC d   1      15.255  19.978  56.493  0.00  0.00    -0.284 NA
ATOM     28  H4  CDC d   1      14.267  20.169  56.436  0.00  0.00     0.188 HD
ENDBRANCH  21  27
ENDBRANCH   8  17
ENDBRANCH   1   4
BRANCH   1  29
ATOM     29  O5' CDC d   1      16.431  23.356  50.379  0.00  0.00    -0.287 OA
BRANCH  29  30
ATOM     30  PA  CDC d   1      15.156  24.011  49.762  0.00  0.00     0.417 P 
ATOM     31  O1A CDC d   1      15.098  25.387  50.160  0.00  0.00    -0.624 OA
ATOM     32  O2A CDC d   1      13.972  23.122  49.986  0.00  0.00    -0.624 OA
BRANCH  30  33
ATOM     33  O3A CDC d   1      15.397  24.170  48.244  0.00  0.00    -0.180 OA
BRANCH  33  34
ATOM     34  PB  CDC d   1      15.278  23.034  47.108  0.00  0.00     0.417 P 
ATOM     35  O2B CDC d   1      13.850  22.876  46.696  0.00  0.00    -0.624 OA
ATOM     36  O3B CDC d   1      15.907  21.778  47.599  0.00  0.00    -0.624 OA
BRANCH  34  37
ATOM     37  O1B CDC d   1      15.838  23.743  45.879  0.00  0.00    -0.288 OA
BRANCH  37  38
ATOM     38  C14 CDC d   1      17.069  23.256  45.313  0.00  0.00     0.054 C 
ATOM     39  H13 CDC d   1      16.892  22.309  44.782  0.00  0.00     0.077 H 
ATOM     40  H14 CDC d   1      17.813  23.098  46.108  0.00  0.00     0.077 H 
BRANCH  38  41
ATOM     41  C15 CDC d   1      17.566  24.322  44.333  0.00  0.00     0.104 C 
ATOM     42  H15 CDC d   1      18.589  24.061  44.024  0.00  0.00     0.079 H 
ATOM     43  H16 CDC d   1      17.576  25.293  44.850  0.00  0.00     0.079 H 
BRANCH  41  44
ATOM     44  N11 CDC d   1      16.719  24.449  43.106  0.00  0.00    -0.077 N 
BRANCH  44  45
ATOM     45  C16 CDC d   1      16.723  23.274  42.243  0.00  0.00     0.067 C 
ATOM     46  H17 CDC d   1      16.077  23.457  41.371  0.00  0.00     0.068 H 
ATOM     47  H18 CDC d   1      16.345  22.406  42.803  0.00  0.00     0.068 H 
ATOM     48  H19 CDC d   1      17.750  23.072  41.903  0.00  0.00     0.068 H 
ENDBRANCH  44  45
BRANCH  44  49
ATOM     49  C17 CDC d   1      17.324  25.565  42.363  0.00  0.00     0.067 C 
ATOM     50  H20 CDC d   1      17.332  26.465  42.995  0.00  0.00     0.068 H 
ATOM     51  H21 CDC d   1      16.737  25.761  41.454  0.00  0.00     0.068 H 
ATOM     52  H22 CDC d   1      18.355  25.304  42.084  0.00  0.00     0.068 H 
ENDBRANCH  44  49
BRANCH  44  53
ATOM     53  C18 CDC d   1      15.283  24.780  43.404  0.00  0.00     0.067 C 
ATOM     54  H23 CDC d   1      14.823  23.950  43.960  0.00  0.00     0.068 H 
ATOM     55  H24 CDC d   1      14.739  24.935  42.461  0.00  0.00     0.068 H 
ATOM     56  H25 CDC d   1      15.236  25.697  44.010  0.00  0.00     0.068 H 
ENDBRANCH  44  53
ENDBRANCH  41  44
ENDBRANCH  38  41
ENDBRANCH  37  38
ENDBRANCH  34  37
ENDBRANCH  33  34
ENDBRANCH  30  33
ENDBRANCH  29  30
ENDBRANCH   1  29
TORSDOF 16
