REMARK  19 active torsions:
REMARK  status: ('A' for Active; 'I' for Inactive)
REMARK    1  A    between atoms: O2_1  and  C2_2 
REMARK    2  A    between atoms: C3_3  and  O3_4 
REMARK    3  A    between atoms: C4_5  and  O4_6 
REMARK    4  A    between atoms: C5_7  and  C6_8 
REMARK    5  A    between atoms: C6_8  and  O6_9 
REMARK    6  A    between atoms: C1_11  and  O1_12 
REMARK    7  A    between atoms: O1_12  and  CBH_13 
REMARK    8  A    between atoms: CBH_13  and  CAO_14 
REMARK    9  A    between atoms: CAO_14  and  OAD_15 
REMARK   10  A    between atoms: CBD_16  and  OAK_17 
REMARK   11  A    between atoms: CBC_19  and  CAN_20 
REMARK   12  A    between atoms: CAN_20  and  OAC_21 
REMARK   13  A    between atoms: CBG_22  and  OAU_23 
REMARK   14  A    between atoms: OAU_23  and  P1_25 
REMARK   15  A    between atoms: P1_25  and  OBA_27 
REMARK   16  A    between atoms: OBA_27  and  CBO_28 
REMARK   17  A    between atoms: CBM_29  and  O14_30 
REMARK   18  A    between atoms: CBL_31  and  O10_32 
REMARK   19  A    between atoms: C8_35  and  OAH_36 
ROOT
ATOM      1  CBH AGR d   1      32.733  26.198  33.351  0.00  0.00     0.217 C 
ATOM      2  CBD AGR d   1      33.889  25.481  32.685  0.00  0.00     0.119 C 
ATOM      3  OAR AGR d   1      31.665  25.303  33.169  0.00  0.00    -0.341 OA
ATOM      4  CBC AGR d   1      32.184  24.023  32.915  0.00  0.00     0.090 C 
ATOM      5  CBG AGR d   1      33.659  24.139  32.996  0.00  0.00     0.107 C 
ATOM      6  H15 AGR d   1      33.825  25.623  31.596  0.00  0.00     0.095 H 
ATOM      7  H17 AGR d   1      31.889  23.691  31.909  0.00  0.00     0.090 H 
ATOM      8  H21 AGR d   1      34.049  23.870  33.989  0.00  0.00     0.092 H 
ENDROOT
BRANCH   1   9
ATOM      9  O1  AGR d   1      33.124  26.391  34.752  0.00  0.00    -0.318 OA
BRANCH   9  10
ATOM     10  C1  AGR d   1      32.145  26.659  35.749  0.00  0.00     0.162 C 
ATOM     11  C2  AGR d   1      32.583  27.764  36.700  0.00  0.00     0.110 C 
ATOM     12  C3  AGR d   1      33.457  27.307  37.850  0.00  0.00     0.092 C 
ATOM     13  H2  AGR d   1      31.654  28.105  37.181  0.00  0.00     0.094 H 
ATOM     14  C4  AGR d   1      33.900  25.926  37.867  0.00  0.00     0.090 C 
ATOM     15  H3  AGR d   1      32.813  27.401  38.737  0.00  0.00     0.091 H 
ATOM     16  C5  AGR d   1      32.985  24.870  37.274  0.00  0.00     0.089 C 
ATOM     17  H5  AGR d   1      34.699  25.946  37.111  0.00  0.00     0.091 H 
ATOM     18  O5  AGR d   1      31.856  25.472  36.459  0.00  0.00    -0.348 OA
ATOM     19  H7  AGR d   1      33.621  24.329  36.559  0.00  0.00     0.090 H 
ATOM     20  H11 AGR d   1      31.227  26.993  35.244  0.00  0.00     0.133 H 
BRANCH  11  21
ATOM     21  O2  AGR d   1      33.076  28.900  36.011  0.00  0.00    -0.388 OA
ATOM     22  H1  AGR d   1      32.479  29.126  35.308  0.00  0.00     0.210 HD
ENDBRANCH  11  21
BRANCH  12  23
ATOM     23  O3  AGR d   1      34.570  28.210  38.073  0.00  0.00    -0.390 OA
ATOM     24  H4  AGR d   1      35.094  27.892  38.799  0.00  0.00     0.210 HD
ENDBRANCH  12  23
BRANCH  14  25
ATOM     25  O4  AGR d   1      34.643  25.579  39.062  0.00  0.00    -0.390 OA
ATOM     26  H6  AGR d   1      34.094  25.714  39.825  0.00  0.00     0.210 HD
ENDBRANCH  14  25
BRANCH  16  27
ATOM     27  C6  AGR d   1      32.454  23.838  38.159  0.00  0.00     0.043 C 
ATOM     28  H8  AGR d   1      33.231  23.624  38.907  0.00  0.00     0.078 H 
ATOM     29  H9  AGR d   1      32.281  22.943  37.543  0.00  0.00     0.078 H 
BRANCH  27  30
ATOM     30  O6  AGR d   1      31.274  24.089  38.856  0.00  0.00    -0.398 OA
ATOM     31  H10 AGR d   1      31.054  23.332  39.387  0.00  0.00     0.209 HD
ENDBRANCH  27  30
ENDBRANCH  16  27
ENDBRANCH   9  10
ENDBRANCH   1   9
BRANCH   1  32
ATOM     32  CAO AGR d   1      32.515  27.546  32.683  0.00  0.00     0.071 C 
ATOM     33  H12 AGR d   1      31.451  27.803  32.794  0.00  0.00     0.082 H 
ATOM     34  H13 AGR d   1      32.755  27.430  31.616  0.00  0.00     0.082 H 
BRANCH  32  35
ATOM     35  OAD AGR d   1      33.262  28.625  33.168  0.00  0.00    -0.395 OA
ATOM     36  H14 AGR d   1      33.062  28.760  34.087  0.00  0.00     0.209 HD
ENDBRANCH  32  35
ENDBRANCH   1  32
BRANCH   2  37
ATOM     37  OAK AGR d   1      35.163  25.926  33.094  0.00  0.00    -0.387 OA
ATOM     38  H16 AGR d   1      35.255  26.849  32.891  0.00  0.00     0.210 HD
ENDBRANCH   2  37
BRANCH   5  39
ATOM     39  OAU AGR d   1      34.220  23.309  31.976  0.00  0.00    -0.279 OA
BRANCH  39  40
ATOM     40  P1  AGR d   1      35.369  22.188  32.194  0.00  0.00     0.409 P 
ATOM     41  O15 AGR d   1      36.278  22.217  30.997  0.00  0.00    -0.624 OA
ATOM     42  OAL AGR d   1      36.150  22.436  33.443  0.00  0.00    -0.624 OA
BRANCH  40  43
ATOM     43  OBA AGR d   1      34.634  20.785  32.354  0.00  0.00    -0.277 OA
BRANCH  43  44
ATOM     44  CBO AGR d   1      34.258  19.884  31.277  0.00  0.00     0.125 C 
ATOM     45  CBM AGR d   1      32.833  19.639  31.325  0.00  0.00     0.092 C 
ATOM     46  CBL AGR d   1      32.344  18.584  30.494  0.00  0.00     0.083 C 
ATOM     47  H23 AGR d   1      32.626  19.327  32.359  0.00  0.00     0.091 H 
ATOM     48  CBN AGR d   1      33.131  17.310  30.740  0.00  0.00     0.049 C 
ATOM     49  H25 AGR d   1      31.278  18.421  30.713  0.00  0.00     0.090 H 
ATOM     50  OAX AGR d   1      34.530  17.537  30.605  0.00  0.00    -0.356 OA
ATOM     51  H27 AGR d   1      32.819  16.548  30.010  0.00  0.00     0.078 H 
ATOM     52  H28 AGR d   1      32.922  16.950  31.758  0.00  0.00     0.078 H 
ATOM     53  C8  AGR d   1      35.036  18.585  31.424  0.00  0.00     0.156 C 
ATOM     54  H29 AGR d   1      34.932  18.267  32.472  0.00  0.00     0.133 H 
ATOM     55  H22 AGR d   1      34.509  20.346  30.311  0.00  0.00     0.096 H 
BRANCH  45  56
ATOM     56  O14 AGR d   1      32.052  20.862  31.090  0.00  0.00    -0.390 OA
ATOM     57  H24 AGR d   1      31.125  20.657  31.130  0.00  0.00     0.210 HD
ENDBRANCH  45  56
BRANCH  46  58
ATOM     58  O10 AGR d   1      32.519  18.882  29.088  0.00  0.00    -0.391 OA
ATOM     59  H26 AGR d   1      32.184  18.161  28.569  0.00  0.00     0.210 HD
ENDBRANCH  46  58
BRANCH  53  60
ATOM     60  OAH AGR d   1      36.377  18.744  31.166  0.00  0.00    -0.369 OA
ATOM     61  H30 AGR d   1      36.834  17.934  31.361  0.00  0.00     0.212 HD
ENDBRANCH  53  60
ENDBRANCH  43  44
ENDBRANCH  40  43
ENDBRANCH  39  40
ENDBRANCH   5  39
BRANCH   4  62
ATOM     62  CAN AGR d   1      31.678  23.048  33.919  0.00  0.00     0.043 C 
ATOM     63  H18 AGR d   1      31.959  23.406  34.920  0.00  0.00     0.078 H 
ATOM     64  H19 AGR d   1      32.158  22.076  33.730  0.00  0.00     0.078 H 
BRANCH  62  65
ATOM     65  OAC AGR d   1      30.291  22.866  33.890  0.00  0.00    -0.398 OA
ATOM     66  H20 AGR d   1      30.033  22.546  33.034  0.00  0.00     0.209 HD
ENDBRANCH  62  65
ENDBRANCH   4  62
TORSDOF 19
