REMARK  21 active torsions:
REMARK  status: ('A' for Active; 'I' for Inactive)
REMARK    1  A    between atoms: OAZ_1  and  CBI_2 
REMARK    2  A    between atoms: PBR_28  and  OAZ_1 
REMARK    3  A    between atoms: CBG_5  and  OAG_6 
REMARK    4  A    between atoms: CBP_7  and  N9_8 
REMARK    5  A    between atoms: C6_16  and  N6_17 
REMARK    6  A    between atoms: N6_17  and  PBS_31 
REMARK    7  A    between atoms: CBF_19  and  CAA_18 
REMARK    8  A    between atoms: CBF_19  and  CAB_20 
REMARK    9  A    between atoms: CBK_21  and  CBF_19 
REMARK   10  A    between atoms: CBK_21  and  OAJ_22 
REMARK   11  A    between atoms: CBJ_23  and  CBK_21 
REMARK   12  A    between atoms: CBJ_23  and  OAI_24 
REMARK   13  A    between atoms: CBB_25  and  CBJ_23 
REMARK       I    between atoms: NAV_27  and  CBB_25 
REMARK   14  A    between atoms: NAV_27  and  PBR_28 
REMARK   15  A    between atoms: PBS_31  and  OBA_34 
REMARK   16  A    between atoms: OBA_34  and  CBO_35 
REMARK   17  A    between atoms: CBM_36  and  OAL_37 
REMARK   18  A    between atoms: CBL_38  and  OAK_39 
REMARK   19  A    between atoms: CBN_40  and  CAQ_41 
REMARK   20  A    between atoms: CAQ_41  and  OAF_42 
REMARK   21  A    between atoms: CBH_44  and  OAH_45 
ROOT
ATOM      1  N9  C84 d   1     -13.012 -28.137  24.916  0.00  0.00    -0.294 N 
ATOM      2  C8  C84 d   1     -12.373 -28.541  23.773  0.00  0.00     0.071 A 
ATOM      3  N7  C84 d   1     -13.080 -28.069  22.707  0.00  0.00    -0.236 NA
ATOM      4  C5  C84 d   1     -14.173 -27.320  23.199  0.00  0.00     0.150 A 
ATOM      5  C4  C84 d   1     -14.137 -27.349  24.610  0.00  0.00     0.167 A 
ATOM      6  N3  C84 d   1     -15.116 -26.652  25.334  0.00  0.00    -0.222 NA
ATOM      7  C2  C84 d   1     -16.093 -25.942  24.678  0.00  0.00     0.091 A 
ATOM      8  N1  C84 d   1     -16.156 -25.908  23.299  0.00  0.00    -0.222 NA
ATOM      9  C6  C84 d   1     -15.249 -26.587  22.535  0.00  0.00     0.167 A 
ATOM     10  H7  C84 d   1     -11.461 -29.134  23.725  0.00  0.00     0.144 H 
ATOM     11  H8  C84 d   1     -16.830 -25.397  25.256  0.00  0.00     0.146 H 
ENDROOT
BRANCH   1  12
ATOM     12  CBP C84 d   1     -12.751 -28.277  26.370  0.00  0.00     0.140 C 
ATOM     13  OAY C84 d   1     -11.862 -27.283  26.823  0.00  0.00    -0.333 OA
ATOM     14  CBI C84 d   1     -10.634 -27.918  27.320  0.00  0.00     0.147 C 
ATOM     15  CAR C84 d   1     -10.786 -29.363  27.077  0.00  0.00     0.009 C 
ATOM     16  H1  C84 d   1     -10.495 -27.716  28.392  0.00  0.00     0.130 H 
ATOM     17  CBG C84 d   1     -12.227 -29.577  26.922  0.00  0.00     0.082 C 
ATOM     18  H2  C84 d   1     -10.400 -29.940  27.930  0.00  0.00     0.044 H 
ATOM     19  H3  C84 d   1     -10.252 -29.659  26.162  0.00  0.00     0.044 H 
ATOM     20  H4  C84 d   1     -12.687 -29.770  27.902  0.00  0.00     0.089 H 
ATOM     21  H6  C84 d   1     -13.724 -28.109  26.854  0.00  0.00     0.122 H 
BRANCH  14  22
ATOM     22  OAZ C84 d   1      -9.600 -27.457  26.630  0.00  0.00    -0.264 OA
BRANCH  22  23
ATOM     23  PBR C84 d   1      -8.148 -27.262  27.199  0.00  0.00     0.368 P 
ATOM     24  OAM C84 d   1      -7.986 -27.991  28.582  0.00  0.00    -0.629 OA
ATOM     25  OAD C84 d   1      -7.062 -27.728  26.169  0.00  0.00    -0.629 OA
BRANCH  23  26
ATOM     26  NAV C84 d   1      -7.891 -25.633  27.477  0.00  0.00    -0.259 N 
ATOM     27  CBB C84 d   1      -6.598 -25.137  27.955  0.00  0.00     0.258 C 
ATOM     28  OAC C84 d   1      -5.717 -25.947  28.160  0.00  0.00    -0.270 OA
ATOM     29  H21 C84 d   1      -8.635 -24.985  27.314  0.00  0.00     0.175 HD
BRANCH  27  30
ATOM     30  CBJ C84 d   1      -6.413 -23.653  28.200  0.00  0.00     0.137 C 
ATOM     31  H19 C84 d   1      -6.883 -23.446  29.173  0.00  0.00     0.102 H 
BRANCH  30  32
ATOM     32  CBK C84 d   1      -4.961 -23.163  28.332  0.00  0.00     0.071 C 
ATOM     33  H17 C84 d   1      -4.427 -23.582  27.466  0.00  0.00     0.088 H 
BRANCH  32  34
ATOM     34  CBF C84 d   1      -4.180 -23.709  29.578  0.00  0.00    -0.033 C 
ATOM     35  H13 C84 d   1      -4.615 -24.717  29.650  0.00  0.00     0.042 H 
BRANCH  34  36
ATOM     36  CAA C84 d   1      -2.742 -24.041  29.361  0.00  0.00    -0.071 C 
ATOM     37  H10 C84 d   1      -2.305 -24.411  30.300  0.00  0.00     0.028 H 
ATOM     38  H11 C84 d   1      -2.202 -23.139  29.036  0.00  0.00     0.028 H 
ATOM     39  H12 C84 d   1      -2.658 -24.817  28.586  0.00  0.00     0.028 H 
ENDBRANCH  34  36
BRANCH  34  40
ATOM     40  CAB C84 d   1      -4.516 -23.177  30.937  0.00  0.00    -0.071 C 
ATOM     41  H14 C84 d   1      -5.594 -22.966  30.992  0.00  0.00     0.028 H 
ATOM     42  H15 C84 d   1      -3.951 -22.251  31.118  0.00  0.00     0.028 H 
ATOM     43  H16 C84 d   1      -4.250 -23.924  31.699  0.00  0.00     0.028 H 
ENDBRANCH  34  40
ENDBRANCH  32  34
BRANCH  32  44
ATOM     44  OAJ C84 d   1      -4.921 -21.774  28.164  0.00  0.00    -0.392 OA
ATOM     45  H18 C84 d   1      -5.417 -21.535  27.390  0.00  0.00     0.210 HD
ENDBRANCH  32  44
ENDBRANCH  30  32
BRANCH  30  46
ATOM     46  OAI C84 d   1      -7.113 -22.936  27.260  0.00  0.00    -0.384 OA
ATOM     47  H20 C84 d   1      -7.130 -22.020  27.510  0.00  0.00     0.210 HD
ENDBRANCH  30  46
ENDBRANCH  27  30
ENDBRANCH  23  26
ENDBRANCH  22  23
ENDBRANCH  14  22
BRANCH  17  48
ATOM     48  OAG C84 d   1     -12.467 -30.643  26.123  0.00  0.00    -0.391 OA
ATOM     49  H5  C84 d   1     -12.084 -30.488  25.267  0.00  0.00     0.210 HD
ENDBRANCH  17  48
ENDBRANCH   1  12
BRANCH   9  50
ATOM     50  N6  C84 d   1     -15.264 -26.517  21.074  0.00  0.00    -0.273 N 
ATOM     51  H9  C84 d   1     -14.386 -26.606  20.603  0.00  0.00     0.173 HD
BRANCH  50  52
ATOM     52  PBS C84 d   1     -16.611 -26.303  20.133  0.00  0.00     0.365 P 
ATOM     53  OAN C84 d   1     -17.609 -27.409  20.459  0.00  0.00    -0.629 OA
ATOM     54  OAE C84 d   1     -17.277 -24.992  20.525  0.00  0.00    -0.629 OA
BRANCH  52  55
ATOM     55  OBA C84 d   1     -16.172 -26.333  18.603  0.00  0.00    -0.282 OA
BRANCH  55  56
ATOM     56  CBO C84 d   1     -15.838 -27.549  17.977  0.00  0.00     0.124 C 
ATOM     57  CBM C84 d   1     -14.362 -27.827  17.925  0.00  0.00     0.093 C 
ATOM     58  CBL C84 d   1     -14.012 -28.812  16.900  0.00  0.00     0.090 C 
ATOM     59  H23 C84 d   1     -13.853 -26.883  17.679  0.00  0.00     0.091 H 
ATOM     60  CBN C84 d   1     -14.699 -28.813  15.546  0.00  0.00     0.089 C 
ATOM     61  H25 C84 d   1     -14.451 -29.718  17.343  0.00  0.00     0.091 H 
ATOM     62  OAX C84 d   1     -15.970 -28.014  15.529  0.00  0.00    -0.349 OA
ATOM     63  H27 C84 d   1     -13.996 -28.335  14.848  0.00  0.00     0.090 H 
ATOM     64  CBH C84 d   1     -16.675 -27.794  16.726  0.00  0.00     0.157 C 
ATOM     65  H31 C84 d   1     -17.153 -28.762  16.934  0.00  0.00     0.133 H 
ATOM     66  H22 C84 d   1     -16.203 -28.317  18.675  0.00  0.00     0.096 H 
BRANCH  57  67
ATOM     67  OAL C84 d   1     -13.867 -28.294  19.224  0.00  0.00    -0.390 OA
ATOM     68  H24 C84 d   1     -12.934 -28.462  19.164  0.00  0.00     0.210 HD
ENDBRANCH  57  67
BRANCH  58  69
ATOM     69  OAK C84 d   1     -12.629 -29.159  16.853  0.00  0.00    -0.390 OA
ATOM     70  H26 C84 d   1     -12.488 -29.799  16.166  0.00  0.00     0.210 HD
ENDBRANCH  58  69
BRANCH  60  71
ATOM     71  CAQ C84 d   1     -15.019 -30.166  14.995  0.00  0.00     0.043 C 
ATOM     72  H28 C84 d   1     -16.113 -30.276  14.980  0.00  0.00     0.078 H 
ATOM     73  H29 C84 d   1     -14.584 -30.918  15.670  0.00  0.00     0.078 H 
BRANCH  71  74
ATOM     74  OAF C84 d   1     -14.547 -30.416  13.716  0.00  0.00    -0.398 OA
ATOM     75  H30 C84 d   1     -14.797 -31.294  13.453  0.00  0.00     0.209 HD
ENDBRANCH  71  74
ENDBRANCH  60  71
BRANCH  64  76
ATOM     76  OAH C84 d   1     -17.746 -26.924  16.523  0.00  0.00    -0.368 OA
ATOM     77  H32 C84 d   1     -17.420 -26.091  16.204  0.00  0.00     0.212 HD
ENDBRANCH  64  76
ENDBRANCH  55  56
ENDBRANCH  52  55
ENDBRANCH  50  52
ENDBRANCH   9  50
TORSDOF 21
