REMARK  5 active torsions:
REMARK  status: ('A' for Active; 'I' for Inactive)
REMARK    1  A    between atoms: P_2  and  O2_5 
REMARK    2  A    between atoms: O2_5  and  C2_6 
REMARK    3  A    between atoms: C3_7  and  O3_8 
REMARK    4  A    between atoms: C4_9  and  O4_10 
REMARK    5  A    between atoms: C1_13  and  O1_14 
ROOT
ATOM      1  C2  LAO d   1     -16.084 -28.030  17.880  0.00  0.00     0.126 C 
ATOM      2  C3  LAO d   1     -14.678 -28.270  17.858  0.00  0.00     0.092 C 
ATOM      3  C4  LAO d   1     -14.227 -29.221  16.904  0.00  0.00     0.083 C 
ATOM      4  C5  LAO d   1     -14.803 -29.024  15.513  0.00  0.00     0.049 C 
ATOM      5  O5  LAO d   1     -16.169 -28.747  15.536  0.00  0.00    -0.356 OA
ATOM      6  C1  LAO d   1     -16.555 -27.751  16.461  0.00  0.00     0.156 C 
ATOM      7  H1  LAO d   1     -16.608 -28.906  18.291  0.00  0.00     0.096 H 
ATOM      8  H2  LAO d   1     -14.216 -27.310  17.586  0.00  0.00     0.091 H 
ATOM      9  H4  LAO d   1     -13.132 -29.138  16.838  0.00  0.00     0.090 H 
ATOM     10  H6  LAO d   1     -14.639 -29.942  14.930  0.00  0.00     0.078 H 
ATOM     11  H7  LAO d   1     -14.281 -28.185  15.030  0.00  0.00     0.078 H 
ATOM     12  H8  LAO d   1     -16.057 -26.820  16.154  0.00  0.00     0.133 H 
ENDROOT
BRANCH   1  13
ATOM     13  O2  LAO d   1     -16.366 -26.867  18.677  0.00  0.00    -0.270 OA
BRANCH  13  14
ATOM     14  P   LAO d   1     -16.909 -26.840  20.172  0.00  0.00     0.422 P 
ATOM     15  OP2 LAO d   1     -17.416 -25.400  20.482  0.00  0.00    -0.617 OA
ATOM     16  OP1 LAO d   1     -18.053 -27.850  20.341  0.00  0.00    -0.617 OA
ATOM     17  OP3 LAO d   1     -15.772 -27.137  21.145  0.00  0.00    -0.617 OA
ENDBRANCH  13  14
ENDBRANCH   1  13
BRANCH   2  18
ATOM     18  O3  LAO d   1     -14.143 -28.654  19.190  0.00  0.00    -0.390 OA
ATOM     19  H3  LAO d   1     -13.207 -28.802  19.123  0.00  0.00     0.210 HD
ENDBRANCH   2  18
BRANCH   6  20
ATOM     20  O1  LAO d   1     -17.896 -27.532  16.359  0.00  0.00    -0.369 OA
ATOM     21  H9  LAO d   1     -18.102 -27.244  15.478  0.00  0.00     0.212 HD
ENDBRANCH   6  20
BRANCH   3  22
ATOM     22  O4  LAO d   1     -14.570 -30.541  17.334  0.00  0.00    -0.391 OA
ATOM     23  H5  LAO d   1     -14.265 -31.171  16.692  0.00  0.00     0.210 HD
ENDBRANCH   3  22
TORSDOF 5
