REMARK  9 active torsions:
REMARK  status: ('A' for Active; 'I' for Inactive)
REMARK    1  A    between atoms: CAA_1  and  CAL_2 
REMARK    2  A    between atoms: CAL_2  and  CAB_3 
REMARK    3  A    between atoms: CAL_2  and  OAJ_4 
REMARK    4  A    between atoms: OAJ_4  and  PAQ_5 
REMARK    5  A    between atoms: PAQ_5  and  OAK_8 
REMARK    6  A    between atoms: OAK_8  and  CBO_9 
REMARK    7  A    between atoms: CBM_10  and  O14_11 
REMARK    8  A    between atoms: CBL_12  and  O10_13 
REMARK    9  A    between atoms: C8_16  and  OAH_17 
ROOT
ATOM      1  CBO LAH d   1     -15.842 -27.588  18.016  0.00  0.00     0.125 C 
ATOM      2  CBM LAH d   1     -14.451 -27.927  17.861  0.00  0.00     0.092 C 
ATOM      3  CBL LAH d   1     -14.144 -28.861  16.842  0.00  0.00     0.083 C 
ATOM      4  CBN LAH d   1     -14.834 -28.557  15.528  0.00  0.00     0.049 C 
ATOM      5  OAX LAH d   1     -16.202 -28.233  15.710  0.00  0.00    -0.356 OA
ATOM      6  C8  LAH d   1     -16.439 -27.234  16.673  0.00  0.00     0.156 C 
ATOM      7  H8  LAH d   1     -16.377 -28.449  18.444  0.00  0.00     0.096 H 
ATOM      8  H9  LAH d   1     -13.939 -26.992  17.590  0.00  0.00     0.091 H 
ATOM      9  H11 LAH d   1     -13.056 -28.836  16.681  0.00  0.00     0.090 H 
ATOM     10  H13 LAH d   1     -14.762 -29.440  14.876  0.00  0.00     0.078 H 
ATOM     11  H14 LAH d   1     -14.328 -27.706  15.050  0.00  0.00     0.078 H 
ATOM     12  H15 LAH d   1     -15.969 -26.301  16.329  0.00  0.00     0.133 H 
ENDROOT
BRANCH   1  13
ATOM     13  OAK LAH d   1     -15.997 -26.442  18.885  0.00  0.00    -0.277 OA
BRANCH  13  14
ATOM     14  PAQ LAH d   1     -16.686 -26.464  20.310  0.00  0.00     0.409 P 
ATOM     15  OAG LAH d   1     -17.867 -27.402  20.319  0.00  0.00    -0.624 OA
ATOM     16  OAC LAH d   1     -17.149 -25.069  20.576  0.00  0.00    -0.624 OA
BRANCH  14  17
ATOM     17  OAJ LAH d   1     -15.686 -26.910  21.432  0.00  0.00    -0.285 OA
BRANCH  17  18
ATOM     18  CAL LAH d   1     -14.851 -26.002  22.071  0.00  0.00     0.044 C 
ATOM     19  H4  LAH d   1     -15.060 -25.047  21.567  0.00  0.00     0.083 H 
BRANCH  18  20
ATOM     20  CAA LAH d   1     -13.367 -26.237  21.803  0.00  0.00    -0.052 C 
ATOM     21  H1  LAH d   1     -12.774 -25.483  22.340  0.00  0.00     0.030 H 
ATOM     22  H2  LAH d   1     -13.172 -26.156  20.723  0.00  0.00     0.030 H 
ATOM     23  H3  LAH d   1     -13.086 -27.241  22.152  0.00  0.00     0.030 H 
ENDBRANCH  18  20
BRANCH  18  24
ATOM     24  CAB LAH d   1     -15.214 -25.737  23.499  0.00  0.00    -0.052 C 
ATOM     25  H5  LAH d   1     -16.300 -25.583  23.579  0.00  0.00     0.030 H 
ATOM     26  H6  LAH d   1     -14.689 -24.836  23.850  0.00  0.00     0.030 H 
ATOM     27  H7  LAH d   1     -14.919 -26.597  24.118  0.00  0.00     0.030 H 
ENDBRANCH  18  24
ENDBRANCH  17  18
ENDBRANCH  14  17
ENDBRANCH  13  14
ENDBRANCH   1  13
BRANCH   2  28
ATOM     28  O14 LAH d   1     -13.870 -28.396  19.145  0.00  0.00    -0.390 OA
ATOM     29  H10 LAH d   1     -14.340 -29.166  19.441  0.00  0.00     0.210 HD
ENDBRANCH   2  28
BRANCH   6  30
ATOM     30  OAH LAH d   1     -17.792 -27.033  16.771  0.00  0.00    -0.369 OA
ATOM     31  H16 LAH d   1     -18.132 -26.757  15.928  0.00  0.00     0.212 HD
ENDBRANCH   6  30
BRANCH   3  32
ATOM     32  O10 LAH d   1     -14.530 -30.194  17.221  0.00  0.00    -0.391 OA
ATOM     33  H12 LAH d   1     -14.312 -30.797  16.520  0.00  0.00     0.210 HD
ENDBRANCH   3  32
TORSDOF 9
