REMARK  6 active torsions:
REMARK  status: ('A' for Active; 'I' for Inactive)
REMARK    1  A    between atoms: C37_7  and  C28_8 
REMARK    2  A    between atoms: C28_8  and  C15_9 
REMARK    3  A    between atoms: C13_13  and  O21_14 
REMARK    4  A    between atoms: C13_13  and  C5_15 
REMARK    5  A    between atoms: C5_15  and  C6_16 
REMARK    6  A    between atoms: C14_23  and  C44_24 
ROOT
ATOM      1  C15 4NX d   1       6.133   4.418 -26.236  0.00  0.00     0.034 A 
ATOM      2  C16 4NX d   1       5.300   4.786 -25.267  0.00  0.00     0.293 A 
ATOM      3  O20 4NX d   1       5.596   5.493 -24.335  0.00  0.00    -0.259 OA
ATOM      4  O18 4NX d   1       3.989   4.167 -25.396  0.00  0.00    -0.275 OA
ATOM      5  C13 4NX d   1       4.091   3.290 -26.504  0.00  0.00     0.205 A 
ATOM      6  C14 4NX d   1       5.530   3.503 -27.005  0.00  0.00     0.029 A 
ENDROOT
BRANCH   5   7
ATOM      7  O21 4NX d   1       3.108   3.665 -27.439  0.00  0.00    -0.361 OA
ATOM      8  H7  4NX d   1       2.249   3.594 -27.039  0.00  0.00     0.213 HD
ENDBRANCH   5   7
BRANCH   5   9
ATOM      9  C5  4NX d   1       3.927   1.843 -26.062  0.00  0.00     0.016 C 
ATOM     10  H8  4NX d   1       4.037   1.198 -26.946  0.00  0.00     0.048 H 
ATOM     11  H9  4NX d   1       2.917   1.723 -25.643  0.00  0.00     0.048 H 
BRANCH   9  12
ATOM     12  C6  4NX d   1       4.946   1.387 -25.002  0.00  0.00    -0.053 A 
ATOM     13  C11 4NX d   1       6.008   0.571 -25.337  0.00  0.00    -0.075 A 
ATOM     14  C10 4NX d   1       6.940   0.133 -24.390  0.00  0.00    -0.061 A 
ATOM     15  H10 4NX d   1       6.124   0.259 -26.369  0.00  0.00     0.084 H 
ATOM     16  C9  4NX d   1       6.733   0.482 -23.059  0.00  0.00     0.034 A 
ATOM     17  H11 4NX d   1       7.798  -0.461 -24.684  0.00  0.00     0.086 H 
ATOM     18  C8  4NX d   1       5.655   1.291 -22.698  0.00  0.00    -0.061 A 
ATOM     19 CL2  4NX d   1       7.838  -0.096 -21.781  0.00  0.00    -0.084 Cl
ATOM     20  C7  4NX d   1       4.757   1.736 -23.680  0.00  0.00    -0.075 A 
ATOM     21  H13 4NX d   1       5.512   1.575 -21.662  0.00  0.00     0.086 H 
ATOM     22  H12 4NX d   1       3.913   2.355 -23.400  0.00  0.00     0.084 H 
ENDBRANCH   9  12
ENDBRANCH   5   9
BRANCH   6  23
ATOM     23  C44 4NX d   1       6.261   2.817 -28.110  0.00  0.00     0.004 A 
ATOM     24  C48 4NX d   1       7.577   2.349 -28.168  0.00  0.00    -0.011 A 
ATOM     25  N49 4NX d   1       7.801   1.795 -29.379  0.00  0.00    -0.364 N 
ATOM     26  H14 4NX d   1       8.307   2.420 -27.363  0.00  0.00     0.112 H 
ATOM     27  C46 4NX d   1       6.720   1.864 -30.179  0.00  0.00     0.044 A 
ATOM     28  H15 4NX d   1       8.696   1.369 -29.659  0.00  0.00     0.165 HD
ATOM     29  C45 4NX d   1       5.630   2.516 -29.416  0.00  0.00     0.003 A 
ATOM     30  C56 4NX d   1       6.463   1.455 -31.476  0.00  0.00    -0.035 A 
ATOM     31  C59 4NX d   1       4.375   2.702 -29.988  0.00  0.00    -0.068 A 
ATOM     32  C58 4NX d   1       4.158   2.289 -31.297  0.00  0.00    -0.061 A 
ATOM     33  H18 4NX d   1       3.576   3.164 -29.419  0.00  0.00     0.085 H 
ATOM     34  C57 4NX d   1       5.195   1.668 -32.009  0.00  0.00     0.036 A 
ATOM     35  H17 4NX d   1       3.193   2.446 -31.765  0.00  0.00     0.086 H 
ATOM     36 CL3  4NX d   1       4.887   1.160 -33.687  0.00  0.00    -0.084 Cl
ATOM     37  H16 4NX d   1       7.236   0.977 -32.067  0.00  0.00     0.089 H 
ENDBRANCH   6  23
BRANCH   1  38
ATOM     38  C28 4NX d   1       7.548   4.990 -26.422  0.00  0.00    -0.011 C 
ATOM     39  H5  4NX d   1       7.837   4.848 -27.474  0.00  0.00     0.047 H 
ATOM     40  H6  4NX d   1       7.513   6.065 -26.193  0.00  0.00     0.047 H 
BRANCH  38  41
ATOM     41  C37 4NX d   1       8.621   4.358 -25.550  0.00  0.00    -0.054 A 
ATOM     42  C38 4NX d   1       9.958   4.470 -25.959  0.00  0.00    -0.075 A 
ATOM     43  C39 4NX d   1      10.972   3.921 -25.169  0.00  0.00    -0.061 A 
ATOM     44  H2  4NX d   1      10.204   4.980 -26.884  0.00  0.00     0.084 H 
ATOM     45  C40 4NX d   1      10.659   3.257 -23.965  0.00  0.00     0.034 A 
ATOM     46  H1  4NX d   1      12.006   4.006 -25.484  0.00  0.00     0.086 H 
ATOM     47 CL1  4NX d   1      11.991   2.538 -22.942  0.00  0.00    -0.084 Cl
ATOM     48  C41 4NX d   1       9.328   3.120 -23.585  0.00  0.00    -0.061 A 
ATOM     49  C42 4NX d   1       8.308   3.669 -24.366  0.00  0.00    -0.075 A 
ATOM     50  H3  4NX d   1       9.080   2.583 -22.676  0.00  0.00     0.086 H 
ATOM     51  H4  4NX d   1       7.274   3.563 -24.058  0.00  0.00     0.084 H 
ENDBRANCH  38  41
ENDBRANCH   1  38
TORSDOF 6
