REMARK  23 active torsions:
REMARK  status: ('A' for Active; 'I' for Inactive)
REMARK    1  A    between atoms: C2_1  and  O39_2 
REMARK    2  A    between atoms: O39_2  and  C40_3 
REMARK    3  A    between atoms: S8_9  and  C5_6 
REMARK    4  A    between atoms: N11_12  and  S8_9 
REMARK    5  A    between atoms: N11_12  and  C12_13 
REMARK    6  A    between atoms: C16_17  and  N11_12 
REMARK    7  A    between atoms: C12_13  and  C13_14 
REMARK    8  A    between atoms: C13_14  and  C14_15 
REMARK    9  A    between atoms: C13_14  and  C15_16 
REMARK   10  A    between atoms: C17_18  and  C16_17 
REMARK   11  A    between atoms: C17_18  and  O18_19 
REMARK   12  A    between atoms: C19_20  and  C17_18 
REMARK   13  A    between atoms: C19_20  and  N20_21 
REMARK   14  A    between atoms: C32_24  and  C19_20 
REMARK       I    between atoms: N20_21  and  C21_22 
REMARK   15  A    between atoms: C21_22  and  C51_31 
REMARK   16  A    between atoms: C38_30  and  C32_24 
REMARK   17  A    between atoms: C53_33  and  C57_37 
REMARK   18  A    between atoms: C55_35  and  C58_38 
REMARK       I    between atoms: C58_38  and  N60_40 
REMARK   19  A    between atoms: N60_40  and  C61_41 
REMARK   20  A    between atoms: N60_40  and  C62_42 
REMARK   21  A    between atoms: C62_42  and  C63_43 
REMARK   22  A    between atoms: C65_45  and  C69_49 
REMARK   23  A    between atoms: C67_47  and  C68_48 
ROOT
ATOM      1  C19 G64 d   1      15.042  22.969  16.890  0.00  0.00     0.042 C 
ATOM      2  H21 G64 d   1      15.975  22.489  16.559  0.00  0.00     0.077 H 
ENDROOT
BRANCH   1   3
ATOM      3  C17 G64 d   1      15.406  24.080  17.881  0.00  0.00     0.071 C 
ATOM      4  H19 G64 d   1      15.779  23.594  18.795  0.00  0.00     0.088 H 
BRANCH   3   5
ATOM      5  C16 G64 d   1      16.502  25.011  17.393  0.00  0.00     0.031 C 
ATOM      6  H17 G64 d   1      16.236  25.375  16.390  0.00  0.00     0.069 H 
ATOM      7  H18 G64 d   1      16.577  25.863  18.085  0.00  0.00     0.069 H 
BRANCH   5   8
ATOM      8  N11 G64 d   1      17.804  24.345  17.323  0.00  0.00    -0.304 N 
BRANCH   8   9
ATOM      9  S8  G64 d   1      18.464  24.095  15.824  0.00  0.00     0.260 S 
ATOM     10  O9  G64 d   1      17.372  23.987  14.890  0.00  0.00    -0.200 OA
ATOM     11  O10 G64 d   1      19.400  22.984  15.968  0.00  0.00    -0.200 OA
BRANCH   9  12
ATOM     12  C5  G64 d   1      19.414  25.492  15.390  0.00  0.00     0.079 C 
ATOM     13  C4  G64 d   1      20.779  25.519  15.658  0.00  0.00    -0.058 C 
ATOM     14  C3  G64 d   1      21.545  26.648  15.393  0.00  0.00    -0.049 C 
ATOM     15  H5  G64 d   1      21.255  24.642  16.082  0.00  0.00     0.086 H 
ATOM     16  C2  G64 d   1      20.921  27.767  14.902  0.00  0.00     0.068 C 
ATOM     17  H4  G64 d   1      22.614  26.645  15.571  0.00  0.00     0.087 H 
ATOM     18  C7  G64 d   1      19.565  27.700  14.497  0.00  0.00    -0.049 C 
ATOM     19  C6  G64 d   1      18.822  26.588  14.794  0.00  0.00    -0.058 C 
ATOM     20  H7  G64 d   1      19.117  28.525  13.955  0.00  0.00     0.087 H 
ATOM     21  H6  G64 d   1      17.764  26.568  14.560  0.00  0.00     0.086 H 
BRANCH  16  22
ATOM     22  O39 G64 d   1      21.526  28.972  14.621  0.00  0.00    -0.356 OA
BRANCH  22  23
ATOM     23  C40 G64 d   1      22.902  29.006  14.976  0.00  0.00     0.010 C 
ATOM     24  H1  G64 d   1      23.321  29.992  14.726  0.00  0.00     0.066 H 
ATOM     25  H2  G64 d   1      23.443  28.226  14.421  0.00  0.00     0.066 H 
ATOM     26  H3  G64 d   1      23.007  28.827  16.056  0.00  0.00     0.066 H 
ENDBRANCH  22  23
ENDBRANCH  16  22
ENDBRANCH   9  12
ENDBRANCH   8   9
BRANCH   8  27
ATOM     27  C12 G64 d   1      18.741  24.651  18.403  0.00  0.00     0.008 C 
ATOM     28  H8  G64 d   1      18.737  25.740  18.560  0.00  0.00     0.066 H 
ATOM     29  H9  G64 d   1      19.744  24.330  18.086  0.00  0.00     0.066 H 
BRANCH  27  30
ATOM     30  C13 G64 d   1      18.430  23.983  19.728  0.00  0.00    -0.045 C 
ATOM     31  H10 G64 d   1      17.426  24.298  20.048  0.00  0.00     0.041 H 
BRANCH  30  32
ATOM     32  C14 G64 d   1      18.423  22.481  19.577  0.00  0.00    -0.072 C 
ATOM     33  H11 G64 d   1      18.196  22.016  20.548  0.00  0.00     0.028 H 
ATOM     34  H12 G64 d   1      19.411  22.143  19.231  0.00  0.00     0.028 H 
ATOM     35  H13 G64 d   1      17.657  22.190  18.843  0.00  0.00     0.028 H 
ENDBRANCH  30  32
BRANCH  30  36
ATOM     36  C15 G64 d   1      19.442  24.441  20.798  0.00  0.00    -0.072 C 
ATOM     37  H14 G64 d   1      19.419  25.538  20.879  0.00  0.00     0.028 H 
ATOM     38  H15 G64 d   1      20.453  24.116  20.510  0.00  0.00     0.028 H 
ATOM     39  H16 G64 d   1      19.177  23.996  21.768  0.00  0.00     0.028 H 
ENDBRANCH  30  36
ENDBRANCH  27  30
ENDBRANCH   8  27
ENDBRANCH   5   8
ENDBRANCH   3   5
BRANCH   3  40
ATOM     40  O18 G64 d   1      14.233  24.813  18.220  0.00  0.00    -0.392 OA
ATOM     41  H20 G64 d   1      13.920  25.280  17.454  0.00  0.00     0.210 HD
ENDBRANCH   3  40
ENDBRANCH   1   3
BRANCH   1  42
ATOM     42  N20 G64 d   1      14.207  21.979  17.566  0.00  0.00    -0.349 N 
ATOM     43  C21 G64 d   1      14.655  20.804  17.985  0.00  0.00     0.252 C 
ATOM     44  O22 G64 d   1      15.873  20.486  18.002  0.00  0.00    -0.268 OA
ATOM     45  H22 G64 d   1      13.244  22.200  17.721  0.00  0.00     0.163 HD
BRANCH  43  46
ATOM     46  C51 G64 d   1      13.602  19.838  18.502  0.00  0.00     0.033 A 
ATOM     47  C52 G64 d   1      13.823  19.193  19.714  0.00  0.00    -0.062 A 
ATOM     48  C53 G64 d   1      12.835  18.310  20.200  0.00  0.00    -0.060 A 
ATOM     49  H30 G64 d   1      14.735  19.365  20.274  0.00  0.00     0.085 H 
ATOM     50  C54 G64 d   1      11.682  18.119  19.471  0.00  0.00    -0.062 A 
ATOM     51  C55 G64 d   1      11.526  18.724  18.229  0.00  0.00     0.033 A 
ATOM     52  H31 G64 d   1      10.891  17.493  19.868  0.00  0.00     0.085 H 
ATOM     53  C56 G64 d   1      12.455  19.642  17.768  0.00  0.00    -0.052 A 
ATOM     54  H32 G64 d   1      12.282  20.193  16.851  0.00  0.00     0.086 H 
BRANCH  48  55
ATOM     55  C57 G64 d   1      13.101  17.614  21.532  0.00  0.00    -0.051 C 
ATOM     56  H33 G64 d   1      14.083  17.925  21.919  0.00  0.00     0.033 H 
ATOM     57  H34 G64 d   1      13.094  16.524  21.384  0.00  0.00     0.033 H 
ATOM     58  H35 G64 d   1      12.318  17.891  22.253  0.00  0.00     0.033 H 
ENDBRANCH  48  55
BRANCH  51  59
ATOM     59  C58 G64 d   1      10.251  18.554  17.414  0.00  0.00     0.253 C 
ATOM     60  O59 G64 d   1       9.228  19.007  17.909  0.00  0.00    -0.267 OA
ATOM     61  N60 G64 d   1      10.233  17.986  16.233  0.00  0.00    -0.347 N 
BRANCH  61  62
ATOM     62  C61 G64 d   1      11.439  17.337  15.655  0.00  0.00    -0.015 C 
ATOM     63  H36 G64 d   1      11.196  16.929  14.663  0.00  0.00     0.056 H 
ATOM     64  H37 G64 d   1      11.769  16.522  16.316  0.00  0.00     0.056 H 
ATOM     65  H38 G64 d   1      12.245  18.080  15.559  0.00  0.00     0.056 H 
ENDBRANCH  61  62
BRANCH  61  66
ATOM     66  C62 G64 d   1       9.029  18.059  15.329  0.00  0.00     0.040 C 
ATOM     67  H39 G64 d   1       8.322  18.770  15.780  0.00  0.00     0.074 H 
ATOM     68  H40 G64 d   1       8.576  17.057  15.304  0.00  0.00     0.074 H 
BRANCH  66  69
ATOM     69  C63 G64 d   1       9.255  18.496  13.879  0.00  0.00     0.084 A 
ATOM     70  N64 G64 d   1       9.727  17.654  12.924  0.00  0.00    -0.229 NA
ATOM     71  C65 G64 d   1       9.777  18.289  11.784  0.00  0.00     0.142 A 
ATOM     72  O66 G64 d   1       9.447  19.592  11.961  0.00  0.00    -0.299 OA
ATOM     73  C67 G64 d   1       9.165  19.729  13.303  0.00  0.00     0.077 A 
BRANCH  71  74
ATOM     74  C69 G64 d   1      10.322  17.798  10.457  0.00  0.00    -0.015 C 
ATOM     75  H44 G64 d   1      10.525  16.719  10.521  0.00  0.00     0.038 H 
ATOM     76  H45 G64 d   1      11.254  18.333  10.223  0.00  0.00     0.038 H 
ATOM     77  H46 G64 d   1       9.582  17.986   9.665  0.00  0.00     0.038 H 
ENDBRANCH  71  74
BRANCH  73  78
ATOM     78  C68 G64 d   1       8.608  21.060  13.782  0.00  0.00    -0.029 C 
ATOM     79  H41 G64 d   1       8.735  21.816  12.993  0.00  0.00     0.036 H 
ATOM     80  H42 G64 d   1       9.148  21.379  14.686  0.00  0.00     0.036 H 
ATOM     81  H43 G64 d   1       7.538  20.948  14.014  0.00  0.00     0.036 H 
ENDBRANCH  73  78
ENDBRANCH  66  69
ENDBRANCH  61  66
ENDBRANCH  51  59
ENDBRANCH  43  46
ENDBRANCH   1  42
BRANCH   1  82
ATOM     82  C32 G64 d   1      14.294  23.460  15.653  0.00  0.00    -0.020 C 
ATOM     83  H23 G64 d   1      14.924  24.179  15.109  0.00  0.00     0.043 H 
ATOM     84  H24 G64 d   1      13.361  23.952  15.964  0.00  0.00     0.043 H 
BRANCH  82  85
ATOM     85  C38 G64 d   1      13.965  22.289  14.740  0.00  0.00    -0.056 A 
ATOM     86  C33 G64 d   1      12.658  21.775  14.686  0.00  0.00    -0.077 A 
ATOM     87  C34 G64 d   1      12.422  20.616  13.925  0.00  0.00    -0.082 A 
ATOM     88  H25 G64 d   1      11.849  22.261  15.219  0.00  0.00     0.084 H 
ATOM     89  C35 G64 d   1      13.400  19.954  13.252  0.00  0.00    -0.083 A 
ATOM     90  H26 G64 d   1      11.410  20.232  13.873  0.00  0.00     0.083 H 
ATOM     91  C36 G64 d   1      14.691  20.493  13.297  0.00  0.00    -0.082 A 
ATOM     92  H27 G64 d   1      13.188  19.044  12.702  0.00  0.00     0.083 H 
ATOM     93  C37 G64 d   1      14.982  21.625  14.023  0.00  0.00    -0.077 A 
ATOM     94  H28 G64 d   1      15.485  20.004  12.744  0.00  0.00     0.083 H 
ATOM     95  H29 G64 d   1      15.996  22.008  14.044  0.00  0.00     0.084 H 
ENDBRANCH  82  85
ENDBRANCH   1  82
TORSDOF 23
