REMARK  4 active torsions:
REMARK  status: ('A' for Active; 'I' for Inactive)
REMARK    1  A    between atoms: N_15  and  C1_1 
REMARK    2  A    between atoms: C1_1  and  C_16 
REMARK    3  A    between atoms: N3_20  and  C17_10 
REMARK    4  A    between atoms: C8_18  and  N2_19 
ROOT
ATOM      1  C2  4OQ d   1      11.025  45.984  46.037  0.00  0.00     0.064 A 
ATOM      2  C3  4OQ d   1      10.511  45.803  47.327  0.00  0.00    -0.052 A 
ATOM      3  C11 4OQ d   1      10.739  50.136  43.424  0.00  0.00     0.035 A 
ATOM      4  C12 4OQ d   1      11.168  50.380  44.708  0.00  0.00    -0.060 A 
ATOM      5  C13 4OQ d   1      11.634  49.326  45.476  0.00  0.00    -0.054 A 
ATOM      6  C14 4OQ d   1      11.678  48.027  44.960  0.00  0.00     0.049 A 
ATOM      7 CL   4OQ d   1       9.998  51.415  42.516  0.00  0.00    -0.084 Cl
ATOM      8  C10 4OQ d   1      10.798  48.877  42.869  0.00  0.00    -0.046 A 
ATOM      9  N   4OQ d   1      12.071  46.936  45.799  0.00  0.00    -0.344 N 
ATOM     10  C9  4OQ d   1      11.261  47.805  43.633  0.00  0.00     0.038 A 
ATOM     11  C8  4OQ d   1      11.247  46.446  43.029  0.00  0.00     0.139 C 
ATOM     12  N1  4OQ d   1      10.894  45.358  43.620  0.00  0.00    -0.228 NA
ATOM     13  C7  4OQ d   1      10.441  45.289  44.955  0.00  0.00     0.089 A 
ATOM     14  C6  4OQ d   1       9.359  44.433  45.192  0.00  0.00    -0.016 A 
ATOM     15  C5  4OQ d   1       8.910  44.279  46.481  0.00  0.00     0.118 A 
ATOM     16  F   4OQ d   1       7.907  43.390  46.704  0.00  0.00    -0.206 F 
ATOM     17  C4  4OQ d   1       9.452  44.941  47.554  0.00  0.00    -0.043 A 
ATOM     18  H3  4OQ d   1      10.948  46.345  48.158  0.00  0.00     0.087 H 
ATOM     19  H4  4OQ d   1      11.142  51.385  45.114  0.00  0.00     0.086 H 
ATOM     20  H5  4OQ d   1      11.969  49.510  46.490  0.00  0.00     0.087 H 
ATOM     21  H17 4OQ d   1      10.486  48.719  41.843  0.00  0.00     0.087 H 
ATOM     22  H22 4OQ d   1       8.885  43.902  44.374  0.00  0.00     0.091 H 
ATOM     23  H23 4OQ d   1       9.061  44.793  48.554  0.00  0.00     0.088 H 
ENDROOT
BRANCH  11  24
ATOM     24  N2  4OQ d   1      11.656  46.376  41.680  0.00  0.00    -0.362 N 
ATOM     25  C15 4OQ d   1      12.900  47.045  41.276  0.00  0.00     0.019 C 
ATOM     26  C16 4OQ d   1      14.083  46.138  41.555  0.00  0.00     0.098 C 
ATOM     27  H6  4OQ d   1      12.860  47.273  40.201  0.00  0.00     0.066 H 
ATOM     28  H7  4OQ d   1      13.014  47.980  41.845  0.00  0.00     0.066 H 
ATOM     29  N3  4OQ d   1      13.952  44.874  40.832  0.00  0.00    -0.072 N 
ATOM     30  H8  4OQ d   1      14.133  45.932  42.634  0.00  0.00     0.078 H 
ATOM     31  H9  4OQ d   1      15.007  46.642  41.235  0.00  0.00     0.078 H 
ATOM     32  C18 4OQ d   1      12.704  44.212  41.209  0.00  0.00     0.098 C 
ATOM     33  H21 4OQ d   1      13.923  45.072  39.844  0.00  0.00     0.279 HD
ATOM     34  C19 4OQ d   1      11.507  45.112  40.940  0.00  0.00     0.019 C 
ATOM     35  H13 4OQ d   1      12.597  43.286  40.624  0.00  0.00     0.078 H 
ATOM     36  H14 4OQ d   1      12.736  43.967  42.281  0.00  0.00     0.078 H 
ATOM     37  H15 4OQ d   1      10.588  44.604  41.267  0.00  0.00     0.066 H 
ATOM     38  H16 4OQ d   1      11.445  45.325  39.863  0.00  0.00     0.066 H 
BRANCH  29  39
ATOM     39  C17 4OQ d   1      15.106  44.001  41.096  0.00  0.00     0.066 C 
ATOM     40  H10 4OQ d   1      14.986  43.058  40.543  0.00  0.00     0.068 H 
ATOM     41  H11 4OQ d   1      15.166  43.789  42.174  0.00  0.00     0.068 H 
ATOM     42  H12 4OQ d   1      16.028  44.503  40.769  0.00  0.00     0.068 H 
ENDBRANCH  29  39
ENDBRANCH  11  24
BRANCH   9  43
ATOM     43  C1  4OQ d   1      13.036  47.214  46.881  0.00  0.00    -0.003 C 
ATOM     44  H1  4OQ d   1      12.474  47.531  47.772  0.00  0.00     0.064 H 
ATOM     45  H2  4OQ d   1      13.696  48.031  46.554  0.00  0.00     0.064 H 
BRANCH  43  46
ATOM     46  C   4OQ d   1      13.917  46.004  47.268  0.00  0.00    -0.061 C 
ATOM     47  H18 4OQ d   1      14.604  46.294  48.076  0.00  0.00     0.029 H 
ATOM     48  H19 4OQ d   1      14.498  45.678  46.392  0.00  0.00     0.029 H 
ATOM     49  H20 4OQ d   1      13.276  45.178  47.611  0.00  0.00     0.029 H 
ENDBRANCH  43  46
ENDBRANCH   9  43
TORSDOF 4
