REMARK  26 active torsions:
REMARK  status: ('A' for Active; 'I' for Inactive)
REMARK    1  A    between atoms: C02_2  and  O03_3 
REMARK       I    between atoms: N01_11  and  C02_2 
REMARK    2  A    between atoms: O03_3  and  C04_4 
REMARK    3  A    between atoms: C04_4  and  C05_5 
REMARK    4  A    between atoms: C12_12  and  N01_11 
REMARK    5  A    between atoms: C12_12  and  C13_13 
REMARK    6  A    between atoms: C20_15  and  C12_12 
REMARK    7  A    between atoms: C13_13  and  C14_14 
REMARK    8  A    between atoms: C14_14  and  O15_16 
REMARK       I    between atoms: N22_22  and  C20_15 
REMARK    9  A    between atoms: O15_16  and  N16_17 
REMARK       I    between atoms: N16_17  and  C17_18 
REMARK       I    between atoms: C17_18  and  N18_19 
REMARK   10  A    between atoms: C23_23  and  N22_22 
REMARK   11  A    between atoms: C27_24  and  C23_23 
REMARK   12  A    between atoms: C23_23  and  C24_26 
REMARK       I    between atoms: N29_29  and  C27_24 
REMARK   13  A    between atoms: C24_26  and  C26_27 
REMARK   14  A    between atoms: C24_26  and  C25_28 
REMARK   15  A    between atoms: C30_30  and  N29_29 
REMARK   16  A    between atoms: C30_30  and  C31_31 
REMARK   17  A    between atoms: C35_35  and  C30_30 
REMARK   18  A    between atoms: C31_31  and  C32_32 
REMARK   19  A    between atoms: C32_32  and  C33_33 
REMARK   20  A    between atoms: C32_32  and  C34_34 
REMARK   21  A    between atoms: C35_35  and  O36_36 
REMARK   22  A    between atoms: C37_37  and  C35_35 
REMARK   23  A    between atoms: C38_38  and  C37_37 
REMARK       I    between atoms: N40_48  and  C38_38 
REMARK   24  A    between atoms: C42_46  and  C43_40 
REMARK   25  A    between atoms: C41_47  and  C42_46 
REMARK   26  A    between atoms: C41_47  and  N40_48 
ROOT
ATOM      1  C23 4PK d   1      -2.928  99.485  43.704  0.00  0.00     0.092 C 
ATOM      2  H20 4PK d   1      -1.965  99.403  44.230  0.00  0.00     0.088 H 
ENDROOT
BRANCH   1   3
ATOM      3  N22 4PK d   1      -2.764 100.187  42.437  0.00  0.00    -0.346 N 
ATOM      4  C20 4PK d   1      -1.747 101.084  42.223  0.00  0.00     0.241 C 
ATOM      5  O21 4PK d   1      -0.972 101.329  43.148  0.00  0.00    -0.271 OA
ATOM      6  H19 4PK d   1      -3.414 100.009  41.699  0.00  0.00     0.163 HD
BRANCH   4   7
ATOM      7  C12 4PK d   1      -1.635 101.724  40.813  0.00  0.00     0.093 C 
ATOM      8  H9  4PK d   1      -2.631 101.896  40.378  0.00  0.00     0.087 H 
BRANCH   7   9
ATOM      9  N01 4PK d   1      -0.896 102.990  40.863  0.00  0.00    -0.324 N 
ATOM     10  C02 4PK d   1      -1.594 104.168  40.969  0.00  0.00     0.361 C 
ATOM     11  O11 4PK d   1      -2.824 104.147  40.998  0.00  0.00    -0.238 OA
ATOM     12  H8  4PK d   1       0.103 102.995  40.821  0.00  0.00     0.165 HD
BRANCH  10  13
ATOM     13  O03 4PK d   1      -0.918 105.333  41.034  0.00  0.00    -0.299 OA
BRANCH  13  14
ATOM     14  C04 4PK d   1      -1.556 106.350  40.250  0.00  0.00     0.054 C 
ATOM     15  H2  4PK d   1      -1.696 107.250  40.866  0.00  0.00     0.082 H 
ATOM     16  H3  4PK d   1      -2.535 105.984  39.907  0.00  0.00     0.082 H 
BRANCH  14  17
ATOM     17  C05 4PK d   1      -0.700 106.694  39.048  0.00  0.00    -0.034 A 
ATOM     18  C10 4PK d   1       0.502 107.397  39.223  0.00  0.00    -0.075 A 
ATOM     19  C09 4PK d   1       1.296 107.718  38.111  0.00  0.00    -0.082 A 
ATOM     20  H1  4PK d   1       0.817 107.692  40.217  0.00  0.00     0.084 H 
ATOM     21  C08 4PK d   1       0.885 107.333  36.824  0.00  0.00    -0.083 A 
ATOM     22  H7  4PK d   1       2.224 108.262  38.245  0.00  0.00     0.083 H 
ATOM     23  C07 4PK d   1      -0.316 106.628  36.644  0.00  0.00    -0.082 A 
ATOM     24  H6  4PK d   1       1.498 107.582  35.965  0.00  0.00     0.083 H 
ATOM     25  C06 4PK d   1      -1.108 106.307  37.757  0.00  0.00    -0.075 A 
ATOM     26  H5  4PK d   1      -0.630 106.333  35.649  0.00  0.00     0.083 H 
ATOM     27  H4  4PK d   1      -2.035 105.761  37.623  0.00  0.00     0.084 H 
ENDBRANCH  14  17
ENDBRANCH  13  14
ENDBRANCH  10  13
ENDBRANCH   7   9
BRANCH   7  28
ATOM     28  C13 4PK d   1      -0.857 100.674  40.013  0.00  0.00    -0.016 C 
ATOM     29  H10 4PK d   1      -1.508  99.803  39.846  0.00  0.00     0.040 H 
ATOM     30  H11 4PK d   1       0.024 100.367  40.596  0.00  0.00     0.040 H 
BRANCH  28  31
ATOM     31  C14 4PK d   1      -0.390 101.204  38.659  0.00  0.00     0.048 C 
ATOM     32  H12 4PK d   1       0.193 100.433  38.135  0.00  0.00     0.078 H 
ATOM     33  H13 4PK d   1       0.232 102.100  38.801  0.00  0.00     0.078 H 
BRANCH  31  34
ATOM     34  O15 4PK d   1      -1.547 101.532  37.905  0.00  0.00    -0.266 OA
BRANCH  34  35
ATOM     35  N16 4PK d   1      -2.475 100.488  37.870  0.00  0.00    -0.097 N 
ATOM     36  C17 4PK d   1      -2.666  99.871  36.686  0.00  0.00     0.689 C 
ATOM     37  N18 4PK d   1      -1.966 100.250  35.604  0.00  0.00    -0.233 N 
ATOM     38  N19 4PK d   1      -3.559  98.876  36.576  0.00  0.00    -0.233 N 
ATOM     39  H15 4PK d   1      -2.115  99.776  34.702  0.00  0.00     0.174 HD
ATOM     40  H16 4PK d   1      -1.280 101.015  35.676  0.00  0.00     0.174 HD
ATOM     41  H17 4PK d   1      -4.101  98.577  37.399  0.00  0.00     0.174 HD
ATOM     42  H18 4PK d   1      -3.702  98.411  35.668  0.00  0.00     0.174 HD
ATOM     43  H14 4PK d   1      -2.992 100.201  38.714  0.00  0.00     0.213 HD
ENDBRANCH  34  35
ENDBRANCH  31  34
ENDBRANCH  28  31
ENDBRANCH   7  28
ENDBRANCH   4   7
ENDBRANCH   1   3
BRANCH   1  44
ATOM     44  C27 4PK d   1      -3.431  98.088  43.235  0.00  0.00     0.241 C 
ATOM     45  O28 4PK d   1      -4.625  97.880  42.990  0.00  0.00    -0.271 OA
ATOM     46  N29 4PK d   1      -2.512  97.082  43.055  0.00  0.00    -0.352 N 
ATOM     47  H28 4PK d   1      -1.547  97.247  43.259  0.00  0.00     0.163 HD
BRANCH  46  48
ATOM     48  C30 4PK d   1      -2.940  95.766  42.564  0.00  0.00     0.037 C 
ATOM     49  H29 4PK d   1      -4.031  95.754  42.423  0.00  0.00     0.076 H 
BRANCH  48  50
ATOM     50  C31 4PK d   1      -2.222  95.495  41.221  0.00  0.00    -0.041 C 
ATOM     51  H30 4PK d   1      -2.591  94.543  40.812  0.00  0.00     0.036 H 
ATOM     52  H31 4PK d   1      -1.141  95.419  41.410  0.00  0.00     0.036 H 
BRANCH  50  53
ATOM     53  C32 4PK d   1      -2.461  96.604  40.177  0.00  0.00    -0.059 C 
ATOM     54  H32 4PK d   1      -2.220  97.576  40.632  0.00  0.00     0.038 H 
BRANCH  53  55
ATOM     55  C33 4PK d   1      -1.546  96.372  38.960  0.00  0.00    -0.073 C 
ATOM     56  H33 4PK d   1      -1.718  97.164  38.216  0.00  0.00     0.028 H 
ATOM     57  H34 4PK d   1      -1.772  95.393  38.512  0.00  0.00     0.028 H 
ATOM     58  H35 4PK d   1      -0.494  96.393  39.282  0.00  0.00     0.028 H 
ENDBRANCH  53  55
BRANCH  53  59
ATOM     59  C34 4PK d   1      -3.929  96.623  39.706  0.00  0.00    -0.073 C 
ATOM     60  H36 4PK d   1      -4.589  96.788  40.570  0.00  0.00     0.028 H 
ATOM     61  H37 4PK d   1      -4.176  95.660  39.235  0.00  0.00     0.028 H 
ATOM     62  H38 4PK d   1      -4.070  97.434  38.977  0.00  0.00     0.028 H 
ENDBRANCH  53  59
ENDBRANCH  50  53
ENDBRANCH  48  50
BRANCH  48  63
ATOM     63  C35 4PK d   1      -2.529  94.674  43.563  0.00  0.00     0.063 C 
ATOM     64  H39 4PK d   1      -2.635  93.689  43.085  0.00  0.00     0.086 H 
BRANCH  63  65
ATOM     65  O36 4PK d   1      -1.160  94.882  43.910  0.00  0.00    -0.393 OA
ATOM     66  H40 4PK d   1      -0.886  94.215  44.529  0.00  0.00     0.210 HD
ENDBRANCH  63  65
BRANCH  63  67
ATOM     67  C37 4PK d   1      -3.425  94.712  44.814  0.00  0.00     0.035 C 
ATOM     68  H41 4PK d   1      -3.591  95.758  45.112  0.00  0.00     0.051 H 
ATOM     69  H42 4PK d   1      -2.929  94.171  45.634  0.00  0.00     0.051 H 
BRANCH  67  70
ATOM     70  C38 4PK d   1      -4.793  94.041  44.508  0.00  0.00     0.220 C 
ATOM     71  O39 4PK d   1      -5.797  94.728  44.307  0.00  0.00    -0.274 OA
ATOM     72  N40 4PK d   1      -4.874  92.661  44.475  0.00  0.00    -0.361 N 
ATOM     73  H52 4PK d   1      -4.048  92.120  44.635  0.00  0.00     0.162 HD
BRANCH  72  74
ATOM     74  C41 4PK d   1      -6.143  91.971  44.211  0.00  0.00    -0.001 C 
ATOM     75  H50 4PK d   1      -6.981  92.677  44.309  0.00  0.00     0.064 H 
ATOM     76  H51 4PK d   1      -6.136  91.549  43.195  0.00  0.00     0.064 H 
BRANCH  74  77
ATOM     77  C42 4PK d   1      -6.287  90.841  45.246  0.00  0.00    -0.026 C 
ATOM     78  H48 4PK d   1      -7.247  90.319  45.119  0.00  0.00     0.042 H 
ATOM     79  H49 4PK d   1      -5.462  90.120  45.149  0.00  0.00     0.042 H 
BRANCH  77  80
ATOM     80  C43 4PK d   1      -6.232  91.542  46.601  0.00  0.00    -0.057 A 
ATOM     81  C44 4PK d   1      -7.376  92.186  47.082  0.00  0.00    -0.077 A 
ATOM     82  C45 4PK d   1      -7.323  92.851  48.315  0.00  0.00    -0.082 A 
ATOM     83  H43 4PK d   1      -8.295  92.171  46.507  0.00  0.00     0.084 H 
ATOM     84  C46 4PK d   1      -6.128  92.873  49.052  0.00  0.00    -0.083 A 
ATOM     85  H44 4PK d   1      -8.206  93.349  48.700  0.00  0.00     0.083 H 
ATOM     86  C47 4PK d   1      -4.982  92.234  48.562  0.00  0.00    -0.082 A 
ATOM     87  H45 4PK d   1      -6.092  93.387  50.005  0.00  0.00     0.083 H 
ATOM     88  C48 4PK d   1      -5.037  91.568  47.332  0.00  0.00    -0.077 A 
ATOM     89  H46 4PK d   1      -4.059  92.255  49.131  0.00  0.00     0.083 H 
ATOM     90  H47 4PK d   1      -4.154  91.072  46.945  0.00  0.00     0.084 H 
ENDBRANCH  77  80
ENDBRANCH  74  77
ENDBRANCH  72  74
ENDBRANCH  67  70
ENDBRANCH  63  67
ENDBRANCH  48  63
ENDBRANCH  46  48
ENDBRANCH   1  44
BRANCH   1  91
ATOM     91  C24 4PK d   1      -3.945 100.149  44.634  0.00  0.00    -0.033 C 
ATOM     92  H21 4PK d   1      -4.969 100.005  44.259  0.00  0.00     0.042 H 
BRANCH  91  93
ATOM     93  C26 4PK d   1      -3.750  99.434  45.992  0.00  0.00    -0.071 C 
ATOM     94  H22 4PK d   1      -4.449  99.853  46.731  0.00  0.00     0.028 H 
ATOM     95  H23 4PK d   1      -2.717  99.583  46.340  0.00  0.00     0.028 H 
ATOM     96  H24 4PK d   1      -3.945  98.358  45.871  0.00  0.00     0.028 H 
ENDBRANCH  91  93
BRANCH  91  97
ATOM     97  C25 4PK d   1      -3.652 101.662  44.774  0.00  0.00    -0.071 C 
ATOM     98  H25 4PK d   1      -3.795 102.155  43.801  0.00  0.00     0.028 H 
ATOM     99  H26 4PK d   1      -2.614 101.805  45.108  0.00  0.00     0.028 H 
ATOM    100  H27 4PK d   1      -4.339 102.102  45.512  0.00  0.00     0.028 H 
ENDBRANCH  91  97
ENDBRANCH   1  91
TORSDOF 26
