REMARK  25 active torsions:
REMARK  status: ('A' for Active; 'I' for Inactive)
REMARK    1  A    between atoms: O39_1  and  C40_2 
REMARK    2  A    between atoms: C2_3  and  O39_1 
REMARK    3  A    between atoms: S8_9  and  C5_6 
REMARK    4  A    between atoms: N11_12  and  S8_9 
REMARK    5  A    between atoms: N11_12  and  C12_13 
REMARK    6  A    between atoms: C16_17  and  N11_12 
REMARK    7  A    between atoms: C12_13  and  C13_14 
REMARK    8  A    between atoms: C13_14  and  C14_15 
REMARK    9  A    between atoms: C13_14  and  C15_16 
REMARK   10  A    between atoms: C17_18  and  C16_17 
REMARK   11  A    between atoms: C17_18  and  O18_19 
REMARK   12  A    between atoms: C19_20  and  C17_18 
REMARK   13  A    between atoms: C19_20  and  N20_21 
REMARK   14  A    between atoms: C32_29  and  C19_20 
REMARK       I    between atoms: N20_21  and  C21_22 
REMARK   15  A    between atoms: C21_22  and  O23_24 
REMARK   16  A    between atoms: O23_24  and  C24_25 
REMARK   17  A    between atoms: C24_25  and  C25_26 
REMARK   18  A    between atoms: C24_25  and  C26_27 
REMARK   19  A    between atoms: C24_25  and  C27_28 
REMARK   20  A    between atoms: C38_35  and  C32_29 
REMARK   21  A    between atoms: C34_31  and  C51_36 
REMARK   22  A    between atoms: C53_38  and  O61_42 
REMARK   23  A    between atoms: C55_40  and  O63_44 
REMARK   24  A    between atoms: O61_42  and  C62_43 
REMARK   25  A    between atoms: O63_44  and  C64_45 
ROOT
ATOM      1  C19 G61 d   1      17.319  24.105  18.855  0.00  0.00     0.044 C 
ATOM      2  H21 G61 d   1      17.632  23.127  18.462  0.00  0.00     0.077 H 
ENDROOT
BRANCH   1   3
ATOM      3  C17 G61 d   1      15.852  24.317  18.463  0.00  0.00     0.071 C 
ATOM      4  H19 G61 d   1      15.775  24.311  17.366  0.00  0.00     0.088 H 
BRANCH   3   5
ATOM      5  C16 G61 d   1      14.974  23.197  19.050  0.00  0.00     0.031 C 
ATOM      6  H17 G61 d   1      15.372  22.875  20.024  0.00  0.00     0.069 H 
ATOM      7  H18 G61 d   1      13.941  23.553  19.175  0.00  0.00     0.069 H 
BRANCH   5   8
ATOM      8  N11 G61 d   1      15.012  22.089  18.101  0.00  0.00    -0.304 N 
BRANCH   8   9
ATOM      9  S8  G61 d   1      15.586  20.710  18.753  0.00  0.00     0.260 S 
ATOM     10  O9  G61 d   1      16.514  21.093  19.845  0.00  0.00    -0.200 OA
ATOM     11  O10 G61 d   1      16.228  19.987  17.615  0.00  0.00    -0.200 OA
BRANCH   9  12
ATOM     12  C5  G61 d   1      14.273  19.740  19.400  0.00  0.00     0.079 A 
ATOM     13  C4  G61 d   1      13.659  18.765  18.631  0.00  0.00    -0.058 A 
ATOM     14  C3  G61 d   1      12.499  18.129  19.074  0.00  0.00    -0.049 A 
ATOM     15  H5  G61 d   1      14.085  18.493  17.672  0.00  0.00     0.086 H 
ATOM     16  C2  G61 d   1      12.005  18.417  20.346  0.00  0.00     0.068 A 
ATOM     17  H4  G61 d   1      11.987  17.418  18.436  0.00  0.00     0.087 H 
ATOM     18  C7  G61 d   1      12.673  19.319  21.162  0.00  0.00    -0.049 A 
ATOM     19  C6  G61 d   1      13.761  20.026  20.651  0.00  0.00    -0.058 A 
ATOM     20  H7  G61 d   1      12.352  19.473  22.186  0.00  0.00     0.087 H 
ATOM     21  H6  G61 d   1      14.212  20.813  21.245  0.00  0.00     0.086 H 
BRANCH  16  22
ATOM     22  O39 G61 d   1      10.909  17.764  20.811  0.00  0.00    -0.356 OA
BRANCH  22  23
ATOM     23  C40 G61 d   1      10.195  17.142  19.736  0.00  0.00     0.010 C 
ATOM     24  H1  G61 d   1       9.313  16.620  20.135  0.00  0.00     0.066 H 
ATOM     25  H2  G61 d   1      10.851  16.419  19.230  0.00  0.00     0.066 H 
ATOM     26  H3  G61 d   1       9.873  17.910  19.017  0.00  0.00     0.066 H 
ENDBRANCH  22  23
ENDBRANCH  16  22
ENDBRANCH   9  12
ENDBRANCH   8   9
BRANCH   8  27
ATOM     27  C12 G61 d   1      13.901  21.991  17.194  0.00  0.00     0.008 C 
ATOM     28  H8  G61 d   1      12.973  22.254  17.722  0.00  0.00     0.066 H 
ATOM     29  H9  G61 d   1      13.828  20.961  16.815  0.00  0.00     0.066 H 
BRANCH  27  30
ATOM     30  C13 G61 d   1      14.111  22.959  16.012  0.00  0.00    -0.045 C 
ATOM     31  H10 G61 d   1      13.924  23.989  16.351  0.00  0.00     0.041 H 
BRANCH  30  32
ATOM     32  C14 G61 d   1      15.554  22.843  15.510  0.00  0.00    -0.072 C 
ATOM     33  H11 G61 d   1      15.705  23.533  14.667  0.00  0.00     0.028 H 
ATOM     34  H12 G61 d   1      15.745  21.812  15.179  0.00  0.00     0.028 H 
ATOM     35  H13 G61 d   1      16.247  23.101  16.324  0.00  0.00     0.028 H 
ENDBRANCH  30  32
BRANCH  30  36
ATOM     36  C15 G61 d   1      13.145  22.623  14.865  0.00  0.00    -0.072 C 
ATOM     37  H14 G61 d   1      12.108  22.706  15.223  0.00  0.00     0.028 H 
ATOM     38  H15 G61 d   1      13.332  21.596  14.517  0.00  0.00     0.028 H 
ATOM     39  H16 G61 d   1      13.303  23.326  14.034  0.00  0.00     0.028 H 
ENDBRANCH  30  36
ENDBRANCH  27  30
ENDBRANCH   8  27
ENDBRANCH   5   8
ENDBRANCH   3   5
BRANCH   3  40
ATOM     40  O18 G61 d   1      15.348  25.551  18.966  0.00  0.00    -0.392 OA
ATOM     41  H20 G61 d   1      15.397  25.549  19.915  0.00  0.00     0.210 HD
ENDBRANCH   3  40
ENDBRANCH   1   3
BRANCH   1  42
ATOM     42  N20 G61 d   1      18.173  25.140  18.257  0.00  0.00    -0.329 N 
ATOM     43  C21 G61 d   1      18.631  25.053  16.998  0.00  0.00     0.361 C 
ATOM     44  O22 G61 d   1      18.470  24.013  16.345  0.00  0.00    -0.238 OA
ATOM     45  H22 G61 d   1      18.422  25.937  18.807  0.00  0.00     0.165 HD
BRANCH  43  46
ATOM     46  O23 G61 d   1      19.259  26.144  16.511  0.00  0.00    -0.294 OA
BRANCH  46  47
ATOM     47  C24 G61 d   1      19.718  26.227  15.178  0.00  0.00     0.061 C 
BRANCH  47  48
ATOM     48  C25 G61 d   1      20.215  27.664  14.855  0.00  0.00    -0.048 C 
ATOM     49  H23 G61 d   1      20.567  27.705  13.814  0.00  0.00     0.031 H 
ATOM     50  H24 G61 d   1      21.041  27.927  15.532  0.00  0.00     0.031 H 
ATOM     51  H25 G61 d   1      19.389  28.377  14.991  0.00  0.00     0.031 H 
ENDBRANCH  47  48
BRANCH  47  52
ATOM     52  C26 G61 d   1      20.899  25.267  15.034  0.00  0.00    -0.048 C 
ATOM     53  H26 G61 d   1      21.281  25.308  14.003  0.00  0.00     0.031 H 
ATOM     54  H27 G61 d   1      20.569  24.243  15.262  0.00  0.00     0.031 H 
ATOM     55  H28 G61 d   1      21.697  25.560  15.733  0.00  0.00     0.031 H 
ENDBRANCH  47  52
BRANCH  47  56
ATOM     56  C27 G61 d   1      18.646  25.908  14.142  0.00  0.00    -0.048 C 
ATOM     57  H29 G61 d   1      19.075  25.993  13.133  0.00  0.00     0.031 H 
ATOM     58  H30 G61 d   1      17.812  26.618  14.247  0.00  0.00     0.031 H 
ATOM     59  H31 G61 d   1      18.278  24.884  14.299  0.00  0.00     0.031 H 
ENDBRANCH  47  56
ENDBRANCH  46  47
ENDBRANCH  43  46
ENDBRANCH   1  42
BRANCH   1  60
ATOM     60  C32 G61 d   1      17.530  24.096  20.370  0.00  0.00    -0.020 C 
ATOM     61  H32 G61 d   1      17.074  23.187  20.790  0.00  0.00     0.043 H 
ATOM     62  H33 G61 d   1      17.047  24.983  20.805  0.00  0.00     0.043 H 
BRANCH  60  63
ATOM     63  C38 G61 d   1      19.023  24.116  20.723  0.00  0.00    -0.055 C 
ATOM     64  C33 G61 d   1      19.861  23.051  20.412  0.00  0.00    -0.066 C 
ATOM     65  C34 G61 d   1      21.233  23.161  20.625  0.00  0.00    -0.025 C 
ATOM     66  H34 G61 d   1      19.447  22.136  20.004  0.00  0.00     0.085 H 
ATOM     67  C35 G61 d   1      21.756  24.250  21.326  0.00  0.00    -0.072 C 
ATOM     68  C36 G61 d   1      20.895  25.277  21.692  0.00  0.00    -0.082 C 
ATOM     69  H35 G61 d   1      22.809  24.293  21.579  0.00  0.00     0.084 H 
ATOM     70  C37 G61 d   1      19.538  25.222  21.382  0.00  0.00    -0.077 C 
ATOM     71  H36 G61 d   1      21.285  26.135  22.227  0.00  0.00     0.083 H 
ATOM     72  H37 G61 d   1      18.885  26.043  21.656  0.00  0.00     0.084 H 
BRANCH  65  73
ATOM     73  C51 G61 d   1      22.102  22.088  20.395  0.00  0.00    -0.021 A 
ATOM     74  C52 G61 d   1      23.391  22.322  19.915  0.00  0.00    -0.040 A 
ATOM     75  C53 G61 d   1      24.242  21.244  19.694  0.00  0.00     0.071 A 
ATOM     76  H38 G61 d   1      23.726  23.334  19.716  0.00  0.00     0.089 H 
ATOM     77  C54 G61 d   1      23.797  19.940  19.954  0.00  0.00    -0.019 A 
ATOM     78  C55 G61 d   1      22.514  19.708  20.431  0.00  0.00     0.071 A 
ATOM     79  H39 G61 d   1      24.463  19.103  19.780  0.00  0.00     0.092 H 
ATOM     80  C56 G61 d   1      21.664  20.796  20.652  0.00  0.00    -0.040 A 
ATOM     81  H40 G61 d   1      20.660  20.630  21.025  0.00  0.00     0.089 H 
BRANCH  75  82
ATOM     82  O61 G61 d   1      25.503  21.439  19.227  0.00  0.00    -0.356 OA
BRANCH  82  83
ATOM     83  C62 G61 d   1      25.782  22.790  18.867  0.00  0.00     0.010 C 
ATOM     84  H41 G61 d   1      26.816  22.866  18.500  0.00  0.00     0.066 H 
ATOM     85  H42 G61 d   1      25.657  23.437  19.747  0.00  0.00     0.066 H 
ATOM     86  H43 G61 d   1      25.088  23.109  18.075  0.00  0.00     0.066 H 
ENDBRANCH  82  83
ENDBRANCH  75  82
BRANCH  78  87
ATOM     87  O63 G61 d   1      22.036  18.468  20.698  0.00  0.00    -0.356 OA
BRANCH  87  88
ATOM     88  C64 G61 d   1      22.987  17.435  20.391  0.00  0.00     0.010 C 
ATOM     89  H44 G61 d   1      22.550  16.453  20.625  0.00  0.00     0.066 H 
ATOM     90  H45 G61 d   1      23.897  17.584  20.991  0.00  0.00     0.066 H 
ATOM     91  H46 G61 d   1      23.242  17.477  19.322  0.00  0.00     0.066 H 
ENDBRANCH  87  88
ENDBRANCH  78  87
ENDBRANCH  65  73
ENDBRANCH  60  63
ENDBRANCH   1  60
TORSDOF 25
