REMARK  5 active torsions:
REMARK  status: ('A' for Active; 'I' for Inactive)
REMARK    1  A    between atoms: O5'_1  and  C5'_2 
REMARK    2  A    between atoms: C5'_2  and  C4'_3 
REMARK    3  A    between atoms: C3'_5  and  O3'_6 
REMARK    4  A    between atoms: C2'_7  and  O2'_8 
REMARK    5  A    between atoms: C1'_9  and  N9_10 
ROOT
ATOM      1  C4' ADN d   1      15.025 -12.851   7.370  0.00  0.00     0.088 C 
ATOM      2  O4' ADN d   1      16.458 -12.746   7.327  0.00  0.00    -0.353 OA
ATOM      3  C3' ADN d   1      14.452 -11.703   6.574  0.00  0.00     0.091 C 
ATOM      4  C2' ADN d   1      15.510 -10.646   6.711  0.00  0.00     0.105 C 
ATOM      5  C1' ADN d   1      16.794 -11.444   6.825  0.00  0.00     0.139 C 
ATOM      6  H4  ADN d   1      14.698 -12.764   8.417  0.00  0.00     0.090 H 
ATOM      7  H5  ADN d   1      14.317 -11.987   5.520  0.00  0.00     0.091 H 
ATOM      8  H7  ADN d   1      15.534  -9.986   5.831  0.00  0.00     0.093 H 
ATOM      9  H9  ADN d   1      17.464 -10.937   7.535  0.00  0.00     0.122 H 
ENDROOT
BRANCH   5  10
ATOM     10  N9  ADN d   1      17.505 -11.591   5.530  0.00  0.00    -0.294 N 
ATOM     11  C8  ADN d   1      17.454 -12.632   4.661  0.00  0.00     0.071 A 
ATOM     12  N7  ADN d   1      18.296 -12.418   3.598  0.00  0.00    -0.236 NA
ATOM     13  H10 ADN d   1      16.831 -13.516   4.789  0.00  0.00     0.144 H 
ATOM     14  C5  ADN d   1      18.904 -11.236   3.810  0.00  0.00     0.149 A 
ATOM     15  C6  ADN d   1      19.907 -10.398   3.125  0.00  0.00     0.155 A 
ATOM     16  C4  ADN d   1      18.367 -10.698   5.068  0.00  0.00     0.167 A 
ATOM     17  N6  ADN d   1      20.458 -10.780   1.950  0.00  0.00    -0.382 N 
ATOM     18  N1  ADN d   1      20.265  -9.229   3.696  0.00  0.00    -0.222 NA
ATOM     19  H11 ADN d   1      21.156 -10.179   1.489  0.00  0.00     0.157 HD
ATOM     20  H12 ADN d   1      20.179 -11.671   1.516  0.00  0.00     0.157 HD
ATOM     21  C2  ADN d   1      19.724  -8.802   4.869  0.00  0.00     0.091 A 
ATOM     22  N3  ADN d   1      18.806  -9.510   5.531  0.00  0.00    -0.222 NA
ATOM     23  H13 ADN d   1      20.050  -7.854   5.280  0.00  0.00     0.146 H 
ENDBRANCH   5  10
BRANCH   4  24
ATOM     24  O2' ADN d   1      15.265  -9.869   7.893  0.00  0.00    -0.388 OA
ATOM     25  H8  ADN d   1      14.412  -9.456   7.828  0.00  0.00     0.210 HD
ENDBRANCH   4  24
BRANCH   1  26
ATOM     26  C5' ADN d   1      14.518 -14.161   6.827  0.00  0.00     0.043 C 
ATOM     27  H2  ADN d   1      13.744 -13.986   6.066  0.00  0.00     0.078 H 
ATOM     28  H3  ADN d   1      15.344 -14.737   6.384  0.00  0.00     0.078 H 
BRANCH  26  29
ATOM     29  O5' ADN d   1      13.968 -14.859   7.942  0.00  0.00    -0.398 OA
ATOM     30  H1  ADN d   1      14.645 -14.995   8.594  0.00  0.00     0.209 HD
ENDBRANCH  26  29
ENDBRANCH   1  26
BRANCH   3  31
ATOM     31  O3' ADN d   1      13.203 -11.266   7.101  0.00  0.00    -0.390 OA
ATOM     32  H6  ADN d   1      12.582 -11.985   7.079  0.00  0.00     0.210 HD
ENDBRANCH   3  31
TORSDOF 5
