REMARK  10 active torsions:
REMARK  status: ('A' for Active; 'I' for Inactive)
REMARK    1  A    between atoms: C9_4  and  N7_21 
REMARK    2  A    between atoms: C10_5  and  C11_6 
REMARK    3  A    between atoms: C6_20  and  C10_5 
REMARK    4  A    between atoms: C11_6  and  N19_11 
REMARK    5  A    between atoms: O17_25  and  C18_10 
REMARK    6  A    between atoms: C14_23  and  O17_25 
REMARK    7  A    between atoms: C27_30  and  O30_33 
REMARK    8  A    between atoms: O30_33  and  C31_34 
REMARK    9  A    between atoms: C31_34  and  C32_35 
REMARK   10  A    between atoms: C31_34  and  C33_36 
ROOT
ATOM      1  C10 4Q0 d   1      -4.754  -5.090  21.950  0.00  0.00     0.006 C 
ATOM      2  H3  4Q0 d   1      -4.378  -5.390  20.961  0.00  0.00     0.047 H 
ATOM      3  H4  4Q0 d   1      -5.669  -5.655  22.181  0.00  0.00     0.047 H 
ENDROOT
BRANCH   1   4
ATOM      4  C11 4Q0 d   1      -5.020  -3.593  21.994  0.00  0.00     0.012 C 
ATOM      5  H5  4Q0 d   1      -4.149  -3.074  21.568  0.00  0.00     0.065 H 
ATOM      6  H6  4Q0 d   1      -5.147  -3.295  23.045  0.00  0.00     0.065 H 
BRANCH   4   7
ATOM      7  N19 4Q0 d   1      -6.195  -3.185  21.261  0.00  0.00    -0.279 N 
ATOM      8  C20 4Q0 d   1      -7.391  -2.871  21.880  0.00  0.00     0.261 A 
ATOM      9  C21 4Q0 d   1      -8.250  -2.490  20.770  0.00  0.00     0.051 A 
ATOM     10  O29 4Q0 d   1      -7.751  -2.943  23.056  0.00  0.00    -0.267 OA
ATOM     11  C22 4Q0 d   1      -7.574  -2.636  19.589  0.00  0.00     0.081 A 
ATOM     12  C24 4Q0 d   1      -9.562  -2.069  20.817  0.00  0.00    -0.067 A 
ATOM     13  C23 4Q0 d   1      -6.214  -3.087  19.878  0.00  0.00     0.264 A 
ATOM     14  C27 4Q0 d   1      -8.161  -2.353  18.372  0.00  0.00     0.086 A 
ATOM     15  O28 4Q0 d   1      -5.328  -3.270  19.044  0.00  0.00    -0.267 OA
ATOM     16  C26 4Q0 d   1      -9.478  -1.909  18.411  0.00  0.00    -0.050 A 
ATOM     17  C25 4Q0 d   1     -10.163  -1.773  19.602  0.00  0.00    -0.079 A 
ATOM     18  H18 4Q0 d   1      -9.980  -1.663  17.482  0.00  0.00     0.087 H 
ATOM     19  H17 4Q0 d   1     -11.191  -1.428  19.588  0.00  0.00     0.083 H 
ATOM     20  H16 4Q0 d   1     -10.097  -1.974  21.755  0.00  0.00     0.085 H 
BRANCH  14  21
ATOM     21  O30 4Q0 d   1      -7.416  -2.550  17.194  0.00  0.00    -0.346 OA
BRANCH  21  22
ATOM     22  C31 4Q0 d   1      -8.054  -2.018  16.006  0.00  0.00     0.038 C 
ATOM     23  H19 4Q0 d   1      -8.665  -1.151  16.296  0.00  0.00     0.082 H 
BRANCH  22  24
ATOM     24  C32 4Q0 d   1      -6.983  -1.588  15.030  0.00  0.00    -0.052 C 
ATOM     25  H20 4Q0 d   1      -7.455  -1.182  14.123  0.00  0.00     0.030 H 
ATOM     26  H21 4Q0 d   1      -6.361  -2.455  14.763  0.00  0.00     0.030 H 
ATOM     27  H22 4Q0 d   1      -6.354  -0.814  15.494  0.00  0.00     0.030 H 
ENDBRANCH  22  24
BRANCH  22  28
ATOM     28  C33 4Q0 d   1      -8.937  -3.022  15.288  0.00  0.00    -0.052 C 
ATOM     29  H23 4Q0 d   1      -9.384  -2.549  14.402  0.00  0.00     0.030 H 
ATOM     30  H24 4Q0 d   1      -9.735  -3.359  15.966  0.00  0.00     0.030 H 
ATOM     31  H25 4Q0 d   1      -8.332  -3.886  14.976  0.00  0.00     0.030 H 
ENDBRANCH  22  28
ENDBRANCH  21  22
ENDBRANCH  14  21
ENDBRANCH   4   7
ENDBRANCH   1   4
BRANCH   1  32
ATOM     32  C6  4Q0 d   1      -3.712  -5.312  23.004  0.00  0.00     0.116 A 
ATOM     33  N   4Q0 d   1      -2.511  -4.901  22.736  0.00  0.00    -0.234 NA
ATOM     34  C3  4Q0 d   1      -1.516  -5.072  23.701  0.00  0.00     0.074 A 
ATOM     35  C2  4Q0 d   1      -0.232  -4.642  23.419  0.00  0.00    -0.054 A 
ATOM     36  C4  4Q0 d   1      -1.779  -5.646  24.935  0.00  0.00     0.061 A 
ATOM     37  C1  4Q0 d   1       0.767  -4.788  24.367  0.00  0.00    -0.081 A 
ATOM     38  H1  4Q0 d   1      -0.008  -4.192  22.459  0.00  0.00     0.087 H 
ATOM     39  C   4Q0 d   1       0.503  -5.372  25.590  0.00  0.00    -0.082 A 
ATOM     40  H14 4Q0 d   1       1.769  -4.439  24.146  0.00  0.00     0.083 H 
ATOM     41  C5  4Q0 d   1      -0.776  -5.807  25.877  0.00  0.00    -0.065 A 
ATOM     42  H13 4Q0 d   1       1.295  -5.488  26.321  0.00  0.00     0.083 H 
ATOM     43  H2  4Q0 d   1      -0.994  -6.271  26.832  0.00  0.00     0.085 H 
ATOM     44  C8  4Q0 d   1      -3.159  -6.100  25.240  0.00  0.00     0.266 A 
ATOM     45  O   4Q0 d   1      -3.399  -6.612  26.335  0.00  0.00    -0.267 OA
ATOM     46  N7  4Q0 d   1      -4.085  -5.904  24.211  0.00  0.00    -0.265 N 
BRANCH  46  47
ATOM     47  C9  4Q0 d   1      -5.325  -6.552  24.384  0.00  0.00     0.044 A 
ATOM     48  C12 4Q0 d   1      -6.399  -5.837  24.890  0.00  0.00    -0.054 A 
ATOM     49  C13 4Q0 d   1      -7.612  -6.471  25.099  0.00  0.00    -0.049 A 
ATOM     50  H7  4Q0 d   1      -6.290  -4.784  25.122  0.00  0.00     0.087 H 
ATOM     51  C14 4Q0 d   1      -7.730  -7.831  24.825  0.00  0.00     0.068 A 
ATOM     52  H8  4Q0 d   1      -8.463  -5.913  25.473  0.00  0.00     0.087 H 
ATOM     53  C15 4Q0 d   1      -6.651  -8.544  24.319  0.00  0.00    -0.049 A 
ATOM     54  C16 4Q0 d   1      -5.444  -7.906  24.094  0.00  0.00    -0.054 A 
ATOM     55  H9  4Q0 d   1      -6.754  -9.601  24.100  0.00  0.00     0.087 H 
ATOM     56  H15 4Q0 d   1      -4.600  -8.457  23.695  0.00  0.00     0.087 H 
BRANCH  51  57
ATOM     57  O17 4Q0 d   1      -8.913  -8.545  25.016  0.00  0.00    -0.356 OA
BRANCH  57  58
ATOM     58  C18 4Q0 d   1      -9.762  -7.878  25.944  0.00  0.00     0.010 C 
ATOM     59  H10 4Q0 d   1     -10.687  -8.459  26.078  0.00  0.00     0.066 H 
ATOM     60  H11 4Q0 d   1     -10.010  -6.877  25.561  0.00  0.00     0.066 H 
ATOM     61  H12 4Q0 d   1      -9.246  -7.783  26.910  0.00  0.00     0.066 H 
ENDBRANCH  57  58
ENDBRANCH  51  57
ENDBRANCH  46  47
ENDBRANCH   1  32
TORSDOF 10
