REMARK  8 active torsions:
REMARK  status: ('A' for Active; 'I' for Inactive)
REMARK    1  A    between atoms: C1_1  and  C2_4 
REMARK       I    between atoms: C2_4  and  N2_6 
REMARK    2  A    between atoms: N2_6  and  C3_7 
REMARK    3  A    between atoms: C3_7  and  C4_8 
REMARK    4  A    between atoms: C3_7  and  C5_10 
REMARK    5  A    between atoms: C4_8  and  O4_9 
REMARK    6  A    between atoms: C5_10  and  O5_11 
REMARK    7  A    between atoms: C5_10  and  C6_12 
REMARK    8  A    between atoms: C9_15  and  N9_16 
ROOT
ATOM      1  C5  CLM d   1     -18.838  14.774  24.326  0.00  0.00     0.082 C 
ATOM      2  H7  CLM d   1     -19.713  15.437  24.394  0.00  0.00     0.093 H 
ENDROOT
BRANCH   1   3
ATOM      3  C3  CLM d   1     -18.984  13.637  25.339  0.00  0.00     0.061 C 
ATOM      4  H3  CLM d   1     -18.244  13.776  26.141  0.00  0.00     0.080 H 
BRANCH   3   5
ATOM      5  N2  CLM d   1     -18.784  12.338  24.719  0.00  0.00    -0.349 N 
ATOM      6  C2  CLM d   1     -17.758  11.469  25.195  0.00  0.00     0.251 C 
ATOM      7  O2  CLM d   1     -17.047  11.810  26.107  0.00  0.00    -0.271 OA
ATOM      8  H2  CLM d   1     -19.366  12.053  23.958  0.00  0.00     0.163 HD
BRANCH   6   9
ATOM      9  C1  CLM d   1     -17.568  10.089  24.544  0.00  0.00     0.165 C 
ATOM     10 CL1  CLM d   1     -18.610   9.919  23.136  0.00  0.00    -0.098 Cl
ATOM     11 CL2  CLM d   1     -15.874   9.758  24.182  0.00  0.00    -0.098 Cl
ATOM     12  H1  CLM d   1     -17.890   9.335  25.278  0.00  0.00     0.104 H 
ENDBRANCH   6   9
ENDBRANCH   3   5
BRANCH   3  13
ATOM     13  C4  CLM d   1     -20.348  13.653  25.908  0.00  0.00     0.038 C 
ATOM     14  H4  CLM d   1     -20.620  14.680  26.193  0.00  0.00     0.077 H 
ATOM     15  H5  CLM d   1     -20.389  13.003  26.795  0.00  0.00     0.077 H 
BRANCH  13  16
ATOM     16  O4  CLM d   1     -21.249  13.175  24.922  0.00  0.00    -0.399 OA
ATOM     17  H6  CLM d   1     -21.208  13.738  24.158  0.00  0.00     0.209 HD
ENDBRANCH  13  16
ENDBRANCH   3  13
ENDBRANCH   1   3
BRANCH   1  18
ATOM     18  O5  CLM d   1     -18.759  14.248  23.016  0.00  0.00    -0.389 OA
ATOM     19  H8  CLM d   1     -19.550  13.758  22.825  0.00  0.00     0.210 HD
ENDBRANCH   1  18
BRANCH   1  20
ATOM     20  C6  CLM d   1     -17.590  15.561  24.654  0.00  0.00    -0.028 A 
ATOM     21  C7  CLM d   1     -16.635  15.785  23.699  0.00  0.00    -0.072 A 
ATOM     22  C8  CLM d   1     -15.481  16.519  24.027  0.00  0.00    -0.050 A 
ATOM     23  H9  CLM d   1     -16.768  15.399  22.695  0.00  0.00     0.084 H 
ATOM     24  C9  CLM d   1     -15.309  17.031  25.362  0.00  0.00     0.102 A 
ATOM     25  H10 CLM d   1     -14.721  16.699  23.275  0.00  0.00     0.087 H 
ATOM     26  C10 CLM d   1     -16.271  16.800  26.319  0.00  0.00    -0.050 A 
ATOM     27  C11 CLM d   1     -17.410  16.075  25.995  0.00  0.00    -0.072 A 
ATOM     28  H11 CLM d   1     -16.140  17.184  27.324  0.00  0.00     0.087 H 
ATOM     29  H12 CLM d   1     -18.167  15.893  26.749  0.00  0.00     0.084 H 
BRANCH  24  30
ATOM     30  N9  CLM d   1     -14.183  17.746  25.689  0.00  0.00    -0.116 N 
ATOM     31  O9A CLM d   1     -13.892  17.988  26.996  0.00  0.00    -0.532 OA
ATOM     32  O9B CLM d   1     -13.363  18.213  24.710  0.00  0.00    -0.532 OA
ENDBRANCH  24  30
ENDBRANCH   1  20
TORSDOF 8
