REMARK  1 active torsions:
REMARK  status: ('A' for Active; 'I' for Inactive)
REMARK    1  A    between atoms: C4_2  and  N4_6 
ROOT
ATOM      1  N3  CYT d   1     -17.296  14.739  -3.192  0.00  0.00    -0.296 N 
ATOM      2  C4  CYT d   1     -17.330  14.997  -1.878  0.00  0.00     0.083 A 
ATOM      3  N1  CYT d   1     -15.042  15.425  -3.296  0.00  0.00    -0.210 NA
ATOM      4  C2  CYT d   1     -16.163  14.952  -3.888  0.00  0.00     0.346 A 
ATOM      5  O2  CYT d   1     -16.132  14.714  -5.110  0.00  0.00    -0.245 OA
ATOM      6  C5  CYT d   1     -16.187  15.469  -1.263  0.00  0.00     0.018 A 
ATOM      7  C6  CYT d   1     -15.034  15.689  -1.987  0.00  0.00    -0.006 A 
ATOM      8  H1  CYT d   1     -18.110  14.389  -3.655  0.00  0.00     0.172 HD
ATOM      9  H4  CYT d   1     -15.930  14.742  -0.478  0.00  0.00     0.052 H 
ATOM     10  H5  CYT d   1     -16.454  16.430  -0.800  0.00  0.00     0.052 H 
ATOM     11  H6  CYT d   1     -14.136  16.070  -1.502  0.00  0.00     0.108 H 
ENDROOT
BRANCH   2  12
ATOM     12  N4  CYT d   1     -18.434  14.801  -1.116  0.00  0.00    -0.389 N 
ATOM     13  H2  CYT d   1     -18.409  15.015  -0.109  0.00  0.00     0.157 HD
ATOM     14  H3  CYT d   1     -19.298  14.438  -1.544  0.00  0.00     0.157 HD
ENDBRANCH   2  12
TORSDOF 1
