REMARK  6 active torsions:
REMARK  status: ('A' for Active; 'I' for Inactive)
REMARK    1  A    between atoms: N_1  and  CA_2 
REMARK    2  A    between atoms: CA_2  and  C_3 
REMARK    3  A    between atoms: CA_2  and  CB_5 
REMARK    4  A    between atoms: CB_5  and  CG_6 
REMARK    5  A    between atoms: CG_6  and  CD_7 
REMARK    6  A    between atoms: CD_7  and  NE_8 
REMARK       I    between atoms: NE_8  and  CZ_9 
REMARK       I    between atoms: CZ_9  and  NH1_10 
ROOT
ATOM      1  CG  ARG d   1       2.319 -21.459  12.186  0.00  0.00    -0.047 C 
ATOM      2  H7  ARG d   1       3.232 -21.092  12.678  0.00  0.00     0.035 H 
ATOM      3  H8  ARG d   1       1.664 -21.930  12.934  0.00  0.00     0.035 H 
ENDROOT
BRANCH   1   4
ATOM      4  CB  ARG d   1       2.711 -22.514  11.135  0.00  0.00    -0.028 C 
ATOM      5  H5  ARG d   1       1.799 -23.027  10.797  0.00  0.00     0.036 H 
ATOM      6  H6  ARG d   1       3.181 -22.001  10.283  0.00  0.00     0.036 H 
BRANCH   4   7
ATOM      7  CA  ARG d   1       3.668 -23.540  11.661  0.00  0.00     0.182 C 
ATOM      8  H4  ARG d   1       3.813 -24.313  10.892  0.00  0.00     0.101 H 
BRANCH   7   9
ATOM      9  N   ARG d   1       3.182 -24.210  12.919  0.00  0.00    -0.065 N 
ATOM     10  H1  ARG d   1       2.304 -24.671  12.737  0.00  0.00     0.275 HD
ATOM     11  H2  ARG d   1       3.055 -23.518  13.641  0.00  0.00     0.275 HD
ATOM     12  H3  ARG d   1       3.862 -24.890  13.222  0.00  0.00     0.275 HD
ENDBRANCH   7   9
BRANCH   7  13
ATOM     13  C   ARG d   1       4.961 -22.860  11.924  0.00  0.00     0.204 C 
ATOM     14  O   ARG d   1       5.671 -22.453  10.928  0.00  0.00    -0.646 OA
ATOM     15  OXT ARG d   1       5.375 -22.700  13.093  0.00  0.00    -0.646 OA
ENDBRANCH   7  13
ENDBRANCH   4   7
ENDBRANCH   1   4
BRANCH   1  16
ATOM     16  CD  ARG d   1       1.589 -20.280  11.569  0.00  0.00     0.009 C 
ATOM     17  H9  ARG d   1       0.838 -20.660  10.861  0.00  0.00     0.064 H 
ATOM     18  H10 ARG d   1       2.317 -19.656  11.031  0.00  0.00     0.064 H 
BRANCH  16  19
ATOM     19  NE  ARG d   1       0.919 -19.462  12.565  0.00  0.00    -0.227 N 
ATOM     20  CZ  ARG d   1       0.181 -18.394  12.315  0.00  0.00     0.665 C 
ATOM     21  NH1 ARG d   1      -0.412 -17.752  13.300  0.00  0.00    -0.235 N 
ATOM     22  NH2 ARG d   1      -0.020 -18.058  11.064  0.00  0.00    -0.235 N 
ATOM     23  H12 ARG d   1      -0.986 -16.920  13.101  0.00  0.00     0.174 HD
ATOM     24  H13 ARG d   1      -0.302 -18.081  14.270  0.00  0.00     0.174 HD
ATOM     25  H14 ARG d   1       0.455 -18.574  10.309  0.00  0.00     0.174 HD
ATOM     26  H15 ARG d   1      -0.652 -17.278  10.835  0.00  0.00     0.174 HD
ATOM     27  H11 ARG d   1       1.028 -19.738  13.551  0.00  0.00     0.177 HD
ENDBRANCH  16  19
ENDBRANCH   1  16
TORSDOF 6
