REMARK  5 active torsions:
REMARK  status: ('A' for Active; 'I' for Inactive)
REMARK    1  A    between atoms: N_1  and  CA_2 
REMARK    2  A    between atoms: CA_2  and  C_3 
REMARK    3  A    between atoms: CA_2  and  CB_5 
REMARK    4  A    between atoms: CB_5  and  CG_6 
REMARK    5  A    between atoms: CG_6  and  CD_7 
REMARK       I    between atoms: CD_7  and  NE2_9 
ROOT
ATOM      1  CB  GLN d   1       3.432   7.119  11.402  0.00  0.00    -0.021 C 
ATOM      2  H5  GLN d   1       2.481   6.568  11.365  0.00  0.00     0.037 H 
ATOM      3  H6  GLN d   1       3.761   7.351  10.379  0.00  0.00     0.037 H 
ENDROOT
BRANCH   1   4
ATOM      4  CA  GLN d   1       4.494   6.220  12.066  0.00  0.00     0.183 C 
ATOM      5  H4  GLN d   1       4.728   5.406  11.364  0.00  0.00     0.101 H 
BRANCH   4   6
ATOM      6  N   GLN d   1       3.907   5.617  13.318  0.00  0.00    -0.065 N 
ATOM      7  H1  GLN d   1       3.043   5.150  13.093  0.00  0.00     0.275 HD
ATOM      8  H2  GLN d   1       3.729   6.346  13.991  0.00  0.00     0.275 HD
ATOM      9  H3  GLN d   1       4.557   4.952  13.707  0.00  0.00     0.275 HD
ENDBRANCH   4   6
BRANCH   4  10
ATOM     10  C   GLN d   1       5.823   6.941  12.397  0.00  0.00     0.204 C 
ATOM     11  O   GLN d   1       6.444   7.267  11.392  0.00  0.00    -0.646 OA
ATOM     12  OXT GLN d   1       6.076   7.179  13.579  0.00  0.00    -0.646 OA
ENDBRANCH   4  10
ENDBRANCH   1   4
BRANCH   1  13
ATOM     13  CG  GLN d   1       3.202   8.437  12.151  0.00  0.00     0.011 C 
ATOM     14  H7  GLN d   1       4.180   8.916  12.308  0.00  0.00     0.047 H 
ATOM     15  H8  GLN d   1       2.748   8.202  13.125  0.00  0.00     0.047 H 
BRANCH  13  16
ATOM     16  CD  GLN d   1       2.318   9.410  11.452  0.00  0.00     0.215 C 
ATOM     17  OE1 GLN d   1       2.250   9.385  10.229  0.00  0.00    -0.274 OA
ATOM     18  NE2 GLN d   1       1.737  10.343  12.202  0.00  0.00    -0.370 N 
ATOM     19  H9  GLN d   1       1.134  11.020  11.780  0.00  0.00     0.159 HD
ATOM     20  H10 GLN d   1       1.903  10.367  13.188  0.00  0.00     0.159 HD
ENDBRANCH  13  16
ENDBRANCH   1  13
TORSDOF 5
