REMARK  5 active torsions:
REMARK  status: ('A' for Active; 'I' for Inactive)
REMARK    1  A    between atoms: C2_1  and  C17_7 
REMARK       I    between atoms: N3_12  and  C2_1 
REMARK    2  A    between atoms: C4_2  and  N3_12 
REMARK    3  A    between atoms: C7_5  and  C10_14 
REMARK       I    between atoms: C10_14  and  N12_16 
REMARK    4  A    between atoms: N12_16  and  C13_17 
REMARK    5  A    between atoms: C13_17  and  C14_18 
ROOT
ATOM      1  C4  4S4 d   1     -12.411  20.035  22.219  0.00  0.00     0.035 A 
ATOM      2  C5  4S4 d   1     -12.727  20.150  23.582  0.00  0.00    -0.056 A 
ATOM      3  C6  4S4 d   1     -12.132  21.129  24.360  0.00  0.00    -0.066 A 
ATOM      4  C7  4S4 d   1     -11.221  22.035  23.789  0.00  0.00     0.032 A 
ATOM      5  C8  4S4 d   1     -10.919  21.932  22.423  0.00  0.00    -0.066 A 
ATOM      6  C9  4S4 d   1     -11.515  20.951  21.653  0.00  0.00    -0.056 A 
ATOM      7  H1  4S4 d   1     -13.441  19.468  24.028  0.00  0.00     0.086 H 
ATOM      8  H2  4S4 d   1     -12.370  21.197  25.415  0.00  0.00     0.085 H 
ATOM      9  H3  4S4 d   1     -10.217  22.623  21.971  0.00  0.00     0.085 H 
ATOM     10  H6  4S4 d   1     -11.286  20.890  20.595  0.00  0.00     0.086 H 
ENDROOT
BRANCH   1  11
ATOM     11  N3  4S4 d   1     -12.994  19.089  21.363  0.00  0.00    -0.322 N 
ATOM     12  C2  4S4 d   1     -13.329  17.800  21.654  0.00  0.00     0.272 C 
ATOM     13  O1  4S4 d   1     -13.154  17.297  22.749  0.00  0.00    -0.266 OA
ATOM     14  H5  4S4 d   1     -13.186  19.396  20.431  0.00  0.00     0.169 HD
BRANCH  12  15
ATOM     15  C17 4S4 d   1     -13.954  16.974  20.610  0.00  0.00     0.103 A 
ATOM     16  C18 4S4 d   1     -13.851  17.125  19.245  0.00  0.00    -0.032 A 
ATOM     17  C19 4S4 d   1     -14.620  16.128  18.644  0.00  0.00     0.047 A 
ATOM     18  H4  4S4 d   1     -13.272  17.888  18.727  0.00  0.00     0.089 H 
ATOM     19  C21 4S4 d   1     -15.194  15.389  19.637  0.00  0.00     0.098 A 
ATOM     20 BR1  4S4 d   1     -14.776  15.933  16.768  0.00  0.00    -0.048 Br
ATOM     21 BR2  4S4 d   1     -16.360  13.897  19.483  0.00  0.00    -0.030 Br
ATOM     22  N23 4S4 d   1     -14.789  15.902  20.826  0.00  0.00    -0.345 N 
ATOM     23  H10 4S4 d   1     -15.065  15.543  21.751  0.00  0.00     0.167 HD
ENDBRANCH  12  15
ENDBRANCH   1  11
BRANCH   4  24
ATOM     24  C10 4S4 d   1     -10.590  23.082  24.619  0.00  0.00     0.252 C 
ATOM     25  O11 4S4 d   1     -10.151  22.786  25.711  0.00  0.00    -0.268 OA
ATOM     26  N12 4S4 d   1     -10.504  24.357  24.175  0.00  0.00    -0.347 N 
ATOM     27  H7  4S4 d   1     -10.866  24.588  23.272  0.00  0.00     0.163 HD
BRANCH  26  28
ATOM     28  C13 4S4 d   1      -9.886  25.412  24.998  0.00  0.00     0.075 C 
ATOM     29  H8  4S4 d   1      -8.949  25.029  25.429  0.00  0.00     0.080 H 
ATOM     30  H9  4S4 d   1     -10.577  25.686  25.809  0.00  0.00     0.080 H 
BRANCH  28  31
ATOM     31  C14 4S4 d   1      -9.583  26.640  24.173  0.00  0.00     0.191 C 
ATOM     32  O15 4S4 d   1      -8.915  27.527  24.650  0.00  0.00    -0.647 OA
ATOM     33  O16 4S4 d   1     -10.047  26.759  22.917  0.00  0.00    -0.647 OA
ENDBRANCH  28  31
ENDBRANCH  26  28
ENDBRANCH   4  24
TORSDOF 5
