REMARK  10 active torsions:
REMARK  status: ('A' for Active; 'I' for Inactive)
REMARK    1  A    between atoms: C13_11  and  C14_2 
REMARK    2  A    between atoms: C11_5  and  C10_9 
REMARK    3  A    between atoms: N1_12  and  C11_5 
REMARK    4  A    between atoms: C11_5  and  C17_21 
REMARK    5  A    between atoms: C7_6  and  C1_15 
REMARK       I    between atoms: C12_10  and  N1_12 
REMARK    6  A    between atoms: O1_17  and  C12_10 
REMARK    7  A    between atoms: C13_11  and  O1_17 
REMARK    8  A    between atoms: C13_11  and  C15_18 
REMARK    9  A    between atoms: C13_11  and  C16_19 
REMARK       I    between atoms: C17_21  and  N2_13 
REMARK   10  A    between atoms: N2_13  and  O4_23 
ROOT
ATOM      1  C11 4SA d   1      14.267  10.509  12.394  0.00  0.00     0.119 C 
ATOM      2  H7  4SA d   1      14.251   9.412  12.316  0.00  0.00     0.095 H 
ENDROOT
BRANCH   1   3
ATOM      3  C10 4SA d   1      13.808  10.900  13.776  0.00  0.00    -0.026 A 
ATOM      4  C9  4SA d   1      13.624  12.233  14.112  0.00  0.00    -0.074 A 
ATOM      5  C8  4SA d   1      13.241  12.559  15.409  0.00  0.00    -0.072 A 
ATOM      6  H9  4SA d   1      13.777  13.011  13.373  0.00  0.00     0.084 H 
ATOM      7  C7  4SA d   1      13.050  11.545  16.340  0.00  0.00    -0.026 A 
ATOM      8  H8  4SA d   1      13.093  13.595  15.691  0.00  0.00     0.084 H 
ATOM      9  C19 4SA d   1      13.245  10.218  16.012  0.00  0.00    -0.072 A 
ATOM     10  C18 4SA d   1      13.631   9.895  14.719  0.00  0.00    -0.074 A 
ATOM     11  H22 4SA d   1      13.099   9.441  16.753  0.00  0.00     0.084 H 
ATOM     12  H21 4SA d   1      13.794   8.859  14.445  0.00  0.00     0.084 H 
BRANCH   7  13
ATOM     13  C1  4SA d   1      12.688  11.871  17.756  0.00  0.00    -0.026 A 
ATOM     14  C6  4SA d   1      13.514  12.787  18.412  0.00  0.00    -0.072 A 
ATOM     15  C5  4SA d   1      13.270  13.116  19.734  0.00  0.00    -0.082 A 
ATOM     16  H6  4SA d   1      14.346  13.240  17.886  0.00  0.00     0.084 H 
ATOM     17  C4  4SA d   1      12.206  12.514  20.392  0.00  0.00    -0.083 A 
ATOM     18  H5  4SA d   1      13.900  13.833  20.248  0.00  0.00     0.083 H 
ATOM     19  C3  4SA d   1      11.399  11.591  19.738  0.00  0.00    -0.082 A 
ATOM     20  H1  4SA d   1      12.003  12.767  21.426  0.00  0.00     0.083 H 
ATOM     21  C2  4SA d   1      11.642  11.255  18.411  0.00  0.00    -0.072 A 
ATOM     22  H12 4SA d   1      10.573  11.129  20.267  0.00  0.00     0.083 H 
ATOM     23  H13 4SA d   1      11.023  10.525  17.902  0.00  0.00     0.084 H 
ENDBRANCH   7  13
ENDBRANCH   1   3
BRANCH   1  24
ATOM     24  N1  4SA d   1      15.610  10.992  12.252  0.00  0.00    -0.319 N 
ATOM     25  C12 4SA d   1      16.499  10.322  11.487  0.00  0.00     0.362 C 
ATOM     26  O2  4SA d   1      17.583  10.850  11.262  0.00  0.00    -0.238 OA
ATOM     27  H10 4SA d   1      15.890  11.829  12.722  0.00  0.00     0.166 HD
BRANCH  25  28
ATOM     28  O1  4SA d   1      15.962   9.388  10.578  0.00  0.00    -0.294 OA
BRANCH  28  29
ATOM     29  C13 4SA d   1      16.673   8.929   9.439  0.00  0.00     0.061 C 
BRANCH  29  30
ATOM     30  C14 4SA d   1      17.978   8.260   9.836  0.00  0.00    -0.048 C 
ATOM     31  H2  4SA d   1      18.503   7.917   8.933  0.00  0.00     0.031 H 
ATOM     32  H3  4SA d   1      17.765   7.399  10.486  0.00  0.00     0.031 H 
ATOM     33  H4  4SA d   1      18.610   8.980  10.376  0.00  0.00     0.031 H 
ENDBRANCH  29  30
BRANCH  29  34
ATOM     34  C15 4SA d   1      15.773   7.892   8.801  0.00  0.00    -0.048 C 
ATOM     35  H14 4SA d   1      14.823   8.362   8.508  0.00  0.00     0.031 H 
ATOM     36  H15 4SA d   1      15.576   7.085   9.521  0.00  0.00     0.031 H 
ATOM     37  H16 4SA d   1      16.267   7.476   7.910  0.00  0.00     0.031 H 
ENDBRANCH  29  34
BRANCH  29  38
ATOM     38  C16 4SA d   1      16.916  10.030   8.422  0.00  0.00    -0.048 C 
ATOM     39  H17 4SA d   1      15.958  10.497   8.152  0.00  0.00     0.031 H 
ATOM     40  H18 4SA d   1      17.382   9.602   7.522  0.00  0.00     0.031 H 
ATOM     41  H19 4SA d   1      17.584  10.789   8.855  0.00  0.00     0.031 H 
ENDBRANCH  29  38
ENDBRANCH  28  29
ENDBRANCH  25  28
ENDBRANCH   1  24
BRANCH   1  42
ATOM     42  C17 4SA d   1      13.443  11.077  11.267  0.00  0.00     0.268 C 
ATOM     43  N2  4SA d   1      13.810  12.235  10.706  0.00  0.00    -0.235 N 
ATOM     44  H11 4SA d   1      14.613  12.726  11.044  0.00  0.00     0.197 HD
ATOM     45  O3  4SA d   1      12.483  10.443  10.838  0.00  0.00    -0.269 OA
BRANCH  43  46
ATOM     46  O4  4SA d   1      13.030  12.779   9.595  0.00  0.00    -0.287 OA
ATOM     47  H20 4SA d   1      13.416  13.599   9.310  0.00  0.00     0.244 HD
ENDBRANCH  43  46
ENDBRANCH   1  42
TORSDOF 10
