REMARK  11 active torsions:
REMARK  status: ('A' for Active; 'I' for Inactive)
REMARK    1  A    between atoms: CA_21  and  CAV_1 
REMARK    2  A    between atoms: CAT_6  and  CAU_7 
REMARK    3  A    between atoms: NAX_11  and  CAA_12 
REMARK    4  A    between atoms: CAY_14  and  CAD_13 
REMARK    5  A    between atoms: CAY_14  and  CAB_15 
REMARK    6  A    between atoms: CAY_14  and  CAC_16 
REMARK    7  A    between atoms: OAQ_17  and  CAY_14 
REMARK    8  A    between atoms: CAR_18  and  OAQ_17 
REMARK       I    between atoms: N_20  and  CAR_18 
REMARK    9  A    between atoms: N_20  and  CA_21 
REMARK   10  A    between atoms: CA_21  and  C_22 
REMARK       I    between atoms: C_22  and  NAO_24 
REMARK   11  A    between atoms: NAO_24  and  OAG_25 
ROOT
ATOM      1  CA  4SY d   1      89.163 119.826 130.844  0.00  0.00     0.119 C 
ATOM      2  H20 4SY d   1      89.156 118.737 130.688  0.00  0.00     0.095 H 
ENDROOT
BRANCH   1   3
ATOM      3  CAV 4SY d   1      88.670 120.117 132.239  0.00  0.00    -0.026 A 
ATOM      4  CAK 4SY d   1      88.352 121.420 132.617  0.00  0.00    -0.074 A 
ATOM      5  CAI 4SY d   1      87.911 121.649 133.915  0.00  0.00    -0.072 A 
ATOM      6  H1  4SY d   1      88.447 122.239 131.913  0.00  0.00     0.084 H 
ATOM      7  CAT 4SY d   1      87.801 120.584 134.803  0.00  0.00    -0.023 A 
ATOM      8  H2  4SY d   1      87.654 122.653 134.234  0.00  0.00     0.084 H 
ATOM      9  CAH 4SY d   1      88.149 119.286 134.433  0.00  0.00    -0.072 A 
ATOM     10  CAJ 4SY d   1      88.584 119.056 133.136  0.00  0.00    -0.074 A 
ATOM     11  H4  4SY d   1      88.081 118.472 135.145  0.00  0.00     0.084 H 
ATOM     12  H3  4SY d   1      88.856 118.055 132.822  0.00  0.00     0.084 H 
BRANCH   7  13
ATOM     13  CAU 4SY d   1      87.357 120.864 136.243  0.00  0.00     0.010 A 
ATOM     14  CAM 4SY d   1      88.007 121.789 137.065  0.00  0.00     0.010 A 
ATOM     15  NAX 4SY d   1      87.365 121.787 138.290  0.00  0.00    -0.285 N 
ATOM     16  H5  4SY d   1      88.865 122.401 136.790  0.00  0.00     0.115 H 
ATOM     17  NAN 4SY d   1      86.336 120.863 138.236  0.00  0.00    -0.185 NA
ATOM     18  CAL 4SY d   1      86.323 120.279 136.973  0.00  0.00     0.034 A 
ATOM     19  H6  4SY d   1      85.636 119.511 136.621  0.00  0.00     0.118 H 
BRANCH  15  20
ATOM     20  CAA 4SY d   1      87.742 122.625 139.432  0.00  0.00     0.002 C 
ATOM     21  H7  4SY d   1      87.066 122.422 140.275  0.00  0.00     0.059 H 
ATOM     22  H8  4SY d   1      87.667 123.685 139.149  0.00  0.00     0.059 H 
ATOM     23  H9  4SY d   1      88.776 122.397 139.729  0.00  0.00     0.059 H 
ENDBRANCH  15  20
ENDBRANCH   7  13
ENDBRANCH   1   3
BRANCH   1  24
ATOM     24  N   4SY d   1      90.520 120.304 130.756  0.00  0.00    -0.319 N 
ATOM     25  CAR 4SY d   1      91.401 119.729 129.916  0.00  0.00     0.362 C 
ATOM     26  OAE 4SY d   1      92.480 120.287 129.682  0.00  0.00    -0.238 OA
ATOM     27  H19 4SY d   1      90.811 121.072 131.326  0.00  0.00     0.166 HD
BRANCH  25  28
ATOM     28  OAQ 4SY d   1      90.872 118.748 129.030  0.00  0.00    -0.294 OA
BRANCH  28  29
ATOM     29  CAY 4SY d   1      91.638 118.267 127.876  0.00  0.00     0.061 C 
BRANCH  29  30
ATOM     30  CAD 4SY d   1      90.769 117.139 127.242  0.00  0.00    -0.048 C 
ATOM     31  H10 4SY d   1      91.286 116.728 126.363  0.00  0.00     0.031 H 
ATOM     32  H11 4SY d   1      89.797 117.553 126.935  0.00  0.00     0.031 H 
ATOM     33  H12 4SY d   1      90.610 116.340 127.981  0.00  0.00     0.031 H 
ENDBRANCH  29  30
BRANCH  29  34
ATOM     34  CAB 4SY d   1      91.837 119.330 126.852  0.00  0.00    -0.048 C 
ATOM     35  H13 4SY d   1      92.449 120.139 127.278  0.00  0.00     0.031 H 
ATOM     36  H14 4SY d   1      90.860 119.732 126.546  0.00  0.00     0.031 H 
ATOM     37  H15 4SY d   1      92.349 118.904 125.976  0.00  0.00     0.031 H 
ENDBRANCH  29  34
BRANCH  29  38
ATOM     38  CAC 4SY d   1      93.027 117.667 128.315  0.00  0.00    -0.048 C 
ATOM     39  H16 4SY d   1      92.866 116.884 129.071  0.00  0.00     0.031 H 
ATOM     40  H17 4SY d   1      93.653 118.465 128.742  0.00  0.00     0.031 H 
ATOM     41  H18 4SY d   1      93.532 117.233 127.439  0.00  0.00     0.031 H 
ENDBRANCH  29  38
ENDBRANCH  28  29
ENDBRANCH  25  28
ENDBRANCH   1  24
BRANCH   1  42
ATOM     42  C   4SY d   1      88.298 120.454 129.783  0.00  0.00     0.268 C 
ATOM     43  O   4SY d   1      87.221 119.945 129.463  0.00  0.00    -0.269 OA
ATOM     44  NAO 4SY d   1      88.713 121.564 129.169  0.00  0.00    -0.235 N 
ATOM     45  H21 4SY d   1      89.588 121.983 129.410  0.00  0.00     0.197 HD
BRANCH  44  46
ATOM     46  OAG 4SY d   1      87.870 122.149 128.147  0.00  0.00    -0.287 OA
ATOM     47  H22 4SY d   1      88.289 122.928 127.800  0.00  0.00     0.244 HD
ENDBRANCH  44  46
ENDBRANCH   1  42
TORSDOF 11
