REMARK  10 active torsions:
REMARK  status: ('A' for Active; 'I' for Inactive)
REMARK    1  A    between atoms: CAA_1  and  CBB_2 
REMARK    2  A    between atoms: CBB_2  and  CAB_3 
REMARK    3  A    between atoms: CBB_2  and  CAC_4 
REMARK    4  A    between atoms: CBB_2  and  OAR_5 
REMARK    5  A    between atoms: OAR_5  and  CAS_6 
REMARK       I    between atoms: CAS_6  and  N_8 
REMARK    6  A    between atoms: N_8  and  CA_9 
REMARK    7  A    between atoms: CA_9  and  C_10 
REMARK    8  A    between atoms: CA_9  and  CAY_14 
REMARK       I    between atoms: C_10  and  NAP_12 
REMARK    9  A    between atoms: NAP_12  and  OAF_13 
REMARK   10  A    between atoms: CAW_19  and  CAX_20 
ROOT
ATOM      1  CA  4SZ d   1      89.393 119.593 130.697  0.00  0.00     0.119 C 
ATOM      2  H11 4SZ d   1      89.378 118.493 130.669  0.00  0.00     0.095 H 
ENDROOT
BRANCH   1   3
ATOM      3  N   4SZ d   1      90.764 120.077 130.485  0.00  0.00    -0.319 N 
ATOM      4  CAS 4SZ d   1      91.593 119.541 129.571  0.00  0.00     0.362 C 
ATOM      5  OAD 4SZ d   1      92.717 120.016 129.436  0.00  0.00    -0.238 OA
ATOM      6  H10 4SZ d   1      91.095 120.837 131.044  0.00  0.00     0.166 HD
BRANCH   4   7
ATOM      7  OAR 4SZ d   1      91.156 118.468 128.831  0.00  0.00    -0.294 OA
BRANCH   7   8
ATOM      8  CBB 4SZ d   1      91.868 117.991 127.666  0.00  0.00     0.061 C 
BRANCH   8   9
ATOM      9  CAA 4SZ d   1      93.230 117.397 128.086  0.00  0.00    -0.048 C 
ATOM     10  H1  4SZ d   1      93.764 117.037 127.194  0.00  0.00     0.031 H 
ATOM     11  H2  4SZ d   1      93.066 116.558 128.779  0.00  0.00     0.031 H 
ATOM     12  H3  4SZ d   1      93.830 118.172 128.584  0.00  0.00     0.031 H 
ENDBRANCH   8   9
BRANCH   8  13
ATOM     13  CAB 4SZ d   1      90.983 116.890 127.068  0.00  0.00    -0.048 C 
ATOM     14  H4  4SZ d   1      90.015 117.319 126.771  0.00  0.00     0.031 H 
ATOM     15  H5  4SZ d   1      90.820 116.102 127.818  0.00  0.00     0.031 H 
ATOM     16  H6  4SZ d   1      91.479 116.459 126.186  0.00  0.00     0.031 H 
ENDBRANCH   8  13
BRANCH   8  17
ATOM     17  CAC 4SZ d   1      92.068 119.092 126.606  0.00  0.00    -0.048 C 
ATOM     18  H7  4SZ d   1      92.702 119.890 127.021  0.00  0.00     0.031 H 
ATOM     19  H8  4SZ d   1      91.091 119.510 126.323  0.00  0.00     0.031 H 
ATOM     20  H9  4SZ d   1      92.554 118.662 125.718  0.00  0.00     0.031 H 
ENDBRANCH   8  17
ENDBRANCH   7   8
ENDBRANCH   4   7
ENDBRANCH   1   3
BRANCH   1  21
ATOM     21  C   4SZ d   1      88.505 120.123 129.572  0.00  0.00     0.268 C 
ATOM     22  O   4SZ d   1      87.529 119.484 129.196  0.00  0.00    -0.269 OA
ATOM     23  NAP 4SZ d   1      88.933 121.278 129.044  0.00  0.00    -0.235 N 
ATOM     24  H12 4SZ d   1      89.773 121.704 129.380  0.00  0.00     0.197 HD
BRANCH  23  25
ATOM     25  OAF 4SZ d   1      88.174 121.903 127.986  0.00  0.00    -0.287 OA
ATOM     26  H13 4SZ d   1      88.605 122.707 127.722  0.00  0.00     0.244 HD
ENDBRANCH  23  25
ENDBRANCH   1  21
BRANCH   1  27
ATOM     27  CAY 4SZ d   1      88.985 120.019 131.961  0.00  0.00    -0.026 A 
ATOM     28  CAM 4SZ d   1      88.828 119.039 132.931  0.00  0.00    -0.074 A 
ATOM     29  CAK 4SZ d   1      88.457 119.374 134.224  0.00  0.00    -0.072 A 
ATOM     30  H14 4SZ d   1      88.997 117.999 132.675  0.00  0.00     0.084 H 
ATOM     31  CAW 4SZ d   1      88.235 120.706 134.550  0.00  0.00    -0.026 A 
ATOM     32  H15 4SZ d   1      88.341 118.602 134.976  0.00  0.00     0.084 H 
ATOM     33  CAJ 4SZ d   1      88.428 121.714 133.595  0.00  0.00    -0.072 A 
ATOM     34  CAL 4SZ d   1      88.797 121.370 132.285  0.00  0.00    -0.074 A 
ATOM     35  H17 4SZ d   1      88.293 122.755 133.867  0.00  0.00     0.084 H 
ATOM     36  H16 4SZ d   1      88.935 122.139 131.534  0.00  0.00     0.084 H 
BRANCH  31  37
ATOM     37  CAX 4SZ d   1      87.934 120.982 135.882  0.00  0.00    -0.020 A 
ATOM     38  CAN 4SZ d   1      88.857 121.785 136.572  0.00  0.00    -0.032 A 
ATOM     39  CAU 4SZ d   1      88.664 122.075 137.919  0.00  0.00     0.158 A 
ATOM     40  H18 4SZ d   1      89.723 122.180 136.053  0.00  0.00     0.089 H 
ATOM     41  FAG 4SZ d   1      89.563 122.868 138.627  0.00  0.00    -0.203 F 
ATOM     42  CAZ 4SZ d   1      87.557 121.564 138.574  0.00  0.00     0.193 A 
ATOM     43  FAI 4SZ d   1      87.345 121.855 139.879  0.00  0.00    -0.200 F 
ATOM     44  CAV 4SZ d   1      86.650 120.760 137.900  0.00  0.00     0.158 A 
ATOM     45  FAH 4SZ d   1      85.631 120.304 138.563  0.00  0.00    -0.203 F 
ATOM     46  CAO 4SZ d   1      86.834 120.451 136.550  0.00  0.00    -0.032 A 
ATOM     47  H19 4SZ d   1      86.132 119.808 136.031  0.00  0.00     0.089 H 
ENDBRANCH  31  37
ENDBRANCH   1  27
TORSDOF 10
