REMARK  13 active torsions:
REMARK  status: ('A' for Active; 'I' for Inactive)
REMARK    1  A    between atoms: CAA_1  and  CBC_2 
REMARK    2  A    between atoms: CBC_2  and  CAB_3 
REMARK    3  A    between atoms: CBC_2  and  CAC_4 
REMARK    4  A    between atoms: CBC_2  and  OAT_5 
REMARK    5  A    between atoms: OAT_5  and  CAV_6 
REMARK       I    between atoms: CAV_6  and  N_8 
REMARK    6  A    between atoms: N_8  and  CA_9 
REMARK    7  A    between atoms: CA_9  and  C_10 
REMARK    8  A    between atoms: CA_9  and  CBA_14 
REMARK       I    between atoms: C_10  and  NAR_12 
REMARK    9  A    between atoms: NAR_12  and  OAH_13 
REMARK   10  A    between atoms: CAY_19  and  CAZ_20 
REMARK   11  A    between atoms: CAX_25  and  CAU_26 
REMARK   12  A    between atoms: CAU_26  and  NAD_27 
REMARK   13  A    between atoms: NAQ_28  and  OAG_29 
ROOT
ATOM      1  CBA 4T2 d   1      89.293 119.961 131.901  0.00  0.00    -0.026 A 
ATOM      2  CAO 4T2 d   1      89.173 121.287 132.309  0.00  0.00    -0.074 A 
ATOM      3  CAM 4T2 d   1      88.775 121.576 133.612  0.00  0.00    -0.072 A 
ATOM      4  CAN 4T2 d   1      89.026 118.932 132.794  0.00  0.00    -0.074 A 
ATOM      5  CAL 4T2 d   1      88.627 119.217 134.092  0.00  0.00    -0.072 A 
ATOM      6  CAY 4T2 d   1      88.498 120.538 134.497  0.00  0.00    -0.026 A 
ATOM      7  H14 4T2 d   1      89.389 122.091 131.615  0.00  0.00     0.084 H 
ATOM      8  H15 4T2 d   1      88.681 122.606 133.936  0.00  0.00     0.084 H 
ATOM      9  H16 4T2 d   1      89.130 117.901 132.476  0.00  0.00     0.084 H 
ATOM     10  H17 4T2 d   1      88.417 118.412 134.786  0.00  0.00     0.084 H 
ENDROOT
BRANCH   1  11
ATOM     11  CA  4T2 d   1      89.704 119.640 130.611  0.00  0.00     0.119 C 
ATOM     12  H11 4T2 d   1      89.698 118.546 130.501  0.00  0.00     0.095 H 
BRANCH  11  13
ATOM     13  N   4T2 d   1      91.070 120.139 130.410  0.00  0.00    -0.319 N 
ATOM     14  CAV 4T2 d   1      91.934 119.518 129.599  0.00  0.00     0.362 C 
ATOM     15  OAE 4T2 d   1      93.069 119.972 129.483  0.00  0.00    -0.238 OA
ATOM     16  H10 4T2 d   1      91.362 120.965 130.892  0.00  0.00     0.166 HD
BRANCH  14  17
ATOM     17  OAT 4T2 d   1      91.545 118.370 128.959  0.00  0.00    -0.294 OA
BRANCH  17  18
ATOM     18  CBC 4T2 d   1      92.067 118.062 127.649  0.00  0.00     0.061 C 
BRANCH  18  19
ATOM     19  CAA 4T2 d   1      93.503 117.533 127.748  0.00  0.00    -0.048 C 
ATOM     20  H1  4T2 d   1      93.880 117.305 126.740  0.00  0.00     0.031 H 
ATOM     21  H2  4T2 d   1      93.516 116.619 128.359  0.00  0.00     0.031 H 
ATOM     22  H3  4T2 d   1      94.143 118.296 128.215  0.00  0.00     0.031 H 
ENDBRANCH  18  19
BRANCH  18  23
ATOM     23  CAB 4T2 d   1      91.190 116.963 127.045  0.00  0.00    -0.048 C 
ATOM     24  H4  4T2 d   1      90.154 117.323 126.965  0.00  0.00     0.031 H 
ATOM     25  H5  4T2 d   1      91.220 116.073 127.691  0.00  0.00     0.031 H 
ATOM     26  H6  4T2 d   1      91.566 116.703 126.044  0.00  0.00     0.031 H 
ENDBRANCH  18  23
BRANCH  18  27
ATOM     27  CAC 4T2 d   1      92.021 119.283 126.727  0.00  0.00    -0.048 C 
ATOM     28  H7  4T2 d   1      92.647 120.084 127.147  0.00  0.00     0.031 H 
ATOM     29  H8  4T2 d   1      90.983 119.637 126.639  0.00  0.00     0.031 H 
ATOM     30  H9  4T2 d   1      92.399 119.006 125.732  0.00  0.00     0.031 H 
ENDBRANCH  18  27
ENDBRANCH  17  18
ENDBRANCH  14  17
ENDBRANCH  11  13
BRANCH  11  31
ATOM     31  C   4T2 d   1      88.786 120.240 129.550  0.00  0.00     0.268 C 
ATOM     32  O   4T2 d   1      87.736 119.684 129.238  0.00  0.00    -0.269 OA
ATOM     33  NAR 4T2 d   1      89.243 121.365 128.982  0.00  0.00    -0.235 N 
ATOM     34  H12 4T2 d   1      90.117 121.769 129.252  0.00  0.00     0.197 HD
BRANCH  33  35
ATOM     35  OAH 4T2 d   1      88.422 121.963 127.969  0.00  0.00    -0.287 OA
ATOM     36  H13 4T2 d   1      87.577 122.189 128.340  0.00  0.00     0.244 HD
ENDBRANCH  33  35
ENDBRANCH  11  31
ENDBRANCH   1  11
BRANCH   6  37
ATOM     37  CAZ 4T2 d   1      88.110 120.803 135.804  0.00  0.00    -0.025 A 
ATOM     38  CAP 4T2 d   1      88.873 121.670 136.572  0.00  0.00    -0.059 A 
ATOM     39  CAX 4T2 d   1      88.502 121.933 137.883  0.00  0.00     0.010 A 
ATOM     40  H18 4T2 d   1      89.754 122.140 136.150  0.00  0.00     0.086 H 
ATOM     41  CAJ 4T2 d   1      87.375 121.328 138.428  0.00  0.00    -0.069 A 
ATOM     42  CAI 4T2 d   1      86.617 120.453 137.661  0.00  0.00    -0.081 A 
ATOM     43  H21 4T2 d   1      87.088 121.539 139.452  0.00  0.00     0.085 H 
ATOM     44  CAK 4T2 d   1      86.989 120.188 136.348  0.00  0.00    -0.072 A 
ATOM     45  H20 4T2 d   1      85.739 119.979 138.084  0.00  0.00     0.083 H 
ATOM     46  H19 4T2 d   1      86.404 119.501 135.748  0.00  0.00     0.084 H 
BRANCH  39  47
ATOM     47  CAU 4T2 d   1      89.262 122.805 138.647  0.00  0.00     0.129 C 
ATOM     48  NAQ 4T2 d   1      90.592 122.646 138.655  0.00  0.00    -0.253 N 
ATOM     49  H24 4T2 d   1      91.045 121.902 138.106  0.00  0.00     0.196 HD
BRANCH  47  50
ATOM     50  NAD 4T2 d   1      88.627 123.749 139.334  0.00  0.00    -0.383 N 
ATOM     51  H22 4T2 d   1      89.162 124.413 139.912  0.00  0.00     0.157 HD
ATOM     52  H23 4T2 d   1      87.600 123.816 139.289  0.00  0.00     0.157 HD
ENDBRANCH  47  50
BRANCH  48  53
ATOM     53  OAG 4T2 d   1      91.377 123.571 139.475  0.00  0.00    -0.288 OA
ATOM     54  H25 4T2 d   1      91.231 124.460 139.175  0.00  0.00     0.244 HD
ENDBRANCH  48  53
ENDBRANCH  39  47
ENDBRANCH   6  37
TORSDOF 13
