REMARK  23 active torsions:
REMARK  status: ('A' for Active; 'I' for Inactive)
REMARK    1  A    between atoms: C1_1  and  SAL_24 
REMARK    2  A    between atoms: C2_2  and  O2_6 
REMARK    3  A    between atoms: C3_3  and  O3_10 
REMARK    4  A    between atoms: C4_4  and  O4_14 
REMARK    5  A    between atoms: C5_18  and  C6_5 
REMARK    6  A    between atoms: C6_5  and  O6_19 
REMARK    7  A    between atoms: O2_6  and  CBJ_8 
REMARK    8  A    between atoms: CBJ_8  and  CBK_7 
REMARK    9  A    between atoms: O3_10  and  CBC_11 
REMARK   10  A    between atoms: CBC_11  and  CBD_13 
REMARK   11  A    between atoms: O4_14  and  CAZ_15 
REMARK   12  A    between atoms: CAZ_15  and  CBB_17 
REMARK   13  A    between atoms: O6_19  and  CAY_20 
REMARK   14  A    between atoms: CAY_20  and  CBA_22 
REMARK   15  A    between atoms: SAL_24  and  NAK_27 
REMARK   16  A    between atoms: NAK_27  and  CAJ_28 
REMARK   17  A    between atoms: CAJ_28  and  CAI_29 
REMARK   18  A    between atoms: CAI_29  and  CAH_30 
REMARK   19  A    between atoms: CAH_30  and  CAG_31 
REMARK   20  A    between atoms: CAG_31  and  CAF_32 
REMARK   21  A    between atoms: CAF_32  and  OAA_33 
REMARK   22  A    between atoms: OAA_33  and  SAB_34 
REMARK   23  A    between atoms: SAB_34  and  NAE_37 
ROOT
ATOM      1  C1  5KZ d   1       3.371   9.554  81.826  0.00  0.00     0.181 C 
ATOM      2  C2  5KZ d   1       3.933  10.928  81.943  0.00  0.00     0.116 C 
ATOM      3  C3  5KZ d   1       5.291  11.135  81.392  0.00  0.00     0.104 C 
ATOM      4  C4  5KZ d   1       5.991  10.041  80.610  0.00  0.00     0.103 C 
ATOM      5  C5  5KZ d   1       5.240   8.682  80.560  0.00  0.00     0.089 C 
ATOM      6  O5  5KZ d   1       4.472   8.618  81.879  0.00  0.00    -0.356 OA
ATOM      7  H1  5KZ d   1       2.736   9.428  80.937  0.00  0.00     0.115 H 
ATOM      8  H2  5KZ d   1       4.042  11.106  83.023  0.00  0.00     0.094 H 
ATOM      9  H3  5KZ d   1       5.885  11.085  82.317  0.00  0.00     0.092 H 
ATOM     10  H4  5KZ d   1       6.922   9.855  81.166  0.00  0.00     0.092 H 
ATOM     11  H16 5KZ d   1       4.571   8.615  79.689  0.00  0.00     0.090 H 
ENDROOT
BRANCH   1  12
ATOM     12  SAL 5KZ d   1       2.513   9.255  83.379  0.00  0.00     0.256 S 
ATOM     13  OAM 5KZ d   1       3.648   9.556  84.516  0.00  0.00    -0.203 OA
ATOM     14  OAN 5KZ d   1       1.169  10.214  83.436  0.00  0.00    -0.203 OA
BRANCH  12  15
ATOM     15  NAK 5KZ d   1       2.076   7.578  83.379  0.00  0.00    -0.317 N 
ATOM     16  H20 5KZ d   1       2.483   6.851  83.933  0.00  0.00     0.172 HD
BRANCH  15  17
ATOM     17  CAJ 5KZ d   1       0.979   7.438  82.394  0.00  0.00     0.003 C 
ATOM     18  H21 5KZ d   1       1.136   6.536  81.785  0.00  0.00     0.065 H 
ATOM     19  H22 5KZ d   1       0.948   8.322  81.740  0.00  0.00     0.065 H 
BRANCH  17  20
ATOM     20  CAI 5KZ d   1      -0.354   7.318  83.184  0.00  0.00    -0.050 C 
ATOM     21  H23 5KZ d   1      -1.157   6.999  82.504  0.00  0.00     0.035 H 
ATOM     22  H24 5KZ d   1      -0.611   8.294  83.622  0.00  0.00     0.035 H 
BRANCH  20  23
ATOM     23  CAH 5KZ d   1      -0.185   6.265  84.320  0.00  0.00    -0.062 C 
ATOM     24  H25 5KZ d   1       0.244   6.753  85.208  0.00  0.00     0.033 H 
ATOM     25  H26 5KZ d   1       0.489   5.466  83.979  0.00  0.00     0.033 H 
BRANCH  23  26
ATOM     26  CAG 5KZ d   1      -1.553   5.658  84.682  0.00  0.00    -0.044 C 
ATOM     27  H27 5KZ d   1      -1.914   5.059  83.832  0.00  0.00     0.036 H 
ATOM     28  H28 5KZ d   1      -2.263   6.473  84.884  0.00  0.00     0.036 H 
BRANCH  26  29
ATOM     29  CAF 5KZ d   1      -1.462   4.751  85.932  0.00  0.00     0.039 C 
ATOM     30  H29 5KZ d   1      -2.450   4.647  86.404  0.00  0.00     0.076 H 
ATOM     31  H30 5KZ d   1      -0.750   5.169  86.659  0.00  0.00     0.076 H 
BRANCH  29  32
ATOM     32  OAA 5KZ d   1      -1.007   3.499  85.458  0.00  0.00    -0.260 OA
BRANCH  32  33
ATOM     33  SAB 5KZ d   1      -1.444   2.166  86.350  0.00  0.00     0.355 S 
ATOM     34  OAC 5KZ d   1      -2.872   2.321  86.050  0.00  0.00    -0.176 OA
ATOM     35  OAD 5KZ d   1      -0.635   2.532  87.697  0.00  0.00    -0.176 OA
BRANCH  33  36
ATOM     36  NAE 5KZ d   1      -0.715   0.855  85.548  0.00  0.00    -0.306 N 
ATOM     37  H31 5KZ d   1      -0.833  -0.074  85.899  0.00  0.00     0.171 HD
ATOM     38  H32 5KZ d   1      -0.169   1.013  84.725  0.00  0.00     0.171 HD
ENDBRANCH  33  36
ENDBRANCH  32  33
ENDBRANCH  29  32
ENDBRANCH  26  29
ENDBRANCH  23  26
ENDBRANCH  20  23
ENDBRANCH  17  20
ENDBRANCH  15  17
ENDBRANCH  12  15
ENDBRANCH   1  12
BRANCH   2  39
ATOM     39  O2  5KZ d   1       2.951  11.913  81.470  0.00  0.00    -0.310 OA
BRANCH  39  40
ATOM     40  CBJ 5KZ d   1       2.619  12.878  82.445  0.00  0.00     0.255 C 
ATOM     41  OBL 5KZ d   1       3.350  13.099  83.360  0.00  0.00    -0.266 OA
BRANCH  40  42
ATOM     42  CBK 5KZ d   1       1.293  13.639  82.275  0.00  0.00     0.004 C 
ATOM     43  H7  5KZ d   1       1.171  14.352  83.104  0.00  0.00     0.041 H 
ATOM     44  H8  5KZ d   1       0.457  12.924  82.280  0.00  0.00     0.041 H 
ATOM     45  H9  5KZ d   1       1.303  14.185  81.320  0.00  0.00     0.041 H 
ENDBRANCH  40  42
ENDBRANCH  39  40
ENDBRANCH   2  39
BRANCH   3  46
ATOM     46  O3  5KZ d   1       5.516  12.571  80.998  0.00  0.00    -0.311 OA
BRANCH  46  47
ATOM     47  CBC 5KZ d   1       5.207  13.299  79.817  0.00  0.00     0.255 C 
ATOM     48  OBH 5KZ d   1       4.542  12.907  78.915  0.00  0.00    -0.266 OA
BRANCH  47  49
ATOM     49  CBD 5KZ d   1       5.806  14.722  79.769  0.00  0.00     0.004 C 
ATOM     50  H10 5KZ d   1       5.518  15.209  78.826  0.00  0.00     0.041 H 
ATOM     51  H11 5KZ d   1       6.903  14.661  79.830  0.00  0.00     0.041 H 
ATOM     52  H12 5KZ d   1       5.424  15.309  80.617  0.00  0.00     0.041 H 
ENDBRANCH  47  49
ENDBRANCH  46  47
ENDBRANCH   3  46
BRANCH   5  53
ATOM     53  C6  5KZ d   1       6.188   7.635  80.557  0.00  0.00     0.055 C 
ATOM     54  H5  5KZ d   1       6.746   7.630  79.609  0.00  0.00     0.079 H 
ATOM     55  H6  5KZ d   1       5.685   6.666  80.692  0.00  0.00     0.079 H 
BRANCH  53  56
ATOM     56  O6  5KZ d   1       7.070   7.888  81.646  0.00  0.00    -0.319 OA
BRANCH  56  57
ATOM     57  CAY 5KZ d   1       8.171   7.005  81.674  0.00  0.00     0.254 C 
ATOM     58  OBE 5KZ d   1       9.053   7.110  82.470  0.00  0.00    -0.266 OA
BRANCH  57  59
ATOM     59  CBA 5KZ d   1       8.189   5.894  80.629  0.00  0.00     0.004 C 
ATOM     60  H17 5KZ d   1       9.094   5.282  80.760  0.00  0.00     0.041 H 
ATOM     61  H18 5KZ d   1       8.189   6.337  79.622  0.00  0.00     0.041 H 
ATOM     62  H19 5KZ d   1       7.297   5.261  80.751  0.00  0.00     0.041 H 
ENDBRANCH  57  59
ENDBRANCH  56  57
ENDBRANCH  53  56
ENDBRANCH   5  53
BRANCH   4  63
ATOM     63  O4  5KZ d   1       6.392  10.381  79.274  0.00  0.00    -0.311 OA
BRANCH  63  64
ATOM     64  CAZ 5KZ d   1       7.795  10.404  79.132  0.00  0.00     0.255 C 
ATOM     65  OBF 5KZ d   1       8.482  10.380  80.105  0.00  0.00    -0.266 OA
BRANCH  64  66
ATOM     66  CBB 5KZ d   1       8.418  10.448  77.723  0.00  0.00     0.004 C 
ATOM     67  H13 5KZ d   1       9.515  10.461  77.807  0.00  0.00     0.041 H 
ATOM     68  H14 5KZ d   1       8.080  11.355  77.201  0.00  0.00     0.041 H 
ATOM     69  H15 5KZ d   1       8.104   9.559  77.156  0.00  0.00     0.041 H 
ENDBRANCH  64  66
ENDBRANCH  63  64
ENDBRANCH   4  63
TORSDOF 23
