REMARK  13 active torsions:
REMARK  status: ('A' for Active; 'I' for Inactive)
REMARK    1  A    between atoms: C1_1  and  SBN_12 
REMARK    2  A    between atoms: C2_2  and  O2_7 
REMARK    3  A    between atoms: C3_3  and  O3_8 
REMARK    4  A    between atoms: C4_4  and  O4_9 
REMARK    5  A    between atoms: C5_5  and  C6_6 
REMARK    6  A    between atoms: C6_6  and  O6_10 
REMARK    7  A    between atoms: SBN_12  and  N_15 
REMARK    8  A    between atoms: CG_17  and  OD2_18 
REMARK    9  A    between atoms: OD2_18  and  SBM_19 
REMARK   10  A    between atoms: SBM_19  and  NAF_22 
REMARK   11  A    between atoms: CA_24  and  C_25 
REMARK   12  A    between atoms: C_25  and  OAS_27 
REMARK   13  A    between atoms: OAS_27  and  CAA_28 
ROOT
ATOM      1  N   510 d   1      16.104   5.097  13.789  0.00  0.00    -0.192 NA
ATOM      2  CD1 510 d   1      15.518   4.361  14.561  0.00  0.00     0.020 C 
ATOM      3  CG  510 d   1      16.301   2.920  14.625  0.00  0.00     0.073 C 
ATOM      4  CB  510 d   1      17.350   3.132  14.218  0.00  0.00    -0.014 C 
ATOM      5  CA  510 d   1      17.205   4.297  13.224  0.00  0.00     0.095 C 
ATOM      6  H12 510 d   1      14.487   4.205  14.211  0.00  0.00     0.061 H 
ATOM      7  H13 510 d   1      15.500   4.816  15.562  0.00  0.00     0.061 H 
ATOM      8  H14 510 d   1      15.779   2.134  14.060  0.00  0.00     0.087 H 
ATOM      9  H17 510 d   1      17.746   2.243  13.706  0.00  0.00     0.040 H 
ATOM     10  H18 510 d   1      18.026   3.414  15.038  0.00  0.00     0.040 H 
ATOM     11  H19 510 d   1      18.113   4.916  13.169  0.00  0.00     0.081 H 
ENDROOT
BRANCH   1  12
ATOM     12  SBN 510 d   1      16.309   6.417  14.210  0.00  0.00     0.242 S 
ATOM     13  OAN 510 d   1      14.987   6.996  14.861  0.00  0.00    -0.208 OA
ATOM     14  OAO 510 d   1      17.582   6.572  15.188  0.00  0.00    -0.208 OA
BRANCH  12  15
ATOM     15  C1  510 d   1      16.685   7.489  12.770  0.00  0.00     0.176 C 
ATOM     16  C2  510 d   1      15.422   7.735  12.117  0.00  0.00     0.102 C 
ATOM     17  C3  510 d   1      15.376   8.974  11.343  0.00  0.00     0.090 C 
ATOM     18  H2  510 d   1      14.639   7.798  12.887  0.00  0.00     0.092 H 
ATOM     19  C4  510 d   1      16.335  10.084  11.594  0.00  0.00     0.089 C 
ATOM     20  H3  510 d   1      14.413   9.411  11.647  0.00  0.00     0.091 H 
ATOM     21  C5  510 d   1      17.201   9.991  12.868  0.00  0.00     0.087 C 
ATOM     22  H4  510 d   1      15.702  10.969  11.755  0.00  0.00     0.091 H 
ATOM     23  O5  510 d   1      17.081   8.633  13.495  0.00  0.00    -0.357 OA
ATOM     24  H5  510 d   1      16.805  10.737  13.573  0.00  0.00     0.090 H 
ATOM     25  H1  510 d   1      17.450   7.100  12.082  0.00  0.00     0.114 H 
BRANCH  16  26
ATOM     26  O2  510 d   1      15.166   6.576  11.274  0.00  0.00    -0.389 OA
ATOM     27  H8  510 d   1      15.825   6.531  10.591  0.00  0.00     0.210 HD
ENDBRANCH  16  26
BRANCH  17  28
ATOM     28  O3  510 d   1      15.230   8.720   9.903  0.00  0.00    -0.390 OA
ATOM     29  H9  510 d   1      14.614   8.009   9.769  0.00  0.00     0.210 HD
ENDBRANCH  17  28
BRANCH  19  30
ATOM     30  O4  510 d   1      17.103  10.369  10.440  0.00  0.00    -0.390 OA
ATOM     31  H10 510 d   1      16.530  10.417   9.684  0.00  0.00     0.210 HD
ENDBRANCH  19  30
BRANCH  21  32
ATOM     32  C6  510 d   1      18.565  10.251  12.708  0.00  0.00     0.043 C 
ATOM     33  H6  510 d   1      18.724  10.923  11.852  0.00  0.00     0.078 H 
ATOM     34  H7  510 d   1      19.112   9.311  12.543  0.00  0.00     0.078 H 
BRANCH  32  35
ATOM     35  O6  510 d   1      18.998  10.853  13.868  0.00  0.00    -0.398 OA
ATOM     36  H11 510 d   1      18.851  10.267  14.601  0.00  0.00     0.209 HD
ENDBRANCH  32  35
ENDBRANCH  21  32
ENDBRANCH  12  15
ENDBRANCH   1  12
BRANCH   5  37
ATOM     37  C   510 d   1      16.985   3.592  11.863  0.00  0.00     0.277 C 
ATOM     38  O   510 d   1      17.743   3.783  11.013  0.00  0.00    -0.263 OA
BRANCH  37  39
ATOM     39  OAS 510 d   1      15.919   2.721  11.670  0.00  0.00    -0.325 OA
BRANCH  39  40
ATOM     40  CAA 510 d   1      16.068   1.634  10.767  0.00  0.00     0.013 C 
ATOM     41  H20 510 d   1      15.135   1.052  10.737  0.00  0.00     0.067 H 
ATOM     42  H21 510 d   1      16.892   0.988  11.104  0.00  0.00     0.067 H 
ATOM     43  H22 510 d   1      16.292   2.020   9.762  0.00  0.00     0.067 H 
ENDBRANCH  39  40
ENDBRANCH  37  39
ENDBRANCH   5  37
BRANCH   3  44
ATOM     44  OD2 510 d   1      16.473   2.552  16.099  0.00  0.00    -0.253 OA
BRANCH  44  45
ATOM     45  SBM 510 d   1      15.600   1.355  16.736  0.00  0.00     0.356 S 
ATOM     46  OAL 510 d   1      14.110   1.640  16.357  0.00  0.00    -0.176 OA
ATOM     47  OAM 510 d   1      15.855   1.412  18.268  0.00  0.00    -0.176 OA
BRANCH  45  48
ATOM     48  NAF 510 d   1      16.068  -0.033  15.972  0.00  0.00    -0.306 N 
ATOM     49  H15 510 d   1      15.646  -0.906  16.218  0.00  0.00     0.171 HD
ATOM     50  H16 510 d   1      16.773  -0.000  15.263  0.00  0.00     0.171 HD
ENDBRANCH  45  48
ENDBRANCH  44  45
ENDBRANCH   3  44
TORSDOF 13
