REMARK  14 active torsions:
REMARK  status: ('A' for Active; 'I' for Inactive)
REMARK    1  A    between atoms: C1_1  and  SBN_15 
REMARK    2  A    between atoms: C2_2  and  O2_7 
REMARK    3  A    between atoms: C3_3  and  O3_8 
REMARK    4  A    between atoms: C4_4  and  O4_9 
REMARK    5  A    between atoms: C6_6  and  O6_10 
REMARK    6  A    between atoms: O6_10  and  CAZ_11 
REMARK    7  A    between atoms: CAZ_11  and  CAB_13 
REMARK    8  A    between atoms: SBN_15  and  N_18 
REMARK    9  A    between atoms: CG_20  and  OD2_21 
REMARK   10  A    between atoms: OD2_21  and  SBM_22 
REMARK   11  A    between atoms: SBM_22  and  NAF_25 
REMARK   12  A    between atoms: CA_27  and  C_28 
REMARK   13  A    between atoms: C_28  and  OAS_30 
REMARK   14  A    between atoms: OAS_30  and  CAA_31 
ROOT
ATOM      1  SBN 5L2 d   1      -2.881   5.778  13.576  0.00  0.00     0.260 S 
ATOM      2  OAN 5L2 d   1      -1.817   5.815  14.692  0.00  0.00    -0.203 OA
ATOM      3  OAO 5L2 d   1      -3.473   7.143  13.182  0.00  0.00    -0.203 OA
ENDROOT
BRANCH   1   4
ATOM      4  C1  5L2 d   1      -2.112   5.275  11.985  0.00  0.00     0.186 C 
ATOM      5  C2  5L2 d   1      -0.775   5.895  11.933  0.00  0.00     0.103 C 
ATOM      6  C3  5L2 d   1       0.199   5.152  11.081  0.00  0.00     0.094 C 
ATOM      7  H2  5L2 d   1      -0.376   5.811  12.955  0.00  0.00     0.092 H 
ATOM      8  C4  5L2 d   1      -0.008   3.746  10.672  0.00  0.00     0.110 C 
ATOM      9  H3  5L2 d   1       0.937   4.971  11.876  0.00  0.00     0.091 H 
ATOM     10  C5  5L2 d   1      -1.105   3.043  11.463  0.00  0.00     0.102 C 
ATOM     11  H4  5L2 d   1       0.889   3.272  11.096  0.00  0.00     0.098 H 
ATOM     12  C6  5L2 d   1      -1.369   1.716  11.160  0.00  0.00     0.053 C 
ATOM     13  O5  5L2 d   1      -2.155   3.872  12.090  0.00  0.00    -0.326 OA
ATOM     14  H5  5L2 d   1      -0.722   1.043  10.599  0.00  0.00     0.127 H 
ATOM     15  H1  5L2 d   1      -2.698   5.609  11.116  0.00  0.00     0.116 H 
BRANCH   5  16
ATOM     16  O2  5L2 d   1      -0.844   7.345  11.664  0.00  0.00    -0.389 OA
ATOM     17  H6  5L2 d   1      -1.483   7.743  12.243  0.00  0.00     0.210 HD
ENDBRANCH   5  16
BRANCH   6  18
ATOM     18  O3  5L2 d   1       1.056   5.855  10.159  0.00  0.00    -0.390 OA
ATOM     19  H7  5L2 d   1       1.167   6.752  10.452  0.00  0.00     0.210 HD
ENDBRANCH   6  18
BRANCH   8  20
ATOM     20  O4  5L2 d   1       0.159   3.416   9.327  0.00  0.00    -0.386 OA
ATOM     21  H8  5L2 d   1       0.872   3.927   8.963  0.00  0.00     0.210 HD
ENDBRANCH   8  20
BRANCH  12  22
ATOM     22  O6  5L2 d   1      -2.611   1.399  11.702  0.00  0.00    -0.289 OA
BRANCH  22  23
ATOM     23  CAZ 5L2 d   1      -3.383   0.486  11.003  0.00  0.00     0.259 C 
ATOM     24  OAG 5L2 d   1      -3.221   0.287   9.867  0.00  0.00    -0.265 OA
BRANCH  23  25
ATOM     25  CAB 5L2 d   1      -4.431  -0.242  11.844  0.00  0.00     0.004 C 
ATOM     26  H9  5L2 d   1      -4.991  -0.942  11.206  0.00  0.00     0.041 H 
ATOM     27  H10 5L2 d   1      -5.125   0.491  12.281  0.00  0.00     0.041 H 
ATOM     28  H11 5L2 d   1      -3.932  -0.800  12.650  0.00  0.00     0.041 H 
ENDBRANCH  23  25
ENDBRANCH  22  23
ENDBRANCH  12  22
ENDBRANCH   1   4
BRANCH   1  29
ATOM     29  N   5L2 d   1      -3.937   4.921  13.968  0.00  0.00    -0.292 N 
ATOM     30  CD1 5L2 d   1      -3.727   3.906  14.562  0.00  0.00     0.032 C 
ATOM     31  CG  5L2 d   1      -5.173   3.140  14.586  0.00  0.00     0.077 C 
ATOM     32  H12 5L2 d   1      -3.382   4.118  15.585  0.00  0.00     0.069 H 
ATOM     33  H13 5L2 d   1      -2.974   3.298  14.040  0.00  0.00     0.069 H 
ATOM     34  CB  5L2 d   1      -5.525   3.256  13.479  0.00  0.00    -0.010 C 
ATOM     35  H14 5L2 d   1      -5.881   3.651  15.254  0.00  0.00     0.088 H 
ATOM     36  CA  5L2 d   1      -5.047   4.657  13.034  0.00  0.00     0.108 C 
ATOM     37  H17 5L2 d   1      -6.621   3.186  13.415  0.00  0.00     0.040 H 
ATOM     38  H18 5L2 d   1      -5.071   2.478  12.848  0.00  0.00     0.040 H 
ATOM     39  H19 5L2 d   1      -4.696   4.648  11.992  0.00  0.00     0.089 H 
BRANCH  31  40
ATOM     40  OD2 5L2 d   1      -4.983   1.709  15.096  0.00  0.00    -0.253 OA
BRANCH  40  41
ATOM     41  SBM 5L2 d   1      -5.687   1.049  16.481  0.00  0.00     0.356 S 
ATOM     42  OAL 5L2 d   1      -4.797   1.576  17.579  0.00  0.00    -0.176 OA
ATOM     43  OAM 5L2 d   1      -7.181   1.370  16.665  0.00  0.00    -0.176 OA
BRANCH  41  44
ATOM     44  NAF 5L2 d   1      -5.255  -0.496  16.473  0.00  0.00    -0.306 N 
ATOM     45  H15 5L2 d   1      -5.557  -1.103  17.208  0.00  0.00     0.171 HD
ATOM     46  H16 5L2 d   1      -4.684  -0.852  15.733  0.00  0.00     0.171 HD
ENDBRANCH  41  44
ENDBRANCH  40  41
ENDBRANCH  31  40
BRANCH  36  47
ATOM     47  C   5L2 d   1      -6.149   5.668  13.183  0.00  0.00     0.282 C 
ATOM     48  O   5L2 d   1      -6.622   5.829  14.198  0.00  0.00    -0.263 OA
BRANCH  47  49
ATOM     49  OAS 5L2 d   1      -6.476   6.396  12.066  0.00  0.00    -0.325 OA
BRANCH  49  50
ATOM     50  CAA 5L2 d   1      -7.336   7.468  12.182  0.00  0.00     0.013 C 
ATOM     51  H20 5L2 d   1      -7.483   7.929  11.194  0.00  0.00     0.067 H 
ATOM     52  H21 5L2 d   1      -6.907   8.209  12.872  0.00  0.00     0.067 H 
ATOM     53  H22 5L2 d   1      -8.304   7.121  12.572  0.00  0.00     0.067 H 
ENDBRANCH  49  50
ENDBRANCH  47  49
ENDBRANCH  36  47
ENDBRANCH   1  29
TORSDOF 14
