REMARK  12 active torsions:
REMARK  status: ('A' for Active; 'I' for Inactive)
REMARK    1  A    between atoms: C1_1  and  SAG_15 
REMARK    2  A    between atoms: O2_2  and  CBE_5 
REMARK    3  A    between atoms: C2_7  and  O2_2 
REMARK    4  A    between atoms: C5_3  and  C6_12 
REMARK    5  A    between atoms: CBE_5  and  CBI_4 
REMARK    6  A    between atoms: C3_8  and  O3_9 
REMARK    7  A    between atoms: C4_10  and  O4_11 
REMARK    8  A    between atoms: C6_12  and  O6_13 
REMARK    9  A    between atoms: SAG_15  and  NAB_18 
REMARK   10  A    between atoms: CAE_23  and  OAK_24 
REMARK   11  A    between atoms: OAK_24  and  SAL_25 
REMARK   12  A    between atoms: SAL_25  and  NAM_28 
ROOT
ATOM      1  C1  5L3 d   1      -0.142   7.838  82.215  0.00  0.00     0.181 C 
ATOM      2  C5  5L3 d   1       1.436   9.026  83.709  0.00  0.00     0.087 C 
ATOM      3  C2  5L3 d   1       1.031   7.083  81.656  0.00  0.00     0.115 C 
ATOM      4  C3  5L3 d   1       2.311   7.214  82.369  0.00  0.00     0.091 C 
ATOM      5  C4  5L3 d   1       2.351   7.818  83.733  0.00  0.00     0.089 C 
ATOM      6  O5  5L3 d   1       0.111   8.341  83.522  0.00  0.00    -0.356 OA
ATOM      7  H1  5L3 d   1      -0.384   8.650  81.514  0.00  0.00     0.115 H 
ATOM      8  H2  5L3 d   1       1.457   9.540  84.681  0.00  0.00     0.090 H 
ATOM      9  H6  5L3 d   1       1.208   7.490  80.649  0.00  0.00     0.094 H 
ATOM     10  H7  5L3 d   1       2.907   7.899  81.748  0.00  0.00     0.091 H 
ATOM     11  H9  5L3 d   1       2.028   7.079  84.481  0.00  0.00     0.091 H 
ENDROOT
BRANCH   1  12
ATOM     12  SAG 5L3 d   1      -1.606   6.872  82.584  0.00  0.00     0.258 S 
ATOM     13  OAH 5L3 d   1      -2.292   7.833  83.442  0.00  0.00    -0.203 OA
ATOM     14  OAJ 5L3 d   1      -2.540   6.731  81.470  0.00  0.00    -0.203 OA
BRANCH  12  15
ATOM     15  NAB 5L3 d   1      -1.165   5.711  83.166  0.00  0.00    -0.308 N 
ATOM     16  CAC 5L3 d   1      -1.510   4.445  82.579  0.00  0.00     0.007 C 
ATOM     17  CAD 5L3 d   1      -0.892   3.269  83.323  0.00  0.00    -0.024 C 
ATOM     18  H14 5L3 d   1      -1.154   4.430  81.538  0.00  0.00     0.065 H 
ATOM     19  H15 5L3 d   1      -2.604   4.336  82.594  0.00  0.00     0.065 H 
ATOM     20  CAE 5L3 d   1      -0.728   3.403  84.754  0.00  0.00     0.062 C 
ATOM     21  H16 5L3 d   1       0.104   3.091  82.891  0.00  0.00     0.039 H 
ATOM     22  H17 5L3 d   1      -1.531   2.392  83.144  0.00  0.00     0.039 H 
ATOM     23  CAF 5L3 d   1      -1.288   4.549  85.393  0.00  0.00    -0.024 C 
ATOM     24  H22 5L3 d   1       0.330   3.269  85.024  0.00  0.00     0.085 H 
ATOM     25  CAA 5L3 d   1      -0.962   5.799  84.603  0.00  0.00     0.007 C 
ATOM     26  H20 5L3 d   1      -2.380   4.433  85.455  0.00  0.00     0.039 H 
ATOM     27  H21 5L3 d   1      -0.870   4.640  86.406  0.00  0.00     0.039 H 
ATOM     28  H18 5L3 d   1      -1.595   6.614  84.984  0.00  0.00     0.065 H 
ATOM     29  H19 5L3 d   1       0.096   6.044  84.780  0.00  0.00     0.065 H 
BRANCH  20  30
ATOM     30  OAK 5L3 d   1      -1.639   2.402  85.350  0.00  0.00    -0.254 OA
BRANCH  30  31
ATOM     31  SAL 5L3 d   1      -1.307   1.427  86.419  0.00  0.00     0.355 S 
ATOM     32  OAN 5L3 d   1      -0.939   1.839  87.734  0.00  0.00    -0.176 OA
ATOM     33  OAO 5L3 d   1      -2.621   1.255  86.881  0.00  0.00    -0.176 OA
BRANCH  31  34
ATOM     34  NAM 5L3 d   1      -1.026   0.021  85.952  0.00  0.00    -0.306 N 
ATOM     35  H23 5L3 d   1      -0.795  -0.690  86.616  0.00  0.00     0.171 HD
ATOM     36  H24 5L3 d   1      -1.070  -0.201  84.978  0.00  0.00     0.171 HD
ENDBRANCH  31  34
ENDBRANCH  30  31
ENDBRANCH  20  30
ENDBRANCH  12  15
ENDBRANCH   1  12
BRANCH   3  37
ATOM     37  O2  5L3 d   1       0.641   5.648  81.496  0.00  0.00    -0.310 OA
BRANCH  37  38
ATOM     38  CBE 5L3 d   1       0.331   5.043  80.282  0.00  0.00     0.255 C 
ATOM     39  OBH 5L3 d   1       0.628   3.901  80.074  0.00  0.00    -0.266 OA
BRANCH  38  40
ATOM     40  CBI 5L3 d   1      -0.415   5.827  79.257  0.00  0.00     0.004 C 
ATOM     41  H3  5L3 d   1      -0.576   5.204  78.365  0.00  0.00     0.041 H 
ATOM     42  H4  5L3 d   1       0.168   6.718  78.981  0.00  0.00     0.041 H 
ATOM     43  H5  5L3 d   1      -1.387   6.137  79.668  0.00  0.00     0.041 H 
ENDBRANCH  38  40
ENDBRANCH  37  38
ENDBRANCH   3  37
BRANCH   4  44
ATOM     44  O3  5L3 d   1       3.020   5.900  82.357  0.00  0.00    -0.390 OA
ATOM     45  H8  5L3 d   1       2.481   5.247  82.788  0.00  0.00     0.210 HD
ENDBRANCH   4  44
BRANCH   2  46
ATOM     46  C6  5L3 d   1       1.785  10.002  82.702  0.00  0.00     0.043 C 
ATOM     47  H11 5L3 d   1       2.615   9.593  82.108  0.00  0.00     0.078 H 
ATOM     48  H12 5L3 d   1       2.117  10.916  83.217  0.00  0.00     0.078 H 
BRANCH  46  49
ATOM     49  O6  5L3 d   1       0.735  10.361  81.802  0.00  0.00    -0.398 OA
ATOM     50  H13 5L3 d   1       0.441   9.588  81.335  0.00  0.00     0.209 HD
ENDBRANCH  46  49
ENDBRANCH   2  46
BRANCH   5  51
ATOM     51  O4  5L3 d   1       3.645   8.347  84.077  0.00  0.00    -0.390 OA
ATOM     52  H10 5L3 d   1       3.612   8.717  84.951  0.00  0.00     0.210 HD
ENDBRANCH   5  51
TORSDOF 12
