REMARK  8 active torsions:
REMARK  status: ('A' for Active; 'I' for Inactive)
REMARK    1  A    between atoms: CA_1  and  N_2 
REMARK    2  A    between atoms: CA_1  and  C_9 
REMARK    3  A    between atoms: CAQ_14  and  CA_1 
REMARK       I    between atoms: N_2  and  CAO_3 
REMARK    4  A    between atoms: CAO_3  and  CAS_5 
REMARK    5  A    between atoms: CAS_5  and  CAA_6 
REMARK    6  A    between atoms: CAS_5  and  CAB_7 
REMARK    7  A    between atoms: CAS_5  and  CAC_8 
REMARK       I    between atoms: C_9  and  NAL_11 
REMARK    8  A    between atoms: NAL_11  and  OAF_12 
ROOT
ATOM      1  CA  4TK d   1      89.069 120.193  12.288  0.00  0.00     0.117 C 
ATOM      2  H1  4TK d   1      89.867 120.949  12.336  0.00  0.00     0.095 H 
ENDROOT
BRANCH   1   3
ATOM      3  N   4TK d   1      89.673 118.938  11.808  0.00  0.00    -0.343 N 
ATOM      4  CAO 4TK d   1      90.975 118.903  11.488  0.00  0.00     0.226 C 
ATOM      5  OAE 4TK d   1      91.727 119.864  11.634  0.00  0.00    -0.273 OA
ATOM      6  H2  4TK d   1      89.113 118.114  11.721  0.00  0.00     0.163 HD
BRANCH   4   7
ATOM      7  CAS 4TK d   1      91.492 117.587  10.896  0.00  0.00     0.030 C 
BRANCH   7   8
ATOM      8  CAA 4TK d   1      92.998 117.460  11.135  0.00  0.00    -0.061 C 
ATOM      9  H3  4TK d   1      93.359 116.513  10.707  0.00  0.00     0.029 H 
ATOM     10  H4  4TK d   1      93.200 117.474  12.216  0.00  0.00     0.029 H 
ATOM     11  H5  4TK d   1      93.518 118.302  10.654  0.00  0.00     0.029 H 
ENDBRANCH   7   8
BRANCH   7  12
ATOM     12  CAB 4TK d   1      90.757 116.396  11.514  0.00  0.00    -0.061 C 
ATOM     13  H6  4TK d   1      89.677 116.499  11.335  0.00  0.00     0.029 H 
ATOM     14  H7  4TK d   1      90.949 116.368  12.597  0.00  0.00     0.029 H 
ATOM     15  H8  4TK d   1      91.117 115.464  11.054  0.00  0.00     0.029 H 
ENDBRANCH   7  12
BRANCH   7  16
ATOM     16  CAC 4TK d   1      91.239 117.615   9.385  0.00  0.00    -0.061 C 
ATOM     17  H9  4TK d   1      91.767 118.471   8.941  0.00  0.00     0.029 H 
ATOM     18  H10 4TK d   1      90.160 117.712   9.196  0.00  0.00     0.029 H 
ATOM     19  H11 4TK d   1      91.608 116.682   8.934  0.00  0.00     0.029 H 
ENDBRANCH   7  16
ENDBRANCH   4   7
ENDBRANCH   1   3
BRANCH   1  20
ATOM     20  C   4TK d   1      88.051 120.624  11.231  0.00  0.00     0.268 C 
ATOM     21  O   4TK d   1      87.081 119.918  10.957  0.00  0.00    -0.269 OA
ATOM     22  NAL 4TK d   1      88.345 121.779  10.620  0.00  0.00    -0.235 N 
ATOM     23  H12 4TK d   1      89.164 122.299  10.862  0.00  0.00     0.197 HD
BRANCH  22  24
ATOM     24  OAF 4TK d   1      87.450 122.241   9.614  0.00  0.00    -0.287 OA
ATOM     25  H13 4TK d   1      86.589 122.371   9.993  0.00  0.00     0.244 HD
ENDBRANCH  22  24
ENDBRANCH   1  20
BRANCH   1  26
ATOM     26  CAQ 4TK d   1      88.480 120.145  13.560  0.00  0.00    -0.026 A 
ATOM     27  CAJ 4TK d   1      87.805 121.280  13.996  0.00  0.00    -0.073 A 
ATOM     28  CAH 4TK d   1      87.205 121.317  15.249  0.00  0.00    -0.066 A 
ATOM     29  H14 4TK d   1      87.746 122.148  13.349  0.00  0.00     0.084 H 
ATOM     30  CAP 4TK d   1      87.283 120.211  16.085  0.00  0.00     0.011 A 
ATOM     31  H15 4TK d   1      86.677 122.207  15.573  0.00  0.00     0.085 H 
ATOM     32 BRG  4TK d   1      86.459 120.288  17.792  0.00  0.00    -0.051 Br
ATOM     33  CAI 4TK d   1      87.964 119.071  15.658  0.00  0.00    -0.066 A 
ATOM     34  CAK 4TK d   1      88.566 119.035  14.397  0.00  0.00    -0.073 A 
ATOM     35  H16 4TK d   1      88.027 118.207  16.309  0.00  0.00     0.085 H 
ATOM     36  H17 4TK d   1      89.097 118.148  14.072  0.00  0.00     0.084 H 
ENDBRANCH   1  26
TORSDOF 8
