REMARK  9 active torsions:
REMARK  status: ('A' for Active; 'I' for Inactive)
REMARK    1  A    between atoms: CAA_1  and  CBA_2 
REMARK    2  A    between atoms: CBA_2  and  CAB_3 
REMARK    3  A    between atoms: CBA_2  and  CAC_4 
REMARK    4  A    between atoms: CBA_2  and  CAS_5 
REMARK       I    between atoms: CAS_5  and  N_7 
REMARK    5  A    between atoms: N_7  and  CA_8 
REMARK    6  A    between atoms: CA_8  and  C_9 
REMARK    7  A    between atoms: CA_8  and  CAY_13 
REMARK       I    between atoms: C_9  and  NAP_11 
REMARK    8  A    between atoms: NAP_11  and  OAF_12 
REMARK    9  A    between atoms: CAV_18  and  CAW_19 
ROOT
ATOM      1  CA  4TL d   1      14.502 120.142 131.188  0.00  0.00     0.117 C 
ATOM      2  H11 4TL d   1      15.294 120.905 131.183  0.00  0.00     0.095 H 
ENDROOT
BRANCH   1   3
ATOM      3  N   4TL d   1      15.140 118.899 130.707  0.00  0.00    -0.343 N 
ATOM      4  CAS 4TL d   1      16.463 118.863 130.435  0.00  0.00     0.226 C 
ATOM      5  OAE 4TL d   1      17.256 119.730 130.769  0.00  0.00    -0.273 OA
ATOM      6  H10 4TL d   1      14.587 118.076 130.581  0.00  0.00     0.163 HD
BRANCH   4   7
ATOM      7  CBA 4TL d   1      16.984 117.687 129.576  0.00  0.00     0.030 C 
BRANCH   7   8
ATOM      8  CAA 4TL d   1      18.492 117.502 129.737  0.00  0.00    -0.061 C 
ATOM      9  H1  4TL d   1      18.827 116.660 129.114  0.00  0.00     0.029 H 
ATOM     10  H2  4TL d   1      18.725 117.293 130.792  0.00  0.00     0.029 H 
ATOM     11  H3  4TL d   1      19.010 118.420 129.422  0.00  0.00     0.029 H 
ENDBRANCH   7   8
BRANCH   7  12
ATOM     12  CAB 4TL d   1      16.242 116.378 129.826  0.00  0.00    -0.061 C 
ATOM     13  H4  4TL d   1      15.161 116.540 129.704  0.00  0.00     0.029 H 
ATOM     14  H5  4TL d   1      16.447 116.030 130.849  0.00  0.00     0.029 H 
ATOM     15  H6  4TL d   1      16.583 115.620 129.106  0.00  0.00     0.029 H 
ENDBRANCH   7  12
BRANCH   7  16
ATOM     16  CAC 4TL d   1      16.761 118.170 128.126  0.00  0.00    -0.061 C 
ATOM     17  H7  4TL d   1      17.303 119.114 127.966  0.00  0.00     0.029 H 
ATOM     18  H8  4TL d   1      15.687 118.331 127.954  0.00  0.00     0.029 H 
ATOM     19  H9  4TL d   1      17.134 117.409 127.425  0.00  0.00     0.029 H 
ENDBRANCH   7  16
ENDBRANCH   4   7
ENDBRANCH   1   3
BRANCH   1  20
ATOM     20  C   4TL d   1      13.513 120.514 130.077  0.00  0.00     0.268 C 
ATOM     21  O   4TL d   1      12.694 119.688 129.681  0.00  0.00    -0.269 OA
ATOM     22  NAP 4TL d   1      13.787 121.665 129.496  0.00  0.00    -0.235 N 
ATOM     23  H12 4TL d   1      14.567 122.213 129.798  0.00  0.00     0.197 HD
BRANCH  22  24
ATOM     24  OAF 4TL d   1      12.976 122.107 128.457  0.00  0.00    -0.287 OA
ATOM     25  H13 4TL d   1      13.296 122.944 128.142  0.00  0.00     0.244 HD
ENDBRANCH  22  24
ENDBRANCH   1  20
BRANCH   1  26
ATOM     26  CAY 4TL d   1      13.975 120.217 132.477  0.00  0.00    -0.026 A 
ATOM     27  CAM 4TL d   1      13.689 121.502 132.914  0.00  0.00    -0.074 A 
ATOM     28  CAK 4TL d   1      13.224 121.718 134.201  0.00  0.00    -0.072 A 
ATOM     29  H14 4TL d   1      13.830 122.343 132.244  0.00  0.00     0.084 H 
ATOM     30  CAV 4TL d   1      13.033 120.617 135.053  0.00  0.00    -0.026 A 
ATOM     31  H15 4TL d   1      13.010 122.723 134.546  0.00  0.00     0.084 H 
ATOM     32  CAJ 4TL d   1      13.361 119.331 134.625  0.00  0.00    -0.072 A 
ATOM     33  CAL 4TL d   1      13.840 119.129 133.333  0.00  0.00    -0.074 A 
ATOM     34  H17 4TL d   1      13.243 118.489 135.298  0.00  0.00     0.084 H 
ATOM     35  H16 4TL d   1      14.105 118.133 132.998  0.00  0.00     0.084 H 
BRANCH  30  36
ATOM     36  CAW 4TL d   1      12.657 120.875 136.377  0.00  0.00    -0.020 A 
ATOM     37  CAN 4TL d   1      11.558 120.331 137.033  0.00  0.00    -0.032 A 
ATOM     38  CAT 4TL d   1      11.356 120.692 138.381  0.00  0.00     0.158 A 
ATOM     39  H18 4TL d   1      10.881 119.653 136.526  0.00  0.00     0.089 H 
ATOM     40  FAG 4TL d   1      10.299 120.194 138.996  0.00  0.00    -0.203 F 
ATOM     41  CAX 4TL d   1      12.250 121.545 139.060  0.00  0.00     0.193 A 
ATOM     42  FAI 4TL d   1      12.110 121.930 140.383  0.00  0.00    -0.200 F 
ATOM     43  CAU 4TL d   1      13.343 122.063 138.415  0.00  0.00     0.158 A 
ATOM     44  FAH 4TL d   1      14.185 122.857 139.152  0.00  0.00    -0.203 F 
ATOM     45  CAO 4TL d   1      13.543 121.739 137.069  0.00  0.00    -0.032 A 
ATOM     46  H19 4TL d   1      14.394 122.157 136.544  0.00  0.00     0.089 H 
ENDBRANCH  30  36
ENDBRANCH   1  26
TORSDOF 9
