REMARK  14 active torsions:
REMARK  status: ('A' for Active; 'I' for Inactive)
REMARK    1  A    between atoms: N4_43  and  C1_1 
REMARK    2  A    between atoms: C4_4  and  N1_28 
REMARK    3  A    between atoms: N2_35  and  C7_7 
REMARK    4  A    between atoms: C11_11  and  C10_10 
REMARK    5  A    between atoms: C10_10  and  N2_35 
REMARK    6  A    between atoms: C13_13  and  C24_25 
REMARK    7  A    between atoms: C19_19  and  O2_30 
REMARK    8  A    between atoms: C20_20  and  O1_29 
REMARK    9  A    between atoms: O1_29  and  C22_22 
REMARK   10  A    between atoms: O2_30  and  C27_31 
REMARK   11  A    between atoms: C27_31  and  C28_32 
REMARK   12  A    between atoms: C27_31  and  C29_33 
REMARK   13  A    between atoms: N2_35  and  C38_47 
REMARK   14  A    between atoms: N3_40  and  C31_37 
ROOT
ATOM      1  C4  4T4 d   1      -9.002 -10.994  -2.712  0.00  0.00     0.038 A 
ATOM      2  C5  4T4 d   1      -9.318 -12.315  -3.085  0.00  0.00    -0.055 A 
ATOM      3  C6  4T4 d   1     -10.576 -12.801  -2.732  0.00  0.00    -0.055 A 
ATOM      4  C7  4T4 d   1     -11.526 -12.012  -2.049  0.00  0.00     0.029 A 
ATOM      5  C8  4T4 d   1     -11.187 -10.692  -1.679  0.00  0.00    -0.055 A 
ATOM      6  C9  4T4 d   1      -9.931 -10.196  -2.023  0.00  0.00    -0.055 A 
ATOM      7  H5  4T4 d   1      -8.609 -12.931  -3.627  0.00  0.00     0.087 H 
ATOM      8  H6  4T4 d   1     -10.834 -13.822  -2.991  0.00  0.00     0.087 H 
ATOM      9  H7  4T4 d   1     -11.893 -10.074  -1.136  0.00  0.00     0.087 H 
ATOM     10  H8  4T4 d   1      -9.667  -9.179  -1.755  0.00  0.00     0.087 H 
ENDROOT
BRANCH   1  11
ATOM     11  N1  4T4 d   1      -7.735 -10.450  -3.009  0.00  0.00    -0.304 N 
ATOM     12  C13 4T4 d   1      -6.816 -10.559  -1.848  0.00  0.00     0.071 C 
ATOM     13  C17 4T4 d   1      -5.638  -9.591  -1.917  0.00  0.00    -0.021 A 
ATOM     14  H14 4T4 d   1      -7.399 -10.317  -0.947  0.00  0.00     0.088 H 
ATOM     15  C16 4T4 d   1      -5.259  -8.998  -3.136  0.00  0.00    -0.038 A 
ATOM     16  C18 4T4 d   1      -4.968  -9.308  -0.719  0.00  0.00    -0.039 A 
ATOM     17  C15 4T4 d   1      -6.008  -9.330  -4.445  0.00  0.00     0.034 C 
ATOM     18  C21 4T4 d   1      -4.157  -8.102  -3.144  0.00  0.00    -0.041 A 
ATOM     19  C14 4T4 d   1      -7.381  -9.900  -4.201  0.00  0.00     0.229 C 
ATOM     20  H15 4T4 d   1      -6.110  -8.408  -5.036  0.00  0.00     0.054 H 
ATOM     21  H16 4T4 d   1      -5.417 -10.065  -5.011  0.00  0.00     0.054 H 
ATOM     22  O3  4T4 d   1      -8.181  -9.849  -5.118  0.00  0.00    -0.273 OA
ATOM     23  C20 4T4 d   1      -3.473  -7.818  -1.918  0.00  0.00     0.102 A 
ATOM     24  H18 4T4 d   1      -3.837  -7.637  -4.069  0.00  0.00     0.088 H 
ATOM     25  C19 4T4 d   1      -3.871  -8.416  -0.716  0.00  0.00     0.103 A 
ATOM     26  H17 4T4 d   1      -5.291  -9.773   0.205  0.00  0.00     0.088 H 
BRANCH  12  27
ATOM     27  C24 4T4 d   1      -6.261 -12.002  -1.694  0.00  0.00    -0.030 A 
ATOM     28  C23 4T4 d   1      -6.735 -12.890  -0.684  0.00  0.00    -0.073 A 
ATOM     29  C3  4T4 d   1      -6.203 -14.209  -0.590  0.00  0.00    -0.061 A 
ATOM     30  H22 4T4 d   1      -7.499 -12.562   0.012  0.00  0.00     0.084 H 
ATOM     31  C2  4T4 d   1      -5.211 -14.616  -1.505  0.00  0.00     0.034 A 
ATOM     32  H4  4T4 d   1      -6.557 -14.890   0.175  0.00  0.00     0.086 H 
ATOM     33 CL1  4T4 d   1      -4.487 -16.225  -1.477  0.00  0.00    -0.084 Cl
ATOM     34  C26 4T4 d   1      -4.742 -13.748  -2.510  0.00  0.00    -0.061 A 
ATOM     35  C25 4T4 d   1      -5.272 -12.448  -2.602  0.00  0.00    -0.073 A 
ATOM     36  H24 4T4 d   1      -3.980 -14.079  -3.206  0.00  0.00     0.086 H 
ATOM     37  H23 4T4 d   1      -4.918 -11.780  -3.378  0.00  0.00     0.084 H 
ENDBRANCH  12  27
BRANCH  23  38
ATOM     38  O1  4T4 d   1      -2.384  -6.955  -1.789  0.00  0.00    -0.353 OA
BRANCH  38  39
ATOM     39  C22 4T4 d   1      -1.824  -6.257  -2.922  0.00  0.00     0.010 C 
ATOM     40  H19 4T4 d   1      -0.979  -5.636  -2.589  0.00  0.00     0.066 H 
ATOM     41  H20 4T4 d   1      -2.594  -5.615  -3.374  0.00  0.00     0.066 H 
ATOM     42  H21 4T4 d   1      -1.472  -6.987  -3.665  0.00  0.00     0.066 H 
ENDBRANCH  38  39
ENDBRANCH  23  38
BRANCH  25  43
ATOM     43  O2  4T4 d   1      -3.159  -8.096   0.455  0.00  0.00    -0.344 OA
BRANCH  43  44
ATOM     44  C27 4T4 d   1      -3.487  -8.675   1.742  0.00  0.00     0.038 C 
ATOM     45  H25 4T4 d   1      -4.581  -8.735   1.840  0.00  0.00     0.082 H 
BRANCH  44  46
ATOM     46  C28 4T4 d   1      -2.908  -7.723   2.821  0.00  0.00    -0.052 C 
ATOM     47  H26 4T4 d   1      -3.133  -8.122   3.821  0.00  0.00     0.030 H 
ATOM     48  H27 4T4 d   1      -3.362  -6.727   2.713  0.00  0.00     0.030 H 
ATOM     49  H28 4T4 d   1      -1.818  -7.644   2.694  0.00  0.00     0.030 H 
ENDBRANCH  44  46
BRANCH  44  50
ATOM     50  C29 4T4 d   1      -2.891 -10.091   1.959  0.00  0.00    -0.052 C 
ATOM     51  H29 4T4 d   1      -3.182 -10.463   2.953  0.00  0.00     0.030 H 
ATOM     52  H30 4T4 d   1      -1.794 -10.041   1.892  0.00  0.00     0.030 H 
ATOM     53  H31 4T4 d   1      -3.275 -10.773   1.186  0.00  0.00     0.030 H 
ENDBRANCH  44  50
ENDBRANCH  43  44
ENDBRANCH  25  43
ENDBRANCH   1  11
BRANCH   4  54
ATOM     54  N2  4T4 d   1     -12.708 -12.581  -1.727  0.00  0.00    -0.385 N 
BRANCH  54  55
ATOM     55  C10 4T4 d   1     -13.778 -11.861  -1.025  0.00  0.00    -0.002 C 
ATOM     56  H9  4T4 d   1     -14.379 -12.601  -0.476  0.00  0.00     0.064 H 
ATOM     57  H10 4T4 d   1     -13.308 -11.168  -0.312  0.00  0.00     0.064 H 
BRANCH  55  58
ATOM     58  C11 4T4 d   1     -14.730 -11.047  -1.917  0.00  0.00    -0.038 C 
ATOM     59  C12 4T4 d   1     -15.755 -10.312  -0.986  0.00  0.00    -0.058 C 
ATOM     60  C30 4T4 d   1     -16.805  -9.521  -1.842  0.00  0.00    -0.038 C 
ATOM     61  H12 4T4 d   1     -15.214  -9.608  -0.336  0.00  0.00     0.033 H 
ATOM     62  H13 4T4 d   1     -16.279 -11.055  -0.366  0.00  0.00     0.033 H 
ATOM     63  C31 4T4 d   1     -17.527 -10.410  -2.930  0.00  0.00     0.104 C 
ATOM     64  H32 4T4 d   1     -16.287  -8.696  -2.354  0.00  0.00     0.036 H 
ATOM     65  H33 4T4 d   1     -17.569  -9.111  -1.165  0.00  0.00     0.036 H 
ATOM     66  C32 4T4 d   1     -16.438 -11.054  -3.847  0.00  0.00    -0.038 C 
ATOM     67  H34 4T4 d   1     -18.022 -11.232  -2.393  0.00  0.00     0.084 H 
ATOM     68  C33 4T4 d   1     -15.479 -11.922  -2.971  0.00  0.00    -0.058 C 
ATOM     69  H35 4T4 d   1     -15.863 -10.261  -4.348  0.00  0.00     0.036 H 
ATOM     70  H36 4T4 d   1     -16.922 -11.690  -4.603  0.00  0.00     0.036 H 
ATOM     71  H37 4T4 d   1     -16.068 -12.689  -2.447  0.00  0.00     0.033 H 
ATOM     72  H38 4T4 d   1     -14.739 -12.409  -3.623  0.00  0.00     0.033 H 
ATOM     73  H11 4T4 d   1     -14.139 -10.295  -2.460  0.00  0.00     0.042 H 
BRANCH  63  74
ATOM     74  N3  4T4 d   1     -18.622  -9.697  -3.694  0.00  0.00    -0.057 N 
ATOM     75  C34 4T4 d   1     -19.864  -9.241  -2.980  0.00  0.00     0.099 C 
ATOM     76  C35 4T4 d   1     -21.034  -9.166  -4.003  0.00  0.00     0.020 C 
ATOM     77  H40 4T4 d   1     -19.694  -8.247  -2.540  0.00  0.00     0.078 H 
ATOM     78  H41 4T4 d   1     -20.116  -9.956  -2.183  0.00  0.00     0.078 H 
ATOM     79  N4  4T4 d   1     -20.640  -8.399  -5.193  0.00  0.00    -0.353 N 
ATOM     80  H42 4T4 d   1     -21.897  -8.676  -3.528  0.00  0.00     0.066 H 
ATOM     81  H43 4T4 d   1     -21.312 -10.186  -4.307  0.00  0.00     0.066 H 
ATOM     82  C36 4T4 d   1     -19.333  -8.156  -5.551  0.00  0.00     0.245 C 
ATOM     83  C37 4T4 d   1     -18.193  -8.693  -4.713  0.00  0.00     0.156 C 
ATOM     84  O4  4T4 d   1     -18.994  -7.508  -6.542  0.00  0.00    -0.272 OA
ATOM     85  H44 4T4 d   1     -17.462  -9.168  -5.384  0.00  0.00     0.090 H 
ATOM     86  H45 4T4 d   1     -17.717  -7.849  -4.191  0.00  0.00     0.090 H 
ATOM     87  H39 4T4 d   1     -18.975 -10.450  -4.264  0.00  0.00     0.281 HD
BRANCH  79  88
ATOM     88  C1  4T4 d   1     -21.704  -7.880  -6.002  0.00  0.00    -0.016 C 
ATOM     89  H1  4T4 d   1     -22.671  -8.171  -5.566  0.00  0.00     0.056 H 
ATOM     90  H2  4T4 d   1     -21.623  -8.288  -7.020  0.00  0.00     0.056 H 
ATOM     91  H3  4T4 d   1     -21.634  -6.783  -6.040  0.00  0.00     0.056 H 
ENDBRANCH  79  88
ENDBRANCH  63  74
ENDBRANCH  55  58
ENDBRANCH  54  55
BRANCH  54  92
ATOM     92  C38 4T4 d   1     -12.938 -14.012  -2.039  0.00  0.00    -0.018 C 
ATOM     93  H46 4T4 d   1     -12.060 -14.419  -2.562  0.00  0.00     0.056 H 
ATOM     94  H47 4T4 d   1     -13.825 -14.109  -2.682  0.00  0.00     0.056 H 
ATOM     95  H48 4T4 d   1     -13.100 -14.570  -1.105  0.00  0.00     0.056 H 
ENDBRANCH  54  92
ENDBRANCH   4  54
TORSDOF 14
