REMARK  11 active torsions:
REMARK  status: ('A' for Active; 'I' for Inactive)
REMARK    1  A    between atoms: C7_11  and  C7M_12 
REMARK    2  A    between atoms: C8_13  and  C8M_14 
REMARK    3  A    between atoms: N10_17  and  C1'_19 
REMARK    4  A    between atoms: C1'_19  and  C2'_20 
REMARK    5  A    between atoms: C2'_20  and  O2'_21 
REMARK    6  A    between atoms: C2'_20  and  C3'_22 
REMARK    7  A    between atoms: C3'_22  and  O3'_23 
REMARK    8  A    between atoms: C3'_22  and  C4'_24 
REMARK    9  A    between atoms: C4'_24  and  O4'_25 
REMARK   10  A    between atoms: C4'_24  and  C5'_26 
REMARK   11  A    between atoms: C5'_26  and  O5'_27 
ROOT
ATOM      1  N1  RBF d   1       1.649   3.616  88.958  0.00  0.00    -0.173 NA
ATOM      2  C2  RBF d   1       0.514   2.963  88.596  0.00  0.00     0.350 A 
ATOM      3  O2  RBF d   1      -0.301   3.540  87.841  0.00  0.00    -0.244 OA
ATOM      4  N3  RBF d   1       0.231   1.717  89.017  0.00  0.00    -0.272 N 
ATOM      5  C4  RBF d   1       1.050   1.029  89.827  0.00  0.00     0.282 A 
ATOM      6  O4  RBF d   1       0.760  -0.129  90.202  0.00  0.00    -0.265 OA
ATOM      7  C4A RBF d   1       2.315   1.672  90.271  0.00  0.00     0.171 A 
ATOM      8  N5  RBF d   1       3.195   1.046  91.088  0.00  0.00    -0.237 NA
ATOM      9  C5A RBF d   1       4.339   1.657  91.475  0.00  0.00     0.085 A 
ATOM     10  C6  RBF d   1       5.226   0.989  92.314  0.00  0.00    -0.047 A 
ATOM     11  C7  RBF d   1       6.407   1.606  92.719  0.00  0.00    -0.054 A 
ATOM     12  C8  RBF d   1       6.722   2.986  92.254  0.00  0.00    -0.054 A 
ATOM     13  C9  RBF d   1       5.837   3.657  91.414  0.00  0.00    -0.048 A 
ATOM     14  C9A RBF d   1       4.656   3.040  91.007  0.00  0.00     0.065 A 
ATOM     15  N10 RBF d   1       3.755   3.709  90.150  0.00  0.00    -0.325 N 
ATOM     16  C10 RBF d   1       2.567   3.047  89.774  0.00  0.00     0.170 A 
ATOM     17  H1  RBF d   1      -0.621   1.288  88.715  0.00  0.00     0.174 HD
ATOM     18  H2  RBF d   1       4.997  -0.015  92.653  0.00  0.00     0.088 H 
ATOM     19  H9  RBF d   1       6.067   4.661  91.076  0.00  0.00     0.087 H 
ENDROOT
BRANCH  15  20
ATOM     20  C1' RBF d   1       4.017   5.073  89.678  0.00  0.00     0.028 C 
ATOM     21  H10 RBF d   1       4.870   5.490  90.233  0.00  0.00     0.069 H 
ATOM     22  H11 RBF d   1       3.126   5.694  89.854  0.00  0.00     0.069 H 
BRANCH  20  23
ATOM     23  C2' RBF d   1       4.341   5.073  88.189  0.00  0.00     0.078 C 
ATOM     24  H12 RBF d   1       3.832   4.222  87.712  0.00  0.00     0.089 H 
BRANCH  23  25
ATOM     25  O2' RBF d   1       5.755   4.937  88.006  0.00  0.00    -0.391 OA
ATOM     26  H13 RBF d   1       6.199   5.664  88.427  0.00  0.00     0.210 HD
ENDBRANCH  23  25
BRANCH  23  27
ATOM     27  C3' RBF d   1       3.860   6.366  87.537  0.00  0.00     0.088 C 
ATOM     28  H14 RBF d   1       4.150   6.356  86.476  0.00  0.00     0.091 H 
BRANCH  27  29
ATOM     29  O3' RBF d   1       4.488   7.476  88.187  0.00  0.00    -0.390 OA
ATOM     30  H15 RBF d   1       4.193   8.285  87.786  0.00  0.00     0.210 HD
ENDBRANCH  27  29
BRANCH  27  31
ATOM     31  C4' RBF d   1       2.342   6.519  87.627  0.00  0.00     0.083 C 
ATOM     32  H16 RBF d   1       2.085   6.775  88.665  0.00  0.00     0.090 H 
BRANCH  31  33
ATOM     33  O4' RBF d   1       1.691   5.286  87.289  0.00  0.00    -0.391 OA
ATOM     34  H17 RBF d   1       1.969   4.607  87.892  0.00  0.00     0.210 HD
ENDBRANCH  31  33
BRANCH  31  35
ATOM     35  C5' RBF d   1       1.837   7.639  86.720  0.00  0.00     0.043 C 
ATOM     36  H18 RBF d   1       1.589   8.519  87.331  0.00  0.00     0.078 H 
ATOM     37  H19 RBF d   1       0.938   7.298  86.185  0.00  0.00     0.078 H 
BRANCH  35  38
ATOM     38  O5' RBF d   1       2.851   7.991  85.769  0.00  0.00    -0.398 OA
ATOM     39  H20 RBF d   1       3.627   8.286  86.230  0.00  0.00     0.209 HD
ENDBRANCH  35  38
ENDBRANCH  31  35
ENDBRANCH  27  31
ENDBRANCH  23  27
ENDBRANCH  20  23
ENDBRANCH  15  20
BRANCH  12  40
ATOM     40  C8M RBF d   1       7.998   3.658  92.692  0.00  0.00    -0.051 C 
ATOM     41  H6  RBF d   1       8.053   4.664  92.250  0.00  0.00     0.033 H 
ATOM     42  H7  RBF d   1       8.860   3.062  92.357  0.00  0.00     0.033 H 
ATOM     43  H8  RBF d   1       8.012   3.738  93.789  0.00  0.00     0.033 H 
ENDBRANCH  12  40
BRANCH  11  44
ATOM     44  C7M RBF d   1       7.364   0.876  93.628  0.00  0.00    -0.051 C 
ATOM     45  H3  RBF d   1       6.961  -0.121  93.860  0.00  0.00     0.033 H 
ATOM     46  H4  RBF d   1       7.492   1.446  94.560  0.00  0.00     0.033 H 
ATOM     47  H5  RBF d   1       8.337   0.770  93.127  0.00  0.00     0.033 H 
ENDBRANCH  11  44
TORSDOF 11
