REMARK  6 active torsions:
REMARK  status: ('A' for Active; 'I' for Inactive)
REMARK    1  A    between atoms: N2_2  and  C11_11 
REMARK    2  A    between atoms: C5_5  and  C7_7 
REMARK       I    between atoms: C7_7  and  N10_10 
REMARK    3  A    between atoms: C11_11  and  C14_14 
REMARK    4  A    between atoms: C14_14  and  C17_17 
REMARK    5  A    between atoms: C17_17  and  O16_16 
REMARK    6  A    between atoms: O16_16  and  C18_18 
ROOT
ATOM      1  C1  FSU d   1       8.063  14.636  58.789  0.00  0.00     0.255 A 
ATOM      2  N2  FSU d   1       8.013  13.766  59.809  0.00  0.00    -0.344 N 
ATOM      3  C3  FSU d   1       9.283  15.479  58.787  0.00  0.00     0.055 A 
ATOM      4  C4  FSU d   1       9.904  14.996  59.914  0.00  0.00    -0.024 A 
ATOM      5  C5  FSU d   1       9.874  16.494  58.021  0.00  0.00     0.048 A 
ATOM      6  C6  FSU d   1       9.157  13.932  60.548  0.00  0.00     0.023 A 
ATOM      7  O8  FSU d   1       7.127  14.747  57.909  0.00  0.00    -0.267 OA
ATOM      8  C12 FSU d   1      11.140  15.518  60.303  0.00  0.00    -0.074 A 
ATOM      9  C13 FSU d   1      11.107  17.020  58.439  0.00  0.00    -0.067 A 
ATOM     10  C15 FSU d   1      11.749  16.527  59.577  0.00  0.00    -0.081 A 
ATOM     11  H1  FSU d   1       9.746  13.003  60.550  0.00  0.00     0.071 H 
ATOM     12  H2  FSU d   1       8.905  14.209  61.582  0.00  0.00     0.071 H 
ATOM     13  H7  FSU d   1      11.630  15.127  61.187  0.00  0.00     0.084 H 
ATOM     14  H8  FSU d   1      11.567  17.820  57.870  0.00  0.00     0.085 H 
ATOM     15  H11 FSU d   1      12.708  16.927  59.886  0.00  0.00     0.083 H 
ENDROOT
BRANCH   2  16
ATOM     16  C11 FSU d   1       6.944  12.797  60.065  0.00  0.00     0.000 C 
ATOM     17  H5  FSU d   1       7.382  11.872  60.467  0.00  0.00     0.064 H 
ATOM     18  H6  FSU d   1       6.422  12.576  59.123  0.00  0.00     0.064 H 
BRANCH  16  19
ATOM     19  C14 FSU d   1       5.955  13.355  61.064  0.00  0.00    -0.030 C 
ATOM     20  H9  FSU d   1       5.373  14.161  60.593  0.00  0.00     0.038 H 
ATOM     21  H10 FSU d   1       6.497  13.754  61.934  0.00  0.00     0.038 H 
BRANCH  19  22
ATOM     22  C17 FSU d   1       5.009  12.241  61.520  0.00  0.00     0.020 C 
ATOM     23  H12 FSU d   1       4.371  12.601  62.340  0.00  0.00     0.074 H 
ATOM     24  H13 FSU d   1       5.589  11.371  61.861  0.00  0.00     0.074 H 
BRANCH  22  25
ATOM     25  O16 FSU d   1       4.204  11.882  60.396  0.00  0.00    -0.396 OA
BRANCH  25  26
ATOM     26  C18 FSU d   1       3.399  10.730  60.691  0.00  0.00     0.004 C 
ATOM     27  H14 FSU d   1       2.789  10.474  59.812  0.00  0.00     0.066 H 
ATOM     28  H15 FSU d   1       2.739  10.952  61.543  0.00  0.00     0.066 H 
ATOM     29  H16 FSU d   1       4.052   9.882  60.944  0.00  0.00     0.066 H 
ENDBRANCH  25  26
ENDBRANCH  22  25
ENDBRANCH  19  22
ENDBRANCH  16  19
ENDBRANCH   2  16
BRANCH   5  30
ATOM     30  C7  FSU d   1       9.265  17.046  56.766  0.00  0.00     0.250 C 
ATOM     31  O9  FSU d   1       9.933  17.796  56.075  0.00  0.00    -0.268 OA
ATOM     32  N10 FSU d   1       8.064  16.654  56.341  0.00  0.00    -0.366 N 
ATOM     33  H3  FSU d   1       7.681  17.038  55.501  0.00  0.00     0.159 HD
ATOM     34  H4  FSU d   1       7.546  15.976  56.862  0.00  0.00     0.159 HD
ENDBRANCH   5  30
TORSDOF 6
