REMARK  3 active torsions:
REMARK  status: ('A' for Active; 'I' for Inactive)
REMARK    1  A    between atoms: C20_8  and  N16_9 
REMARK    2  A    between atoms: C13_14  and  N10_15 
REMARK    3  A    between atoms: C4_25  and  C6_26 
REMARK       I    between atoms: C6_26  and  N19_28 
ROOT
ATOM      1  N16 D7N d   1      22.062 -27.150   6.756  0.00  0.00    -0.067 N 
ATOM      2  C15 D7N d   1      22.257 -27.268   5.274  0.00  0.00     0.086 C 
ATOM      3  C14 D7N d   1      23.498 -26.474   4.795  0.00  0.00    -0.023 C 
ATOM      4  C17 D7N d   1      21.911 -25.755   7.181  0.00  0.00     0.086 C 
ATOM      5  C18 D7N d   1      23.154 -25.018   6.895  0.00  0.00    -0.023 C 
ATOM      6  C13 D7N d   1      23.426 -25.017   5.401  0.00  0.00     0.018 C 
ATOM      7  H10 D7N d   1      22.917 -27.494   7.164  0.00  0.00     0.280 HD
ATOM      8  H11 D7N d   1      21.364 -26.876   4.764  0.00  0.00     0.076 H 
ATOM      9  H12 D7N d   1      22.391 -28.329   5.015  0.00  0.00     0.076 H 
ATOM     10  H13 D7N d   1      23.502 -26.419   3.696  0.00  0.00     0.038 H 
ATOM     11  H14 D7N d   1      24.415 -26.974   5.140  0.00  0.00     0.038 H 
ATOM     12  H15 D7N d   1      21.705 -25.721   8.261  0.00  0.00     0.076 H 
ATOM     13  H16 D7N d   1      21.076 -25.293   6.633  0.00  0.00     0.076 H 
ATOM     14  H17 D7N d   1      23.992 -25.502   7.417  0.00  0.00     0.038 H 
ATOM     15  H18 D7N d   1      23.052 -23.981   7.247  0.00  0.00     0.038 H 
ATOM     16  H19 D7N d   1      22.615 -24.471   4.898  0.00  0.00     0.073 H 
ENDROOT
BRANCH   6  17
ATOM     17  N10 D7N d   1      24.688 -24.331   5.159  0.00  0.00    -0.339 N 
ATOM     18  C9  D7N d   1      25.933 -24.360   5.954  0.00  0.00     0.023 A 
ATOM     19  C8  D7N d   1      26.801 -23.486   5.236  0.00  0.00    -0.021 A 
ATOM     20  H20 D7N d   1      26.348 -25.378   5.999  0.00  0.00     0.071 H 
ATOM     21  H21 D7N d   1      25.757 -23.990   6.975  0.00  0.00     0.071 H 
ATOM     22  C7  D7N d   1      26.207 -23.053   4.074  0.00  0.00     0.056 A 
ATOM     23  C3  D7N d   1      28.050 -23.106   5.582  0.00  0.00    -0.037 A 
ATOM     24  C11 D7N d   1      24.956 -23.627   4.079  0.00  0.00     0.256 A 
ATOM     25  C4  D7N d   1      26.904 -22.180   3.222  0.00  0.00     0.051 A 
ATOM     26  O12 D7N d   1      24.040 -23.419   3.299  0.00  0.00    -0.267 OA
ATOM     27  C1  D7N d   1      28.219 -21.776   3.572  0.00  0.00    -0.029 A 
ATOM     28  C2  D7N d   1      28.779 -22.247   4.773  0.00  0.00     0.117 A 
ATOM     29  H23 D7N d   1      28.783 -21.115   2.924  0.00  0.00     0.089 H 
ATOM     30  F5  D7N d   1      30.047 -21.909   5.164  0.00  0.00    -0.206 F 
ATOM     31  H22 D7N d   1      28.488 -23.476   6.502  0.00  0.00     0.089 H 
BRANCH  25  32
ATOM     32  C6  D7N d   1      26.438 -21.656   1.981  0.00  0.00     0.250 C 
ATOM     33  O28 D7N d   1      27.191 -20.954   1.271  0.00  0.00    -0.268 OA
ATOM     34  N19 D7N d   1      25.231 -22.042   1.559  0.00  0.00    -0.366 N 
ATOM     35  H24 D7N d   1      24.870 -21.696   0.693  0.00  0.00     0.159 HD
ATOM     36  H25 D7N d   1      24.689 -22.677   2.109  0.00  0.00     0.159 HD
ENDBRANCH  25  32
ENDBRANCH   6  17
BRANCH   1  37
ATOM     37  C20 D7N d   1      20.966 -27.939   7.376  0.00  0.00     0.104 C 
ATOM     38  C25 D7N d   1      21.257 -29.454   7.620  0.00  0.00    -0.033 C 
ATOM     39  C24 D7N d   1      20.107 -30.010   8.514  0.00  0.00    -0.002 C 
ATOM     40  H1  D7N d   1      21.281 -29.992   6.661  0.00  0.00     0.036 H 
ATOM     41  H2  D7N d   1      22.223 -29.574   8.132  0.00  0.00     0.036 H 
ATOM     42  C23 D7N d   1      18.681 -29.745   7.926  0.00  0.00     0.243 C 
ATOM     43  H3  D7N d   1      20.171 -29.532   9.502  0.00  0.00     0.042 H 
ATOM     44  H4  D7N d   1      20.243 -31.096   8.623  0.00  0.00     0.042 H 
ATOM     45  F26 D7N d   1      17.705 -30.152   8.667  0.00  0.00    -0.206 F 
ATOM     46  F27 D7N d   1      18.416 -30.398   6.859  0.00  0.00    -0.206 F 
ATOM     47  C22 D7N d   1      18.511 -28.290   7.507  0.00  0.00    -0.002 C 
ATOM     48  C21 D7N d   1      19.647 -27.820   6.580  0.00  0.00    -0.033 C 
ATOM     49  H5  D7N d   1      18.504 -27.659   8.408  0.00  0.00     0.042 H 
ATOM     50  H6  D7N d   1      17.553 -28.183   6.977  0.00  0.00     0.042 H 
ATOM     51  H7  D7N d   1      19.481 -26.775   6.280  0.00  0.00     0.036 H 
ATOM     52  H8  D7N d   1      19.689 -28.456   5.684  0.00  0.00     0.036 H 
ATOM     53  H9  D7N d   1      20.795 -27.490   8.365  0.00  0.00     0.084 H 
ENDBRANCH   1  37
TORSDOF 3
