REMARK  6 active torsions:
REMARK  status: ('A' for Active; 'I' for Inactive)
REMARK    1  A    between atoms: N2_2  and  C11_11 
REMARK    2  A    between atoms: C5_5  and  C7_7 
REMARK       I    between atoms: C7_7  and  N10_10 
REMARK    3  A    between atoms: C11_11  and  C14_14 
REMARK    4  A    between atoms: C14_14  and  C17_17 
REMARK    5  A    between atoms: C17_17  and  O16_16 
REMARK    6  A    between atoms: O16_16  and  C18_18 
ROOT
ATOM      1  C1  FSU d   1      62.802   6.640   9.351  0.00  0.00     0.189 A 
ATOM      2  N2  FSU d   1      61.878   6.245  10.228  0.00  0.00    -0.355 N 
ATOM      3  C3  FSU d   1      63.725   5.681   9.124  0.00  0.00     0.041 A 
ATOM      4  C4  FSU d   1      63.328   4.638   9.909  0.00  0.00    -0.025 A 
ATOM      5  C5  FSU d   1      64.852   5.588   8.321  0.00  0.00     0.046 A 
ATOM      6  C6  FSU d   1      62.201   4.984  10.580  0.00  0.00     0.022 A 
ATOM      7  O8  FSU d   1      62.725   7.879   8.835  0.00  0.00    -0.171 OA
ATOM      8  C12 FSU d   1      64.023   3.472   9.964  0.00  0.00    -0.074 A 
ATOM      9  C13 FSU d   1      65.588   4.382   8.367  0.00  0.00    -0.067 A 
ATOM     10  C15 FSU d   1      65.165   3.330   9.175  0.00  0.00    -0.081 A 
ATOM     11  H1  FSU d   1      61.382   4.300  10.312  0.00  0.00     0.071 H 
ATOM     12  H2  FSU d   1      62.381   4.933  11.664  0.00  0.00     0.071 H 
ATOM     13  H7  FSU d   1      63.696   2.665  10.610  0.00  0.00     0.084 H 
ATOM     14  H8  FSU d   1      66.487   4.276   7.770  0.00  0.00     0.085 H 
ATOM     15  H11 FSU d   1      65.723   2.401   9.191  0.00  0.00     0.083 H 
ENDROOT
BRANCH   2  16
ATOM     16  C11 FSU d   1      60.677   7.040  10.741  0.00  0.00    -0.001 C 
ATOM     17  H5  FSU d   1      59.811   6.364  10.806  0.00  0.00     0.064 H 
ATOM     18  H6  FSU d   1      60.460   7.847  10.026  0.00  0.00     0.064 H 
BRANCH  16  19
ATOM     19  C14 FSU d   1      60.917   7.667  12.133  0.00  0.00    -0.030 C 
ATOM     20  H9  FSU d   1      60.994   6.864  12.881  0.00  0.00     0.038 H 
ATOM     21  H10 FSU d   1      60.069   8.321  12.384  0.00  0.00     0.038 H 
BRANCH  19  22
ATOM     22  C17 FSU d   1      62.186   8.478  12.149  0.00  0.00     0.020 C 
ATOM     23  H12 FSU d   1      62.952   7.980  11.536  0.00  0.00     0.074 H 
ATOM     24  H13 FSU d   1      62.550   8.577  13.182  0.00  0.00     0.074 H 
BRANCH  22  25
ATOM     25  O16 FSU d   1      61.900   9.788  11.604  0.00  0.00    -0.396 OA
BRANCH  25  26
ATOM     26  C18 FSU d   1      62.984  10.314  10.794  0.00  0.00     0.004 C 
ATOM     27  H14 FSU d   1      62.707  11.307  10.411  0.00  0.00     0.066 H 
ATOM     28  H15 FSU d   1      63.174   9.635   9.950  0.00  0.00     0.066 H 
ATOM     29  H16 FSU d   1      63.893  10.399  11.408  0.00  0.00     0.066 H 
ENDBRANCH  25  26
ENDBRANCH  22  25
ENDBRANCH  19  22
ENDBRANCH  16  19
ENDBRANCH   2  16
BRANCH   5  30
ATOM     30  C7  FSU d   1      65.370   6.549   7.410  0.00  0.00     0.250 C 
ATOM     31  O9  FSU d   1      66.253   6.248   6.585  0.00  0.00    -0.268 OA
ATOM     32  N10 FSU d   1      64.837   7.784   7.410  0.00  0.00    -0.366 N 
ATOM     33  H3  FSU d   1      65.183   8.478   6.779  0.00  0.00     0.159 HD
ATOM     34  H4  FSU d   1      64.094   8.008   8.041  0.00  0.00     0.159 HD
ENDBRANCH   5  30
TORSDOF 6
