REMARK  19 active torsions:
REMARK  status: ('A' for Active; 'I' for Inactive)
REMARK    1  A    between atoms: N_1  and  CA_2 
REMARK    2  A    between atoms: CA_2  and  C_3 
REMARK    3  A    between atoms: CA_2  and  CB_5 
REMARK       I    between atoms: C_3  and  N_6 
REMARK    4  A    between atoms: CA_7  and  C_8 
REMARK       I    between atoms: C_8  and  N_13 
REMARK    5  A    between atoms: N_13  and  CA_14 
REMARK    6  A    between atoms: CA_14  and  C_15 
REMARK    7  A    between atoms: CA_14  and  CB_17 
REMARK       I    between atoms: C_15  and  N_21 
REMARK    8  A    between atoms: CB_17  and  CG_18 
REMARK    9  A    between atoms: N_21  and  CA_22 
REMARK   10  A    between atoms: CA_22  and  C_23 
REMARK   11  A    between atoms: CA_22  and  CB_25 
REMARK       I    between atoms: C_23  and  N_27 
REMARK   12  A    between atoms: CB_25  and  OG_26 
REMARK   13  A    between atoms: N_27  and  CA_28 
REMARK   14  A    between atoms: CA_28  and  C_29 
REMARK   15  A    between atoms: CA_28  and  CB_31 
REMARK       I    between atoms: C_29  and  N_38 
REMARK   16  A    between atoms: CB_31  and  CG_32 
REMARK   17  A    between atoms: CG_32  and  CD_33 
REMARK   18  A    between atoms: CD_33  and  NE_34 
REMARK       I    between atoms: NE_34  and  CZ_35 
REMARK       I    between atoms: CZ_35  and  NH1_36 
REMARK   19  A    between atoms: CA_39  and  C_40 
ROOT
ATOM      1  CA  SER d   1      17.563  10.793   5.186  0.00  0.00     0.109 C 
ATOM      2  H20 SER d   1      17.094   9.802   5.102  0.00  0.00     0.090 H 
ENDROOT
BRANCH   1   3
ATOM      3  N   SER d   1      17.058  11.408   6.424  0.00  0.00    -0.344 N 
ATOM      4  C   ASP d   1      16.733  10.725   7.523  0.00  0.00     0.241 C 
ATOM      5  O   ASP d   1      16.854   9.493   7.648  0.00  0.00    -0.271 OA
ATOM      6  H19 SER d   1      16.952  12.402   6.443  0.00  0.00     0.163 HD
BRANCH   4   7
ATOM      7  CA  ASP d   1      16.197  11.601   8.674  0.00  0.00     0.098 C 
ATOM      8  H16 ASP d   1      16.588  12.620   8.540  0.00  0.00     0.088 H 
BRANCH   7   9
ATOM      9  N   ASP d   1      14.754  11.652   8.630  0.00  0.00    -0.346 N 
ATOM     10  C   PRO d   1      14.152  12.401   7.720  0.00  0.00     0.241 C 
ATOM     11  O   PRO d   1      14.801  13.029   6.887  0.00  0.00    -0.271 OA
ATOM     12  H15 ASP d   1      14.213  11.124   9.284  0.00  0.00     0.163 HD
BRANCH  10  13
ATOM     13  CA  PRO d   1      12.618  12.482   7.733  0.00  0.00     0.091 C 
ATOM     14  N   PRO d   1      12.144  12.985   6.439  0.00  0.00    -0.337 N 
ATOM     15  C   ALA d   1      12.187  14.334   6.235  0.00  0.00     0.250 C 
ATOM     16  CD  PRO d   1      11.607  11.888   5.604  0.00  0.00    -0.001 C 
ATOM     17  O   ALA d   1      12.309  15.144   7.148  0.00  0.00    -0.271 OA
ATOM     18  CG  PRO d   1      11.821  10.671   6.438  0.00  0.00    -0.048 C 
ATOM     19  H13 PRO d   1      12.156  11.814   4.654  0.00  0.00     0.064 H 
ATOM     20  H14 PRO d   1      10.537  12.039   5.399  0.00  0.00     0.064 H 
ATOM     21  CB  PRO d   1      11.920  11.117   7.849  0.00  0.00    -0.036 C 
ATOM     22  H11 PRO d   1      10.973   9.980   6.320  0.00  0.00     0.035 H 
ATOM     23  H12 PRO d   1      12.751  10.166   6.136  0.00  0.00     0.035 H 
ATOM     24  H9  PRO d   1      10.923  11.220   8.302  0.00  0.00     0.036 H 
ATOM     25  H10 PRO d   1      12.522  10.415   8.444  0.00  0.00     0.036 H 
ATOM     26  H8  PRO d   1      12.302  13.141   8.555  0.00  0.00     0.087 H 
BRANCH  15  27
ATOM     27  CA  ALA d   1      12.109  14.877   4.792  0.00  0.00     0.172 C 
ATOM     28  H4  ALA d   1      12.524  15.895   4.825  0.00  0.00     0.098 H 
BRANCH  27  29
ATOM     29  N   ALA d   1      12.937  14.127   3.811  0.00  0.00    -0.067 N 
ATOM     30  H1  ALA d   1      12.833  14.540   2.898  0.00  0.00     0.275 HD
ATOM     31  H2  ALA d   1      12.634  13.166   3.781  0.00  0.00     0.275 HD
ATOM     32  H3  ALA d   1      13.905  14.166   4.089  0.00  0.00     0.275 HD
ENDBRANCH  27  29
BRANCH  27  33
ATOM     33  CB  ALA d   1      10.693  15.006   4.336  0.00  0.00    -0.042 C 
ATOM     34  H5  ALA d   1      10.116  15.565   5.087  0.00  0.00     0.030 H 
ATOM     35  H6  ALA d   1      10.256  14.005   4.209  0.00  0.00     0.030 H 
ATOM     36  H7  ALA d   1      10.664  15.543   3.377  0.00  0.00     0.030 H 
ENDBRANCH  27  33
ENDBRANCH  15  27
ENDBRANCH  10  13
ENDBRANCH   7   9
BRANCH   7  37
ATOM     37  CB  ASP d   1      16.648  11.096  10.017  0.00  0.00     0.043 C 
ATOM     38  H17 ASP d   1      16.328  10.049  10.123  0.00  0.00     0.052 H 
ATOM     39  H18 ASP d   1      16.172  11.706  10.799  0.00  0.00     0.052 H 
BRANCH  37  40
ATOM     40  CG  ASP d   1      18.134  11.161  10.199  0.00  0.00     0.175 C 
ATOM     41  OD1 ASP d   1      18.846  11.569   9.271  0.00  0.00    -0.648 OA
ATOM     42  OD2 ASP d   1      18.605  10.731  11.261  0.00  0.00    -0.648 OA
ENDBRANCH  37  40
ENDBRANCH   7  37
ENDBRANCH   4   7
ENDBRANCH   1   3
BRANCH   1  43
ATOM     43  C   SER d   1      19.082  10.580   5.189  0.00  0.00     0.243 C 
ATOM     44  O   SER d   1      19.665  10.183   4.171  0.00  0.00    -0.271 OA
ATOM     45  N   ARG d   1      19.729  10.823   6.325  0.00  0.00    -0.346 N 
ATOM     46  H24 ARG d   1      19.211  11.104   7.133  0.00  0.00     0.163 HD
BRANCH  45  47
ATOM     47  CA  ARG d   1      21.162  10.690   6.417  0.00  0.00     0.089 C 
ATOM     48  H25 ARG d   1      21.635  11.262   5.605  0.00  0.00     0.087 H 
BRANCH  47  49
ATOM     49  C   ARG d   1      21.544   9.193   6.287  0.00  0.00     0.243 C 
ATOM     50  O   ARG d   1      21.063   8.370   7.046  0.00  0.00    -0.271 OA
ATOM     51  N   PRO d   1      22.425   8.843   5.339  0.00  0.00    -0.336 N 
ATOM     52  CA  PRO d   1      22.910   7.443   5.195  0.00  0.00     0.098 C 
ATOM     53  CD  PRO d   1      22.988   9.742   4.312  0.00  0.00    -0.001 C 
ATOM     54  CB  PRO d   1      23.904   7.523   4.029  0.00  0.00    -0.035 C 
ATOM     55  H37 PRO d   1      22.058   6.803   4.923  0.00  0.00     0.089 H 
ATOM     56  CG  PRO d   1      24.172   8.977   3.795  0.00  0.00    -0.048 C 
ATOM     57  H38 PRO d   1      23.469   7.067   3.127  0.00  0.00     0.036 H 
ATOM     58  H39 PRO d   1      24.837   7.002   4.289  0.00  0.00     0.036 H 
ATOM     59  H40 PRO d   1      24.301   9.167   2.719  0.00  0.00     0.035 H 
ATOM     60  H41 PRO d   1      25.081   9.283   4.333  0.00  0.00     0.035 H 
ATOM     61  H42 PRO d   1      23.300  10.699   4.755  0.00  0.00     0.064 H 
ATOM     62  H43 PRO d   1      22.259   9.929   3.510  0.00  0.00     0.064 H 
BRANCH  52  63
ATOM     63  C   PRO d   1      23.595   6.805   6.418  0.00  0.00     0.196 C 
ATOM     64  O   PRO d   1      24.087   7.512   7.297  0.00  0.00    -0.646 OA
ATOM     65  OXT PRO d   1      23.658   5.581   6.530  0.00  0.00    -0.646 OA
ENDBRANCH  52  63
ENDBRANCH  47  49
BRANCH  47  66
ATOM     66  CB  ARG d   1      21.650  11.228   7.770  0.00  0.00    -0.036 C 
ATOM     67  H26 ARG d   1      21.624  10.404   8.498  0.00  0.00     0.036 H 
ATOM     68  H27 ARG d   1      20.962  12.024   8.092  0.00  0.00     0.036 H 
BRANCH  66  69
ATOM     69  CG  ARG d   1      23.058  11.797   7.747  0.00  0.00    -0.048 C 
ATOM     70  H28 ARG d   1      22.990  12.891   7.650  0.00  0.00     0.035 H 
ATOM     71  H29 ARG d   1      23.586  11.384   6.875  0.00  0.00     0.035 H 
BRANCH  69  72
ATOM     72  CD  ARG d   1      23.866  11.473   8.998  0.00  0.00     0.009 C 
ATOM     73  H30 ARG d   1      23.439  10.589   9.495  0.00  0.00     0.064 H 
ATOM     74  H31 ARG d   1      23.838  12.330   9.687  0.00  0.00     0.064 H 
BRANCH  72  75
ATOM     75  NE  ARG d   1      25.243  11.199   8.615  0.00  0.00    -0.227 N 
ATOM     76  CZ  ARG d   1      26.132  10.561   9.371  0.00  0.00     0.665 C 
ATOM     77  NH1 ARG d   1      25.821  10.152  10.586  0.00  0.00    -0.235 N 
ATOM     78  NH2 ARG d   1      27.352  10.344   8.916  0.00  0.00    -0.235 N 
ATOM     79  H33 ARG d   1      26.521   9.659  11.159  0.00  0.00     0.174 HD
ATOM     80  H34 ARG d   1      24.878  10.325  10.962  0.00  0.00     0.174 HD
ATOM     81  H35 ARG d   1      27.612  10.657   7.970  0.00  0.00     0.174 HD
ATOM     82  H36 ARG d   1      28.044   9.862   9.507  0.00  0.00     0.174 HD
ATOM     83  H32 ARG d   1      25.553  11.524   7.688  0.00  0.00     0.177 HD
ENDBRANCH  72  75
ENDBRANCH  69  72
ENDBRANCH  66  69
ENDBRANCH  47  66
ENDBRANCH  45  47
ENDBRANCH   1  43
BRANCH   1  84
ATOM     84  CB  SER d   1      17.142  11.626   3.940  0.00  0.00     0.044 C 
ATOM     85  H21 SER d   1      16.088  11.916   4.059  0.00  0.00     0.077 H 
ATOM     86  H22 SER d   1      17.249  10.991   3.048  0.00  0.00     0.077 H 
BRANCH  84  87
ATOM     87  OG  SER d   1      17.919  12.821   3.738  0.00  0.00    -0.398 OA
ATOM     88  H23 SER d   1      17.606  13.274   2.964  0.00  0.00     0.209 HD
ENDBRANCH  84  87
ENDBRANCH   1  84
TORSDOF 19
