REMARK  3 active torsions:
REMARK  status: ('A' for Active; 'I' for Inactive)
REMARK    1  A    between atoms: C01_1  and  C05_2 
REMARK    2  A    between atoms: C14_8  and  N15_9 
REMARK    3  A    between atoms: N15_9  and  C17_10 
ROOT
ATOM      1  C05 6XC d   1     -24.982  44.634  10.537  0.00  0.00     0.007 A 
ATOM      2  C06 6XC d   1     -25.983  45.442  10.151  0.00  0.00    -0.060 A 
ATOM      3  C08 6XC d   1     -27.281  45.416  10.764  0.00  0.00    -0.004 A 
ATOM      4  C09 6XC d   1     -28.346  46.235  10.392  0.00  0.00    -0.054 A 
ATOM      5  C11 6XC d   1     -29.540  46.097  11.069  0.00  0.00     0.005 A 
ATOM      6  N13 6XC d   1     -29.746  45.221  12.067  0.00  0.00    -0.241 NA
ATOM      7  C14 6XC d   1     -28.749  44.399  12.461  0.00  0.00     0.151 A 
ATOM      8  C33 6XC d   1     -27.494  44.501  11.796  0.00  0.00     0.091 A 
ATOM      9  N34 6XC d   1     -26.447  43.680  12.173  0.00  0.00    -0.319 N 
ATOM     10  C36 6XC d   1     -25.208  43.681  11.625  0.00  0.00     0.252 A 
ATOM     11  O37 6XC d   1     -24.363  42.896  12.049  0.00  0.00    -0.268 OA
ATOM     12  H4  6XC d   1     -25.803  46.146   9.340  0.00  0.00     0.086 H 
ATOM     13  H5  6XC d   1     -28.239  46.960   9.593  0.00  0.00     0.087 H 
ATOM     14  H6  6XC d   1     -30.365  46.736  10.777  0.00  0.00     0.114 H 
ATOM     15  H19 6XC d   1     -26.619  43.030  12.913  0.00  0.00     0.169 HD
ENDROOT
BRANCH   7  16
ATOM     16  N15 6XC d   1     -29.018  43.544  13.472  0.00  0.00    -0.368 N 
ATOM     17  H7  6XC d   1     -28.225  43.073  13.931  0.00  0.00     0.161 HD
BRANCH  16  18
ATOM     18  C17 6XC d   1     -30.366  43.247  13.954  0.00  0.00     0.014 C 
ATOM     19  C19 6XC d   1     -30.321  42.785  15.399  0.00  0.00    -0.024 C 
ATOM     20  C22 6XC d   1     -31.704  42.398  15.877  0.00  0.00     0.083 C 
ATOM     21  H9  6XC d   1     -29.936  43.601  16.028  0.00  0.00     0.038 H 
ATOM     22  H10 6XC d   1     -29.654  41.914  15.480  0.00  0.00     0.038 H 
ATOM     23  N25 6XC d   1     -32.255  41.345  15.014  0.00  0.00    -0.075 N 
ATOM     24  H11 6XC d   1     -32.362  43.279  15.842  0.00  0.00     0.075 H 
ATOM     25  H12 6XC d   1     -31.642  42.027  16.911  0.00  0.00     0.075 H 
ATOM     26  C27 6XC d   1     -32.388  41.817  13.626  0.00  0.00     0.083 C 
ATOM     27  H13 6XC d   1     -33.163  41.077  15.360  0.00  0.00     0.277 HD
ATOM     28  H14 6XC d   1     -31.639  40.547  15.033  0.00  0.00     0.277 HD
ATOM     29  C30 6XC d   1     -31.028  42.199  13.078  0.00  0.00    -0.024 C 
ATOM     30  H15 6XC d   1     -33.051  42.695  13.601  0.00  0.00     0.075 H 
ATOM     31  H16 6XC d   1     -32.818  41.015  13.008  0.00  0.00     0.075 H 
ATOM     32  H17 6XC d   1     -30.390  41.304  13.042  0.00  0.00     0.038 H 
ATOM     33  H18 6XC d   1     -31.150  42.603  12.062  0.00  0.00     0.038 H 
ATOM     34  H8  6XC d   1     -30.964  44.169  13.903  0.00  0.00     0.072 H 
ENDBRANCH  16  18
ENDBRANCH   7  16
BRANCH   1  35
ATOM     35  C01 6XC d   1     -23.630  44.679   9.880  0.00  0.00    -0.046 C 
ATOM     36  H1  6XC d   1     -23.632  45.444   9.089  0.00  0.00     0.033 H 
ATOM     37  H2  6XC d   1     -23.404  43.697   9.439  0.00  0.00     0.033 H 
ATOM     38  H3  6XC d   1     -22.866  44.929  10.630  0.00  0.00     0.033 H 
ENDBRANCH   1  35
TORSDOF 3
