REMARK  5 active torsions:
REMARK  status: ('A' for Active; 'I' for Inactive)
REMARK    1  A    between atoms: C3_5  and  O3_6 
REMARK    2  A    between atoms: C4_7  and  O4_8 
REMARK    3  A    between atoms: C5_9  and  C6_11 
REMARK    4  A    between atoms: C6_11  and  O6_12 
REMARK    5  A    between atoms: C7_13  and  C8_14 
ROOT
ATOM      1  C1  NSG d   1     -21.198 -32.507  13.301  0.00  0.00     0.115 C 
ATOM      2  S1  NSG d   1     -21.554 -32.887  11.591  0.00  0.00    -0.102 SA
ATOM      3  C2  NSG d   1     -22.580 -32.235  13.891  0.00  0.00     0.163 C 
ATOM      4  N2  NSG d   1     -23.400 -33.326  13.321  0.00  0.00    -0.052 N 
ATOM      5  C3  NSG d   1     -23.132 -30.809  13.543  0.00  0.00     0.093 C 
ATOM      6  C4  NSG d   1     -22.082 -29.690  13.773  0.00  0.00     0.089 C 
ATOM      7  C5  NSG d   1     -20.775 -30.124  13.070  0.00  0.00     0.087 C 
ATOM      8  O5  NSG d   1     -20.322 -31.367  13.557  0.00  0.00    -0.363 OA
ATOM      9  C7  NSG d   1     -23.267 -33.302  11.861  0.00  0.00     0.145 C 
ATOM     10  H1  NSG d   1     -20.745 -33.390  13.775  0.00  0.00     0.104 H 
ATOM     11  H2  NSG d   1     -22.544 -32.326  14.987  0.00  0.00     0.094 H 
ATOM     12  H3  NSG d   1     -24.366 -33.193  13.576  0.00  0.00     0.279 HD
ATOM     13  H4  NSG d   1     -23.078 -34.213  13.676  0.00  0.00     0.279 HD
ATOM     14  H5  NSG d   1     -23.375 -30.814  12.470  0.00  0.00     0.090 H 
ATOM     15  H7  NSG d   1     -22.437 -28.764  13.297  0.00  0.00     0.091 H 
ATOM     16  H9  NSG d   1     -21.003 -30.221  11.998  0.00  0.00     0.090 H 
ATOM     17  H13 NSG d   1     -23.896 -32.494  11.460  0.00  0.00     0.101 H 
ENDROOT
BRANCH   7  18
ATOM     18  C6  NSG d   1     -19.578 -29.154  13.219  0.00  0.00     0.043 C 
ATOM     19  H10 NSG d   1     -19.896 -28.150  12.903  0.00  0.00     0.078 H 
ATOM     20  H11 NSG d   1     -18.760 -29.500  12.570  0.00  0.00     0.078 H 
BRANCH  18  21
ATOM     21  O6  NSG d   1     -19.099 -29.081  14.556  0.00  0.00    -0.398 OA
ATOM     22  H12 NSG d   1     -19.796 -28.776  15.125  0.00  0.00     0.209 HD
ENDBRANCH  18  21
ENDBRANCH   7  18
BRANCH   6  23
ATOM     23  O4  NSG d   1     -21.930 -29.431  15.164  0.00  0.00    -0.390 OA
ATOM     24  H8  NSG d   1     -21.285 -28.745  15.289  0.00  0.00     0.210 HD
ENDBRANCH   6  23
BRANCH   5  25
ATOM     25  O3  NSG d   1     -24.346 -30.504  14.259  0.00  0.00    -0.391 OA
ATOM     26  H6  NSG d   1     -25.013 -31.142  14.035  0.00  0.00     0.210 HD
ENDBRANCH   5  25
BRANCH   9  27
ATOM     27  C8  NSG d   1     -23.712 -34.597  11.171  0.00  0.00    -0.041 C 
ATOM     28  H14 NSG d   1     -24.775 -34.780  11.386  0.00  0.00     0.031 H 
ATOM     29  H15 NSG d   1     -23.111 -35.438  11.547  0.00  0.00     0.031 H 
ATOM     30  H16 NSG d   1     -23.569 -34.502  10.085  0.00  0.00     0.031 H 
ENDBRANCH   9  27
TORSDOF 5
