REMARK  6 active torsions:
REMARK  status: ('A' for Active; 'I' for Inactive)
REMARK    1  A    between atoms: C1_1  and  O1_7 
REMARK    2  A    between atoms: C2_2  and  O2_8 
REMARK    3  A    between atoms: C3_3  and  O3_9 
REMARK    4  A    between atoms: C4_4  and  O4_10 
REMARK    5  A    between atoms: C5_5  and  C6_6 
REMARK    6  A    between atoms: O1_7  and  CM_12 
ROOT
ATOM      1  C1  MFU d   1      -5.239   6.828   9.233  0.00  0.00     0.158 C 
ATOM      2  C2  MFU d   1      -4.270   6.724   8.054  0.00  0.00     0.110 C 
ATOM      3  C3  MFU d   1      -3.969   8.082   7.498  0.00  0.00     0.092 C 
ATOM      4  C4  MFU d   1      -3.319   8.900   8.594  0.00  0.00     0.087 C 
ATOM      5  C5  MFU d   1      -4.250   8.988   9.791  0.00  0.00     0.065 C 
ATOM      6  O5  MFU d   1      -4.648   7.671  10.201  0.00  0.00    -0.351 OA
ATOM      7  H1  MFU d   1      -5.452   5.838   9.662  0.00  0.00     0.133 H 
ATOM      8  H2  MFU d   1      -3.335   6.260   8.401  0.00  0.00     0.094 H 
ATOM      9  H3  MFU d   1      -4.872   8.578   7.111  0.00  0.00     0.091 H 
ATOM     10  H4  MFU d   1      -3.135   9.921   8.227  0.00  0.00     0.091 H 
ATOM     11  H5  MFU d   1      -5.147   9.534   9.463  0.00  0.00     0.086 H 
ENDROOT
BRANCH   1  12
ATOM     12  O1  MFU d   1      -6.411   7.419   8.737  0.00  0.00    -0.363 OA
BRANCH  12  13
ATOM     13  CM  MFU d   1      -7.448   7.429   9.719  0.00  0.00     0.007 C 
ATOM     14  H12 MFU d   1      -8.349   7.898   9.296  0.00  0.00     0.066 H 
ATOM     15  H13 MFU d   1      -7.115   8.000  10.598  0.00  0.00     0.066 H 
ATOM     16  H14 MFU d   1      -7.679   6.396  10.019  0.00  0.00     0.066 H 
ENDBRANCH  12  13
ENDBRANCH   1  12
BRANCH   2  17
ATOM     17  O2  MFU d   1      -4.835   5.927   7.023  0.00  0.00    -0.388 OA
ATOM     18  H9  MFU d   1      -5.030   5.062   7.364  0.00  0.00     0.210 HD
ENDBRANCH   2  17
BRANCH   3  19
ATOM     19  O3  MFU d   1      -2.987   7.853   6.452  0.00  0.00    -0.390 OA
ATOM     20  H10 MFU d   1      -2.695   8.688   6.105  0.00  0.00     0.210 HD
ENDBRANCH   3  19
BRANCH   5  21
ATOM     21  C6  MFU d   1      -3.686   9.726  10.990  0.00  0.00    -0.050 C 
ATOM     22  H6  MFU d   1      -4.431   9.735  11.799  0.00  0.00     0.031 H 
ATOM     23  H7  MFU d   1      -3.443  10.760  10.703  0.00  0.00     0.031 H 
ATOM     24  H8  MFU d   1      -2.774   9.218  11.337  0.00  0.00     0.031 H 
ENDBRANCH   5  21
BRANCH   4  25
ATOM     25  O4  MFU d   1      -2.048   8.281   8.896  0.00  0.00    -0.390 OA
ATOM     26  H11 MFU d   1      -1.603   8.786   9.567  0.00  0.00     0.210 HD
ENDBRANCH   4  25
TORSDOF 6
