REMARK  13 active torsions:
REMARK  status: ('A' for Active; 'I' for Inactive)
REMARK    1  A    between atoms: C06_15  and  O_2 
REMARK    2  A    between atoms: O_2  and  C07_16 
REMARK    3  A    between atoms: C01_3  and  C04_12 
REMARK    4  A    between atoms: C2_8  and  C1_4 
REMARK    5  A    between atoms: N1_5  and  C2_8 
REMARK    6  A    between atoms: C7_17  and  O1_6 
REMARK    7  A    between atoms: C10_21  and  N2_9 
REMARK    8  A    between atoms: N2_9  and  C11_22 
REMARK    9  A    between atoms: N2_9  and  C13_24 
REMARK   10  A    between atoms: C4_13  and  C20_31 
REMARK   11  A    between atoms: C05_14  and  C06_15 
REMARK   12  A    between atoms: C11_22  and  C12_23 
REMARK   13  A    between atoms: C13_24  and  C14_25 
ROOT
ATOM      1  C   KMN d   1      92.232  93.837 -40.863  0.00  0.00    -0.149 C 
ATOM      2  C20 KMN d   1      91.966  93.953 -42.028  0.00  0.00    -0.075 C 
ATOM      3  H1  KMN d   1      92.466  93.735 -39.838  0.00  0.00     0.166 H 
ENDROOT
BRANCH   2   4
ATOM      4  C4  KMN d   1      91.632  94.134 -43.409  0.00  0.00     0.052 A 
ATOM      5  C02 KMN d   1      91.795  93.081 -44.315  0.00  0.00    -0.044 A 
ATOM      6  C01 KMN d   1      91.460  93.274 -45.656  0.00  0.00     0.019 A 
ATOM      7  H4  KMN d   1      92.178  92.124 -43.979  0.00  0.00     0.088 H 
ATOM      8  C3  KMN d   1      90.981  94.515 -46.093  0.00  0.00    -0.054 A 
ATOM      9  C1  KMN d   1      90.815  95.582 -45.193  0.00  0.00     0.004 A 
ATOM     10  H10 KMN d   1      90.735  94.655 -47.139  0.00  0.00     0.086 H 
ATOM     11  C7  KMN d   1      91.150  95.372 -43.841  0.00  0.00     0.092 A 
BRANCH   6  12
ATOM     12  C04 KMN d   1      91.636  92.201 -46.589  0.00  0.00    -0.065 C 
ATOM     13  C05 KMN d   1      91.806  91.329 -47.399  0.00  0.00    -0.074 C 
BRANCH  13  14
ATOM     14  C06 KMN d   1      92.036  90.246 -48.369  0.00  0.00     0.081 C 
ATOM     15  H11 KMN d   1      92.697  90.619 -49.166  0.00  0.00     0.094 H 
ATOM     16  H12 KMN d   1      92.522  89.406 -47.852  0.00  0.00     0.094 H 
BRANCH  14  17
ATOM     17  O   KMN d   1      90.820  89.781 -48.960  0.00  0.00    -0.340 OA
BRANCH  17  18
ATOM     18  C07 KMN d   1      90.243  90.573 -49.909  0.00  0.00     0.070 A 
ATOM     19  C08 KMN d   1      88.982  90.152 -50.346  0.00  0.00    -0.051 A 
ATOM     20  C09 KMN d   1      88.291  90.884 -51.314  0.00  0.00    -0.080 A 
ATOM     21  H13 KMN d   1      88.540  89.254 -49.931  0.00  0.00     0.087 H 
ATOM     22  C17 KMN d   1      88.861  92.037 -51.847  0.00  0.00    -0.083 A 
ATOM     23  H16 KMN d   1      87.314  90.555 -51.649  0.00  0.00     0.083 H 
ATOM     24  C18 KMN d   1      90.119  92.461 -51.416  0.00  0.00    -0.080 A 
ATOM     25  H32 KMN d   1      88.326  92.607 -52.599  0.00  0.00     0.083 H 
ATOM     26  C19 KMN d   1      90.811  91.727 -50.446  0.00  0.00    -0.051 A 
ATOM     27  H33 KMN d   1      90.560  93.359 -51.833  0.00  0.00     0.083 H 
ATOM     28  H34 KMN d   1      91.788  92.056 -50.112  0.00  0.00     0.087 H 
ENDBRANCH  17  18
ENDBRANCH  14  17
ENDBRANCH  13  14
ENDBRANCH   6  12
BRANCH   9  29
ATOM     29  C2  KMN d   1      90.282  96.896 -45.706  0.00  0.00     0.110 C 
ATOM     30  H5  KMN d   1      89.185  96.873 -45.630  0.00  0.00     0.083 H 
ATOM     31  H6  KMN d   1      90.574  96.995 -46.762  0.00  0.00     0.083 H 
BRANCH  29  32
ATOM     32  N1  KMN d   1      90.782  98.124 -44.961  0.00  0.00    -0.067 N 
ATOM     33  C03 KMN d   1      89.781  99.239 -45.075  0.00  0.00     0.086 C 
ATOM     34  C8  KMN d   1      90.277 100.456 -44.306  0.00  0.00    -0.015 C 
ATOM     35  H8  KMN d   1      88.818  98.910 -44.657  0.00  0.00     0.076 H 
ATOM     36  H9  KMN d   1      89.649  99.505 -46.134  0.00  0.00     0.076 H 
ATOM     37  C10 KMN d   1      91.638 100.889 -44.843  0.00  0.00     0.107 C 
ATOM     38  H14 KMN d   1      90.370 100.201 -43.240  0.00  0.00     0.038 H 
ATOM     39  H15 KMN d   1      89.559 101.281 -44.425  0.00  0.00     0.038 H 
ATOM     40  C15 KMN d   1      92.657  99.758 -44.660  0.00  0.00    -0.015 C 
ATOM     41  H17 KMN d   1      91.528 101.068 -45.923  0.00  0.00     0.084 H 
ATOM     42  C16 KMN d   1      92.176  98.507 -45.387  0.00  0.00     0.086 C 
ATOM     43  H28 KMN d   1      92.769  99.537 -43.588  0.00  0.00     0.038 H 
ATOM     44  H29 KMN d   1      93.627 100.070 -45.073  0.00  0.00     0.038 H 
ATOM     45  H30 KMN d   1      92.179  98.699 -46.470  0.00  0.00     0.076 H 
ATOM     46  H31 KMN d   1      92.860  97.676 -45.160  0.00  0.00     0.076 H 
ATOM     47  H2  KMN d   1      90.838  97.880 -43.985  0.00  0.00     0.280 HD
BRANCH  37  48
ATOM     48  N2  KMN d   1      92.119 102.207 -44.209  0.00  0.00    -0.067 N 
ATOM     49  H7  KMN d   1      92.451 102.760 -44.983  0.00  0.00     0.280 HD
BRANCH  48  50
ATOM     50  C11 KMN d   1      90.975 103.008 -43.579  0.00  0.00     0.081 C 
ATOM     51  H18 KMN d   1      91.354 103.556 -42.704  0.00  0.00     0.075 H 
ATOM     52  H19 KMN d   1      90.179 102.318 -43.263  0.00  0.00     0.075 H 
BRANCH  50  53
ATOM     53  C12 KMN d   1      90.411 103.998 -44.585  0.00  0.00    -0.053 C 
ATOM     54  H20 KMN d   1      89.591 104.566 -44.120  0.00  0.00     0.029 H 
ATOM     55  H21 KMN d   1      90.029 103.453 -45.461  0.00  0.00     0.029 H 
ATOM     56  H22 KMN d   1      91.204 104.691 -44.901  0.00  0.00     0.029 H 
ENDBRANCH  50  53
ENDBRANCH  48  50
BRANCH  48  57
ATOM     57  C13 KMN d   1      93.301 102.108 -43.252  0.00  0.00     0.081 C 
ATOM     58  H23 KMN d   1      94.184 101.744 -43.798  0.00  0.00     0.075 H 
ATOM     59  H24 KMN d   1      93.056 101.406 -42.441  0.00  0.00     0.075 H 
BRANCH  57  60
ATOM     60  C14 KMN d   1      93.602 103.475 -42.661  0.00  0.00    -0.053 C 
ATOM     61  H25 KMN d   1      94.456 103.397 -41.972  0.00  0.00     0.029 H 
ATOM     62  H26 KMN d   1      92.721 103.840 -42.113  0.00  0.00     0.029 H 
ATOM     63  H27 KMN d   1      93.848 104.178 -43.470  0.00  0.00     0.029 H 
ENDBRANCH  57  60
ENDBRANCH  48  57
ENDBRANCH  37  48
ENDBRANCH  29  32
ENDBRANCH   9  29
BRANCH  11  64
ATOM     64  O1  KMN d   1      90.992  96.409 -42.940  0.00  0.00    -0.359 OA
ATOM     65  H3  KMN d   1      91.257  96.119 -42.075  0.00  0.00     0.217 HD
ENDBRANCH  11  64
ENDBRANCH   2   4
TORSDOF 13
