REMARK  6 active torsions:
REMARK  status: ('A' for Active; 'I' for Inactive)
REMARK    1  A    between atoms: C01_1  and  C05_2 
REMARK    2  A    between atoms: C14_8  and  N15_9 
REMARK    3  A    between atoms: N15_9  and  C17_10 
REMARK    4  A    between atoms: C30_15  and  O32_16 
REMARK    5  A    between atoms: O32_16  and  C33_17 
REMARK    6  A    between atoms: C33_17  and  C36_18 
ROOT
ATOM      1  C17 78J d   1     -30.259  43.543  14.114  0.00  0.00     0.039 C 
ATOM      2  C19 78J d   1     -30.204  43.040  15.554  0.00  0.00    -0.021 C 
ATOM      3  C22 78J d   1     -31.589  42.652  16.026  0.00  0.00     0.084 C 
ATOM      4  N25 78J d   1     -32.135  41.597  15.167  0.00  0.00    -0.073 N 
ATOM      5  C27 78J d   1     -32.275  42.077  13.793  0.00  0.00     0.107 C 
ATOM      6  C30 78J d   1     -30.925  42.497  13.232  0.00  0.00     0.081 C 
ATOM      7  H8  78J d   1     -30.870  44.458  14.086  0.00  0.00     0.076 H 
ATOM      8  H9  78J d   1     -29.809  43.836  16.202  0.00  0.00     0.038 H 
ATOM      9  H10 78J d   1     -29.543  42.162  15.607  0.00  0.00     0.038 H 
ATOM     10  H11 78J d   1     -32.248  43.532  15.985  0.00  0.00     0.075 H 
ATOM     11  H12 78J d   1     -31.531  42.285  17.061  0.00  0.00     0.075 H 
ATOM     12  H13 78J d   1     -33.039  41.320  15.515  0.00  0.00     0.277 HD
ATOM     13  H14 78J d   1     -31.513  40.804  15.180  0.00  0.00     0.277 HD
ATOM     14  H15 78J d   1     -32.956  42.940  13.779  0.00  0.00     0.079 H 
ATOM     15  H16 78J d   1     -32.691  41.272  13.169  0.00  0.00     0.079 H 
ATOM     16  H17 78J d   1     -30.274  41.612  13.167  0.00  0.00     0.089 H 
ENDROOT
BRANCH   1  17
ATOM     17  N15 78J d   1     -28.924  43.875  13.639  0.00  0.00    -0.366 N 
ATOM     18  H7  78J d   1     -28.138  43.373  14.076  0.00  0.00     0.161 HD
BRANCH  17  19
ATOM     19  C14 78J d   1     -28.613  44.776  12.682  0.00  0.00     0.151 A 
ATOM     20  N13 78J d   1     -29.542  45.710  12.386  0.00  0.00    -0.241 NA
ATOM     21  C11 78J d   1     -29.289  46.640  11.448  0.00  0.00     0.005 A 
ATOM     22  C09 78J d   1     -28.108  46.726  10.742  0.00  0.00    -0.054 A 
ATOM     23  H6  78J d   1     -30.063  47.368  11.233  0.00  0.00     0.114 H 
ATOM     24  C08 78J d   1     -27.110  45.788  11.009  0.00  0.00    -0.004 A 
ATOM     25  H5  78J d   1     -27.959  47.502   9.999  0.00  0.00     0.087 H 
ATOM     26  C06 78J d   1     -25.835  45.758  10.344  0.00  0.00    -0.060 A 
ATOM     27  C53 78J d   1     -27.374  44.820  11.985  0.00  0.00     0.091 A 
ATOM     28  C05 78J d   1     -24.932  44.821  10.673  0.00  0.00     0.007 A 
ATOM     29  H4  78J d   1     -25.603  46.494   9.575  0.00  0.00     0.086 H 
ATOM     30  C56 78J d   1     -25.182  43.810  11.691  0.00  0.00     0.252 A 
ATOM     31  N54 78J d   1     -26.400  43.880  12.276  0.00  0.00    -0.319 N 
ATOM     32  O57 78J d   1     -24.386  42.932  12.020  0.00  0.00    -0.268 OA
ATOM     33  H31 78J d   1     -26.614  43.198  12.975  0.00  0.00     0.169 HD
BRANCH  28  34
ATOM     34  C01 78J d   1     -23.605  44.820   9.960  0.00  0.00    -0.046 C 
ATOM     35  H1  78J d   1     -23.581  45.642   9.229  0.00  0.00     0.033 H 
ATOM     36  H2  78J d   1     -23.470  43.861   9.438  0.00  0.00     0.033 H 
ATOM     37  H3  78J d   1     -22.795  44.957  10.692  0.00  0.00     0.033 H 
ENDBRANCH  28  34
ENDBRANCH  17  19
ENDBRANCH   1  17
BRANCH   6  38
ATOM     38  O32 78J d   1     -31.105  43.055  11.927  0.00  0.00    -0.382 OA
BRANCH  38  39
ATOM     39  C33 78J d   1     -31.200  42.104  10.863  0.00  0.00     0.024 C 
ATOM     40  H18 78J d   1     -32.126  41.522  10.977  0.00  0.00     0.074 H 
ATOM     41  H19 78J d   1     -30.334  41.427  10.902  0.00  0.00     0.074 H 
BRANCH  39  42
ATOM     42  C36 78J d   1     -31.218  42.815   9.533  0.00  0.00    -0.033 C 
ATOM     43  C38 78J d   1     -29.896  43.531   9.287  0.00  0.00    -0.060 C 
ATOM     44  C41 78J d   1     -29.842  44.205   7.920  0.00  0.00    -0.065 C 
ATOM     45  H21 78J d   1     -29.080  42.796   9.350  0.00  0.00     0.033 H 
ATOM     46  H22 78J d   1     -29.760  44.298  10.064  0.00  0.00     0.033 H 
ATOM     47  C44 78J d   1     -30.103  43.209   6.808  0.00  0.00    -0.065 C 
ATOM     48  H23 78J d   1     -28.846  44.649   7.778  0.00  0.00     0.033 H 
ATOM     49  H24 78J d   1     -30.605  44.996   7.880  0.00  0.00     0.033 H 
ATOM     50  C47 78J d   1     -31.419  42.483   7.025  0.00  0.00    -0.065 C 
ATOM     51  H25 78J d   1     -29.286  42.473   6.785  0.00  0.00     0.033 H 
ATOM     52  H26 78J d   1     -30.142  43.744   5.848  0.00  0.00     0.033 H 
ATOM     53  C50 78J d   1     -31.465  41.824   8.402  0.00  0.00    -0.060 C 
ATOM     54  H27 78J d   1     -31.533  41.708   6.252  0.00  0.00     0.033 H 
ATOM     55  H28 78J d   1     -32.245  43.205   6.945  0.00  0.00     0.033 H 
ATOM     56  H29 78J d   1     -32.457  41.369   8.542  0.00  0.00     0.033 H 
ATOM     57  H30 78J d   1     -30.693  41.041   8.444  0.00  0.00     0.033 H 
ATOM     58  H20 78J d   1     -32.030  43.557   9.542  0.00  0.00     0.043 H 
ENDBRANCH  39  42
ENDBRANCH  38  39
ENDBRANCH   6  38
TORSDOF 6
