REMARK  4 active torsions:
REMARK  status: ('A' for Active; 'I' for Inactive)
REMARK    1  A    between atoms: C2_15  and  N17_27 
REMARK    2  A    between atoms: C8_18  and  C9_19 
REMARK    3  A    between atoms: N20_25  and  C25_20 
REMARK    4  A    between atoms: N26_26  and  C29_21 
ROOT
ATOM      1  C23 5P8 d   1      26.646  48.824   7.250  0.00  0.00     0.120 C 
ATOM      2  C12 5P8 d   1      34.564  47.010   8.914  0.00  0.00    -0.064 A 
ATOM      3  C13 5P8 d   1      34.985  46.808  10.249  0.00  0.00    -0.045 A 
ATOM      4  C6  5P8 d   1      29.970  45.886   8.495  0.00  0.00    -0.035 A 
ATOM      5  C15 5P8 d   1      33.630  44.754  10.378  0.00  0.00    -0.036 A 
ATOM      6  C4  5P8 d   1      27.855  46.522   9.360  0.00  0.00     0.015 A 
ATOM      7  C19 5P8 d   1      28.075  48.943   7.184  0.00  0.00     0.145 A 
ATOM      8  C5  5P8 d   1      28.946  46.856   8.522  0.00  0.00    -0.000 A 
ATOM      9  C18 5P8 d   1      29.094  48.118   7.715  0.00  0.00     0.043 A 
ATOM     10  C11 5P8 d   1      33.664  46.084   8.291  0.00  0.00     0.041 A 
ATOM     11  C10 5P8 d   1      33.172  44.918   9.020  0.00  0.00    -0.011 A 
ATOM     12  C1  5P8 d   1      29.955  44.676   9.229  0.00  0.00     0.116 A 
ATOM     13  C14 5P8 d   1      34.520  45.691  10.965  0.00  0.00     0.117 A 
ATOM     14  C22 5P8 d   1      30.319  48.803   7.292  0.00  0.00     0.086 A 
ATOM     15  C2  5P8 d   1      28.815  44.442  10.038  0.00  0.00     0.154 A 
ATOM     16  C27 5P8 d   1      33.281  46.391   6.873  0.00  0.00     0.254 C 
ATOM     17  C28 5P8 d   1      31.786  48.467   7.523  0.00  0.00     0.040 C 
ATOM     18  C8  5P8 d   1      32.190  43.869   8.420  0.00  0.00     0.068 C 
ATOM     19  N24 5P8 d   1      25.497  48.713   7.328  0.00  0.00    -0.190 NA
ATOM     20  N3  5P8 d   1      27.778  45.353  10.100  0.00  0.00    -0.240 NA
ATOM     21  N21 5P8 d   1      30.057  49.910   6.587  0.00  0.00    -0.174 NA
ATOM     22  N20 5P8 d   1      28.727  49.977   6.534  0.00  0.00    -0.263 N 
ATOM     23  N26 5P8 d   1      32.411  47.496   6.548  0.00  0.00    -0.347 N 
ATOM     24  O30 5P8 d   1      33.774  45.620   6.037  0.00  0.00    -0.267 OA
ATOM     25  O7  5P8 d   1      30.966  43.709   9.223  0.00  0.00    -0.338 OA
ATOM     26  F16 5P8 d   1      34.925  45.512  12.225  0.00  0.00    -0.206 F 
ATOM     27  H1  5P8 d   1      34.923  47.869   8.359  0.00  0.00     0.085 H 
ATOM     28  H2  5P8 d   1      35.663  47.511  10.718  0.00  0.00     0.088 H 
ATOM     29  H3  5P8 d   1      30.831  46.082   7.866  0.00  0.00     0.089 H 
ATOM     30  H4  5P8 d   1      33.290  43.904  10.958  0.00  0.00     0.089 H 
ATOM     31  H5  5P8 d   1      27.030  47.223   9.427  0.00  0.00     0.116 H 
ATOM     32  H6  5P8 d   1      31.877  48.035   8.531  0.00  0.00     0.074 H 
ATOM     33  H7  5P8 d   1      32.357  49.406   7.474  0.00  0.00     0.074 H 
ATOM     34  H8  5P8 d   1      31.916  44.200   7.407  0.00  0.00     0.091 H 
ENDROOT
BRANCH  22  35
ATOM     35  C25 5P8 d   1      28.129  51.097   5.825  0.00  0.00     0.004 C 
ATOM     36  H12 5P8 d   1      28.924  51.742   5.421  0.00  0.00     0.059 H 
ATOM     37  H13 5P8 d   1      27.503  51.678   6.518  0.00  0.00     0.059 H 
ATOM     38  H14 5P8 d   1      27.509  50.719   4.999  0.00  0.00     0.059 H 
ENDBRANCH  22  35
BRANCH  23  39
ATOM     39  C29 5P8 d   1      32.115  47.696   5.119  0.00  0.00    -0.015 C 
ATOM     40  H15 5P8 d   1      32.630  46.925   4.527  0.00  0.00     0.056 H 
ATOM     41  H16 5P8 d   1      32.464  48.692   4.808  0.00  0.00     0.056 H 
ATOM     42  H17 5P8 d   1      31.030  47.620   4.955  0.00  0.00     0.056 H 
ENDBRANCH  23  39
BRANCH  15  43
ATOM     43  N17 5P8 d   1      28.725  43.263  10.806  0.00  0.00    -0.382 N 
ATOM     44  H18 5P8 d   1      27.896  43.093  11.394  0.00  0.00     0.157 HD
ATOM     45  H19 5P8 d   1      29.488  42.571  10.779  0.00  0.00     0.157 HD
ENDBRANCH  15  43
BRANCH  18  46
ATOM     46  C9  5P8 d   1      32.827  42.469   8.344  0.00  0.00    -0.048 C 
ATOM     47  H9  5P8 d   1      32.103  41.760   7.916  0.00  0.00     0.031 H 
ATOM     48  H10 5P8 d   1      33.110  42.139   9.355  0.00  0.00     0.031 H 
ATOM     49  H11 5P8 d   1      33.723  42.508   7.707  0.00  0.00     0.031 H 
ENDBRANCH  18  46
TORSDOF 4
