REMARK  3 active torsions:
REMARK  status: ('A' for Active; 'I' for Inactive)
REMARK    1  A    between atoms: C13_13  and  C14_14 
REMARK       I    between atoms: N2_21  and  C13_13 
REMARK    2  A    between atoms: C14_14  and  N3_22 
REMARK    3  A    between atoms: N1_20  and  N2_21 
ROOT
ATOM      1  C13 XOC d   1      -8.063  -5.578  13.421  0.00  0.00     0.262 C 
ATOM      2  N2  XOC d   1      -8.427  -4.522  12.670  0.00  0.00    -0.261 N 
ATOM      3  O2  XOC d   1      -7.014  -5.673  14.063  0.00  0.00    -0.270 OA
ATOM      4  H21 XOC d   1      -9.380  -4.221  12.692  0.00  0.00     0.190 HD
ENDROOT
BRANCH   2   5
ATOM      5  N1  XOC d   1      -7.505  -3.819  11.846  0.00  0.00    -0.251 N 
ATOM      6  C6  XOC d   1      -7.454  -2.400  11.816  0.00  0.00     0.074 A 
ATOM      7  C1  XOC d   1      -7.386  -1.816  10.561  0.00  0.00     0.034 A 
ATOM      8  C5  XOC d   1      -7.430  -1.585  12.948  0.00  0.00    -0.054 A 
ATOM      9  C2  XOC d   1      -7.300  -0.437  10.386  0.00  0.00    -0.064 A 
ATOM     10  S1  XOC d   1      -7.386  -2.937   9.202  0.00  0.00    -0.086 SA
ATOM     11  C3  XOC d   1      -7.287   0.375  11.513  0.00  0.00    -0.082 A 
ATOM     12  H1  XOC d   1      -7.244  -0.007   9.393  0.00  0.00     0.085 H 
ATOM     13  C4  XOC d   1      -7.350  -0.204  12.781  0.00  0.00    -0.081 A 
ATOM     14  H2  XOC d   1      -7.228   1.452  11.408  0.00  0.00     0.083 H 
ATOM     15  H3  XOC d   1      -7.336   0.435  13.656  0.00  0.00     0.083 H 
ATOM     16  C12 XOC d   1      -6.165  -4.006   9.893  0.00  0.00     0.034 A 
ATOM     17  C7  XOC d   1      -6.355  -4.373  11.222  0.00  0.00     0.074 A 
ATOM     18  C11 XOC d   1      -5.065  -4.439   9.160  0.00  0.00    -0.064 A 
ATOM     19  C8  XOC d   1      -5.413  -5.197  11.845  0.00  0.00    -0.054 A 
ATOM     20  C9  XOC d   1      -4.314  -5.643  11.109  0.00  0.00    -0.081 A 
ATOM     21  H5  XOC d   1      -5.534  -5.485  12.883  0.00  0.00     0.087 H 
ATOM     22  C10 XOC d   1      -4.136  -5.268   9.784  0.00  0.00    -0.082 A 
ATOM     23  H6  XOC d   1      -3.586  -6.294  11.580  0.00  0.00     0.083 H 
ATOM     24  H7  XOC d   1      -3.272  -5.622   9.234  0.00  0.00     0.083 H 
ATOM     25  H8  XOC d   1      -4.934  -4.138   8.127  0.00  0.00     0.085 H 
ATOM     26  H4  XOC d   1      -7.473  -2.019  13.941  0.00  0.00     0.087 H 
ENDBRANCH   2   5
BRANCH   1  27
ATOM     27  C14 XOC d   1      -9.102  -6.697  13.448  0.00  0.00     0.157 C 
ATOM     28  H9  XOC d   1      -9.903  -6.448  12.737  0.00  0.00     0.090 H 
ATOM     29  H10 XOC d   1      -9.520  -6.763  14.463  0.00  0.00     0.090 H 
BRANCH  27  30
ATOM     30  N3  XOC d   1      -8.545  -8.005  13.086  0.00  0.00    -0.063 N 
ATOM     31  C15 XOC d   1      -7.819  -8.557  14.256  0.00  0.00     0.084 C 
ATOM     32  C16 XOC d   1      -7.408  -9.998  14.055  0.00  0.00    -0.042 C 
ATOM     33  H11 XOC d   1      -6.916  -7.953  14.428  0.00  0.00     0.076 H 
ATOM     34  H12 XOC d   1      -8.474  -8.497  15.138  0.00  0.00     0.076 H 
ATOM     35  C17 XOC d   1      -7.445 -10.284  12.601  0.00  0.00    -0.062 C 
ATOM     36  H13 XOC d   1      -8.106 -10.663  14.585  0.00  0.00     0.035 H 
ATOM     37  H14 XOC d   1      -6.390 -10.153  14.441  0.00  0.00     0.035 H 
ATOM     38  C18 XOC d   1      -8.901 -10.193  12.163  0.00  0.00    -0.042 C 
ATOM     39  H15 XOC d   1      -7.055 -11.293  12.405  0.00  0.00     0.033 H 
ATOM     40  H16 XOC d   1      -6.840  -9.545  12.056  0.00  0.00     0.033 H 
ATOM     41  C19 XOC d   1      -9.576  -8.965  12.718  0.00  0.00     0.084 C 
ATOM     42  H17 XOC d   1      -9.437 -11.085  12.519  0.00  0.00     0.035 H 
ATOM     43  H18 XOC d   1      -8.941 -10.155  11.064  0.00  0.00     0.035 H 
ATOM     44  H19 XOC d   1     -10.168  -9.234  13.605  0.00  0.00     0.076 H 
ATOM     45  H20 XOC d   1     -10.237  -8.527  11.956  0.00  0.00     0.076 H 
ATOM     46  H22 XOC d   1      -7.910  -7.887  12.312  0.00  0.00     0.280 HD
ENDBRANCH  27  30
ENDBRANCH   1  27
TORSDOF 3
