REMARK  5 active torsions:
REMARK  status: ('A' for Active; 'I' for Inactive)
REMARK    1  A    between atoms: C10_18  and  N_1 
REMARK    2  A    between atoms: C2_8  and  C1_4 
REMARK    3  A    between atoms: N1_5  and  C2_8 
REMARK    4  A    between atoms: C7_17  and  O1_6 
REMARK    5  A    between atoms: C06_14  and  O_15 
ROOT
ATOM      1  N1  UL7 d   1      90.461  98.121 -44.494  0.00  0.00    -0.067 N 
ATOM      2  C03 UL7 d   1      91.807  98.381 -45.101  0.00  0.00     0.086 C 
ATOM      3  C10 UL7 d   1      91.428 100.791 -44.655  0.00  0.00     0.107 C 
ATOM      4  C15 UL7 d   1      90.110 100.477 -43.950  0.00  0.00    -0.015 C 
ATOM      5  C16 UL7 d   1      89.485  99.267 -44.607  0.00  0.00     0.086 C 
ATOM      6  C8  UL7 d   1      92.422  99.633 -44.502  0.00  0.00    -0.015 C 
ATOM      7  H4  UL7 d   1      90.597  97.937 -43.512  0.00  0.00     0.280 HD
ATOM      8  H9  UL7 d   1      91.695  98.515 -46.187  0.00  0.00     0.076 H 
ATOM      9  H10 UL7 d   1      92.466  97.523 -44.904  0.00  0.00     0.076 H 
ATOM     10  H20 UL7 d   1      91.223 100.911 -45.729  0.00  0.00     0.084 H 
ATOM     11  H21 UL7 d   1      89.430 101.337 -44.036  0.00  0.00     0.038 H 
ATOM     12  H22 UL7 d   1      90.300 100.264 -42.888  0.00  0.00     0.038 H 
ATOM     13  H23 UL7 d   1      88.545  99.009 -44.097  0.00  0.00     0.076 H 
ATOM     14  H24 UL7 d   1      89.281  99.481 -45.666  0.00  0.00     0.076 H 
ATOM     15  H25 UL7 d   1      93.356  99.875 -45.029  0.00  0.00     0.038 H 
ATOM     16  H26 UL7 d   1      92.635  99.467 -43.436  0.00  0.00     0.038 H 
ENDROOT
BRANCH   3  17
ATOM     17  N   UL7 d   1      91.974 102.113 -44.135  0.00  0.00    -0.067 N 
ATOM     18  C   UL7 d   1      92.526 102.986 -45.247  0.00  0.00     0.086 C 
ATOM     19  C07 UL7 d   1      92.811 104.375 -44.691  0.00  0.00    -0.018 C 
ATOM     20  H2  UL7 d   1      91.788 103.058 -46.060  0.00  0.00     0.076 H 
ATOM     21  H3  UL7 d   1      93.457 102.546 -45.634  0.00  0.00     0.076 H 
ATOM     22  C06 UL7 d   1      93.674 104.351 -43.435  0.00  0.00     0.038 C 
ATOM     23  H18 UL7 d   1      91.853 104.858 -44.448  0.00  0.00     0.039 H 
ATOM     24  H19 UL7 d   1      93.332 104.961 -45.463  0.00  0.00     0.039 H 
ATOM     25  C05 UL7 d   1      93.091 103.421 -42.382  0.00  0.00    -0.018 C 
ATOM     26  H16 UL7 d   1      94.686 104.009 -43.698  0.00  0.00     0.083 H 
ATOM     27  C04 UL7 d   1      92.938 102.023 -42.970  0.00  0.00     0.086 C 
ATOM     28  H14 UL7 d   1      93.765 103.382 -41.513  0.00  0.00     0.039 H 
ATOM     29  H15 UL7 d   1      92.106 103.796 -42.066  0.00  0.00     0.039 H 
ATOM     30  H12 UL7 d   1      93.914 101.655 -43.320  0.00  0.00     0.076 H 
ATOM     31  H13 UL7 d   1      92.540 101.338 -42.207  0.00  0.00     0.076 H 
ATOM     32  H1  UL7 d   1      91.170 102.602 -43.774  0.00  0.00     0.280 HD
BRANCH  22  33
ATOM     33  O   UL7 d   1      93.737 105.662 -42.902  0.00  0.00    -0.395 OA
ATOM     34  H17 UL7 d   1      94.100 106.250 -43.553  0.00  0.00     0.210 HD
ENDBRANCH  22  33
ENDBRANCH   3  17
BRANCH   1  35
ATOM     35  C2  UL7 d   1      89.889  96.898 -45.137  0.00  0.00     0.110 C 
ATOM     36  H7  UL7 d   1      88.795  96.915 -45.021  0.00  0.00     0.083 H 
ATOM     37  H8  UL7 d   1      90.145  96.907 -46.207  0.00  0.00     0.083 H 
BRANCH  35  38
ATOM     38  C1  UL7 d   1      90.421  95.637 -44.523  0.00  0.00     0.004 A 
ATOM     39  C3  UL7 d   1      90.498  94.486 -45.313  0.00  0.00    -0.051 A 
ATOM     40  C01 UL7 d   1      90.983  93.288 -44.773  0.00  0.00     0.036 A 
ATOM     41  H11 UL7 d   1      90.181  94.521 -46.349  0.00  0.00     0.087 H 
ATOM     42  C02 UL7 d   1      91.391  93.256 -43.431  0.00  0.00    -0.042 A 
ATOM     43 CL   UL7 d   1      91.053  91.900 -45.782  0.00  0.00    -0.084 Cl
ATOM     44  C4  UL7 d   1      91.319  94.414 -42.644  0.00  0.00     0.046 A 
ATOM     45  H6  UL7 d   1      91.763  92.333 -43.001  0.00  0.00     0.088 H 
ATOM     46  C7  UL7 d   1      90.831  95.609 -43.180  0.00  0.00     0.091 A 
ATOM     47 BR   UL7 d   1      91.867  94.320 -40.842  0.00  0.00    -0.048 Br
BRANCH  46  48
ATOM     48  O1  UL7 d   1      90.745  96.763 -42.433  0.00  0.00    -0.359 OA
ATOM     49  H5  UL7 d   1      91.055  96.592 -41.551  0.00  0.00     0.217 HD
ENDBRANCH  46  48
ENDBRANCH  35  38
ENDBRANCH   1  35
TORSDOF 5
