REMARK  7 active torsions:
REMARK  status: ('A' for Active; 'I' for Inactive)
REMARK    1  A    between atoms: C17_2  and  C18_3 
REMARK       I    between atoms: C17_2  and  N2_4 
REMARK    2  A    between atoms: C2_5  and  C1_6 
REMARK    3  A    between atoms: C4_9  and  N1_10 
REMARK    4  A    between atoms: N1_10  and  C5_11 
REMARK    5  A    between atoms: C13_20  and  C19_22 
REMARK    6  A    between atoms: C22_25  and  C23_28 
REMARK    7  A    between atoms: C23_28  and  N3_29 
ROOT
ATOM      1  O   9S3 d   1      -3.722 -10.014  18.145  0.00  0.00    -0.273 OA
ATOM      2  C17 9S3 d   1      -3.386  -8.983  18.727  0.00  0.00     0.220 C 
ATOM      3  N2  9S3 d   1      -2.290  -9.014  19.592  0.00  0.00    -0.313 N 
ATOM      4  C2  9S3 d   1      -1.596 -10.325  19.730  0.00  0.00     0.018 C 
ATOM      5  C16 9S3 d   1      -1.790  -7.898  20.330  0.00  0.00     0.046 A 
ATOM      6  C11 9S3 d   1      -1.443  -8.098  21.667  0.00  0.00    -0.008 A 
ATOM      7  C4  9S3 d   1      -1.644  -9.508  22.147  0.00  0.00     0.039 C 
ATOM      8  C3  9S3 d   1      -1.054 -10.509  21.157  0.00  0.00    -0.023 C 
ATOM      9  C15 9S3 d   1      -1.635  -6.631  19.770  0.00  0.00    -0.056 A 
ATOM     10  C14 9S3 d   1      -1.150  -5.580  20.521  0.00  0.00    -0.070 A 
ATOM     11  C13 9S3 d   1      -0.789  -5.760  21.860  0.00  0.00    -0.025 A 
ATOM     12  C12 9S3 d   1      -0.946  -7.038  22.417  0.00  0.00    -0.062 A 
ATOM     13  H4  9S3 d   1      -2.342 -11.115  19.561  0.00  0.00     0.073 H 
ATOM     14  H8  9S3 d   1      -2.730  -9.683  22.174  0.00  0.00     0.080 H 
ATOM     15  H15 9S3 d   1       0.038 -10.382  21.137  0.00  0.00     0.039 H 
ATOM     16  H16 9S3 d   1      -1.298 -11.526  21.497  0.00  0.00     0.039 H 
ATOM     17  H17 9S3 d   1      -1.899  -6.469  18.731  0.00  0.00     0.087 H 
ATOM     18  H18 9S3 d   1      -1.047  -4.601  20.067  0.00  0.00     0.084 H 
ATOM     19  H19 9S3 d   1      -0.674  -7.202  23.453  0.00  0.00     0.085 H 
ENDROOT
BRANCH  11  20
ATOM     20  C19 9S3 d   1      -0.260  -4.599  22.689  0.00  0.00    -0.026 A 
ATOM     21  C30 9S3 d   1      -0.717  -3.302  22.479  0.00  0.00    -0.072 A 
ATOM     22  C29 9S3 d   1      -0.251  -2.248  23.243  0.00  0.00    -0.074 A 
ATOM     23  H20 9S3 d   1      -1.451  -3.115  21.703  0.00  0.00     0.084 H 
ATOM     24  C22 9S3 d   1       0.708  -2.450  24.225  0.00  0.00    -0.033 A 
ATOM     25  H21 9S3 d   1      -0.640  -1.251  23.073  0.00  0.00     0.084 H 
ATOM     26  C21 9S3 d   1       1.159  -3.750  24.441  0.00  0.00    -0.074 A 
ATOM     27  C20 9S3 d   1       0.692  -4.804  23.677  0.00  0.00    -0.072 A 
ATOM     28  H22 9S3 d   1       1.888  -3.939  25.221  0.00  0.00     0.084 H 
ATOM     29  H23 9S3 d   1       1.075  -5.803  23.852  0.00  0.00     0.084 H 
BRANCH  24  30
ATOM     30  C23 9S3 d   1       1.211  -1.302  25.074  0.00  0.00     0.107 C 
ATOM     31  H24 9S3 d   1       1.391  -1.684  26.090  0.00  0.00     0.083 H 
ATOM     32  H25 9S3 d   1       0.425  -0.533  25.105  0.00  0.00     0.083 H 
BRANCH  30  33
ATOM     33  N3  9S3 d   1       2.451  -0.667  24.600  0.00  0.00    -0.067 N 
ATOM     34  C28 9S3 d   1       2.986   0.245  25.623  0.00  0.00     0.084 C 
ATOM     35  C27 9S3 d   1       4.260   0.941  25.187  0.00  0.00    -0.042 C 
ATOM     36  H27 9S3 d   1       3.197  -0.335  26.534  0.00  0.00     0.076 H 
ATOM     37  H28 9S3 d   1       2.226   1.010  25.843  0.00  0.00     0.076 H 
ATOM     38  C26 9S3 d   1       5.321  -0.064  24.785  0.00  0.00    -0.062 C 
ATOM     39  H29 9S3 d   1       4.640   1.550  26.020  0.00  0.00     0.035 H 
ATOM     40  H30 9S3 d   1       4.038   1.592  24.328  0.00  0.00     0.035 H 
ATOM     41  C25 9S3 d   1       4.769  -1.040  23.769  0.00  0.00    -0.042 C 
ATOM     42  H31 9S3 d   1       5.651  -0.618  25.676  0.00  0.00     0.033 H 
ATOM     43  H32 9S3 d   1       6.177   0.469  24.346  0.00  0.00     0.033 H 
ATOM     44  C24 9S3 d   1       3.473  -1.664  24.256  0.00  0.00     0.084 C 
ATOM     45  H33 9S3 d   1       5.508  -1.836  23.597  0.00  0.00     0.035 H 
ATOM     46  H34 9S3 d   1       4.579  -0.507  22.826  0.00  0.00     0.035 H 
ATOM     47  H35 9S3 d   1       3.076  -2.313  23.462  0.00  0.00     0.076 H 
ATOM     48  H36 9S3 d   1       3.689  -2.268  25.150  0.00  0.00     0.076 H 
ATOM     49  H26 9S3 d   1       2.235  -0.133  23.773  0.00  0.00     0.280 HD
ENDBRANCH  30  33
ENDBRANCH  24  30
ENDBRANCH  11  20
BRANCH   7  50
ATOM     50  N1  9S3 d   1      -1.156  -9.727  23.496  0.00  0.00    -0.381 N 
ATOM     51  H9  9S3 d   1      -0.237 -10.180  23.600  0.00  0.00     0.160 HD
BRANCH  50  52
ATOM     52  C5  9S3 d   1      -1.832  -9.373  24.661  0.00  0.00     0.028 A 
ATOM     53  C10 9S3 d   1      -1.127  -9.267  25.854  0.00  0.00    -0.058 A 
ATOM     54  C9  9S3 d   1      -1.789  -8.936  27.025  0.00  0.00    -0.081 A 
ATOM     55  H10 9S3 d   1      -0.058  -9.444  25.868  0.00  0.00     0.086 H 
ATOM     56  C8  9S3 d   1      -3.149  -8.707  27.016  0.00  0.00    -0.083 A 
ATOM     57  H11 9S3 d   1      -1.235  -8.857  27.953  0.00  0.00     0.083 H 
ATOM     58  C7  9S3 d   1      -3.852  -8.817  25.837  0.00  0.00    -0.081 A 
ATOM     59  H12 9S3 d   1      -3.662  -8.442  27.933  0.00  0.00     0.083 H 
ATOM     60  C6  9S3 d   1      -3.202  -9.142  24.661  0.00  0.00    -0.058 A 
ATOM     61  H13 9S3 d   1      -4.923  -8.648  25.831  0.00  0.00     0.083 H 
ATOM     62  H14 9S3 d   1      -3.763  -9.217  23.736  0.00  0.00     0.086 H 
ENDBRANCH  50  52
ENDBRANCH   7  50
BRANCH   2  63
ATOM     63  C18 9S3 d   1      -4.143  -7.696  18.538  0.00  0.00    -0.002 C 
ATOM     64  H1  9S3 d   1      -3.679  -6.905  19.145  0.00  0.00     0.040 H 
ATOM     65  H2  9S3 d   1      -5.188  -7.835  18.854  0.00  0.00     0.040 H 
ATOM     66  H3  9S3 d   1      -4.116  -7.407  17.477  0.00  0.00     0.040 H 
ENDBRANCH   2  63
BRANCH   4  67
ATOM     67  C1  9S3 d   1      -0.522 -10.487  18.664  0.00  0.00    -0.057 C 
ATOM     68  H5  9S3 d   1      -0.026 -11.461  18.788  0.00  0.00     0.030 H 
ATOM     69  H6  9S3 d   1       0.221  -9.682  18.766  0.00  0.00     0.030 H 
ATOM     70  H7  9S3 d   1      -0.984 -10.435  17.667  0.00  0.00     0.030 H 
ENDBRANCH   4  67
TORSDOF 7
