REMARK  15 active torsions:
REMARK  status: ('A' for Active; 'I' for Inactive)
REMARK    1  A    between atoms: C2_1  and  O1_30 
REMARK    2  A    between atoms: C3_2  and  C8_7 
REMARK    3  A    between atoms: C7_6  and  O29_27 
REMARK       I    between atoms: C8_7  and  N10_9 
REMARK    4  A    between atoms: N10_9  and  C11_10 
REMARK    5  A    between atoms: C11_10  and  C12_11 
REMARK    6  A    between atoms: C12_11  and  C13_12 
REMARK    7  A    between atoms: C13_12  and  C14_13 
REMARK    8  A    between atoms: C14_13  and  C15_14 
REMARK    9  A    between atoms: C15_14  and  C16_15 
REMARK   10  A    between atoms: C16_15  and  C17_16 
REMARK   11  A    between atoms: C17_16  and  C18_17 
REMARK   12  A    between atoms: C18_17  and  N19_18 
REMARK       I    between atoms: N19_18  and  C20_19 
REMARK   13  A    between atoms: C20_19  and  C21_20 
REMARK   14  A    between atoms: C22_21  and  O30_28 
REMARK   15  A    between atoms: C23_22  and  O31_29 
ROOT
ATOM      1  C14 8LC d   1     -22.669  19.811 -27.658  0.00  0.00    -0.065 C 
ATOM      2  H11 8LC d   1     -23.768  19.812 -27.619  0.00  0.00     0.033 H 
ATOM      3  H12 8LC d   1     -22.326  20.592 -28.352  0.00  0.00     0.033 H 
ENDROOT
BRANCH   1   4
ATOM      4  C13 8LC d   1     -22.211  18.455 -28.201  0.00  0.00    -0.064 C 
ATOM      5  H9  8LC d   1     -22.779  18.252 -29.121  0.00  0.00     0.033 H 
ATOM      6  H10 8LC d   1     -21.140  18.532 -28.440  0.00  0.00     0.033 H 
BRANCH   4   7
ATOM      7  C12 8LC d   1     -22.390  17.302 -27.295  0.00  0.00    -0.050 C 
ATOM      8  H7  8LC d   1     -21.672  17.384 -26.466  0.00  0.00     0.035 H 
ATOM      9  H8  8LC d   1     -23.415  17.316 -26.895  0.00  0.00     0.035 H 
BRANCH   7  10
ATOM     10  C11 8LC d   1     -22.158  15.973 -28.028  0.00  0.00    -0.004 C 
ATOM     11  H5  8LC d   1     -22.977  15.811 -28.744  0.00  0.00     0.064 H 
ATOM     12  H6  8LC d   1     -21.203  16.026 -28.570  0.00  0.00     0.064 H 
BRANCH  10  13
ATOM     13  N10 8LC d   1     -22.114  14.861 -27.103  0.00  0.00    -0.357 N 
ATOM     14  C8  8LC d   1     -22.297  13.590 -27.478  0.00  0.00     0.254 C 
ATOM     15  O9  8LC d   1     -22.536  13.296 -28.664  0.00  0.00    -0.268 OA
ATOM     16  H4  8LC d   1     -21.938  15.052 -26.137  0.00  0.00     0.162 HD
BRANCH  14  17
ATOM     17  C3  8LC d   1     -22.213  12.580 -26.383  0.00  0.00     0.067 A 
ATOM     18  C2  8LC d   1     -21.896  12.896 -25.050  0.00  0.00     0.114 A 
ATOM     19  C7  8LC d   1     -21.841  11.859 -24.085  0.00  0.00     0.099 A 
ATOM     20  C6  8LC d   1     -22.109  10.557 -24.424  0.00  0.00    -0.048 A 
ATOM     21  C5  8LC d   1     -22.408  10.244 -25.736  0.00  0.00    -0.079 A 
ATOM     22  H3  8LC d   1     -22.086   9.780 -23.669  0.00  0.00     0.087 H 
ATOM     23  C4  8LC d   1     -22.510  11.229 -26.679  0.00  0.00    -0.065 A 
ATOM     24  H2  8LC d   1     -22.563   9.209 -26.020  0.00  0.00     0.083 H 
ATOM     25  H1  8LC d   1     -22.828  10.967 -27.682  0.00  0.00     0.085 H 
BRANCH  18  26
ATOM     26  O1  8LC d   1     -21.606  14.152 -24.624  0.00  0.00    -0.357 OA
ATOM     27  H28 8LC d   1     -22.219  14.404 -23.943  0.00  0.00     0.217 HD
ENDBRANCH  18  26
BRANCH  19  28
ATOM     28  O29 8LC d   1     -21.583  12.258 -22.809  0.00  0.00    -0.358 OA
ATOM     29  H25 8LC d   1     -21.425  13.195 -22.797  0.00  0.00     0.217 HD
ENDBRANCH  19  28
ENDBRANCH  14  17
ENDBRANCH  10  13
ENDBRANCH   7  10
ENDBRANCH   4   7
ENDBRANCH   1   4
BRANCH   1  30
ATOM     30  C15 8LC d   1     -22.136  20.151 -26.249  0.00  0.00    -0.065 C 
ATOM     31  H13 8LC d   1     -22.541  19.427 -25.526  0.00  0.00     0.033 H 
ATOM     32  H14 8LC d   1     -22.463  21.165 -25.975  0.00  0.00     0.033 H 
BRANCH  30  33
ATOM     33  C16 8LC d   1     -20.630  20.092 -26.214  0.00  0.00    -0.064 C 
ATOM     34  H15 8LC d   1     -20.238  20.587 -27.115  0.00  0.00     0.033 H 
ATOM     35  H16 8LC d   1     -20.320  19.037 -26.211  0.00  0.00     0.033 H 
BRANCH  33  36
ATOM     36  C17 8LC d   1     -20.023  20.792 -24.958  0.00  0.00    -0.050 C 
ATOM     37  H17 8LC d   1     -20.391  21.828 -24.911  0.00  0.00     0.035 H 
ATOM     38  H18 8LC d   1     -18.926  20.796 -25.044  0.00  0.00     0.035 H 
BRANCH  36  39
ATOM     39  C18 8LC d   1     -20.421  20.061 -23.669  0.00  0.00    -0.004 C 
ATOM     40  H19 8LC d   1     -21.507  19.887 -23.685  0.00  0.00     0.064 H 
ATOM     41  H20 8LC d   1     -20.165  20.699 -22.810  0.00  0.00     0.064 H 
BRANCH  39  42
ATOM     42  N19 8LC d   1     -19.756  18.795 -23.514  0.00  0.00    -0.357 N 
ATOM     43  C20 8LC d   1     -18.501  18.667 -23.039  0.00  0.00     0.254 C 
ATOM     44  O27 8LC d   1     -17.757  19.655 -22.839  0.00  0.00    -0.268 OA
ATOM     45  H21 8LC d   1     -20.251  17.965 -23.772  0.00  0.00     0.162 HD
BRANCH  43  46
ATOM     46  C21 8LC d   1     -18.008  17.276 -22.809  0.00  0.00     0.067 A 
ATOM     47  C22 8LC d   1     -18.808  16.112 -22.833  0.00  0.00     0.114 A 
ATOM     48  C23 8LC d   1     -18.266  14.833 -22.753  0.00  0.00     0.099 A 
ATOM     49  C24 8LC d   1     -16.869  14.699 -22.545  0.00  0.00    -0.048 A 
ATOM     50  C25 8LC d   1     -16.090  15.852 -22.474  0.00  0.00    -0.079 A 
ATOM     51  H22 8LC d   1     -16.417  13.719 -22.443  0.00  0.00     0.087 H 
ATOM     52  C26 8LC d   1     -16.629  17.123 -22.632  0.00  0.00    -0.065 A 
ATOM     53  H23 8LC d   1     -15.026  15.754 -22.289  0.00  0.00     0.083 H 
ATOM     54  H24 8LC d   1     -15.983  17.993 -22.618  0.00  0.00     0.085 H 
BRANCH  47  55
ATOM     55  O30 8LC d   1     -20.150  16.212 -22.952  0.00  0.00    -0.357 OA
ATOM     56  H26 8LC d   1     -20.430  15.769 -23.744  0.00  0.00     0.217 HD
ENDBRANCH  47  55
BRANCH  48  57
ATOM     57  O31 8LC d   1     -19.063  13.749 -22.869  0.00  0.00    -0.358 OA
ATOM     58  H27 8LC d   1     -19.960  14.030 -23.003  0.00  0.00     0.217 HD
ENDBRANCH  48  57
ENDBRANCH  43  46
ENDBRANCH  39  42
ENDBRANCH  36  39
ENDBRANCH  33  36
ENDBRANCH  30  33
ENDBRANCH   1  30
TORSDOF 15
