REMARK  5 active torsions:
REMARK  status: ('A' for Active; 'I' for Inactive)
REMARK    1  A    between atoms: C2_1  and  CAP_13 
REMARK    2  A    between atoms: N4_20  and  C2_1 
REMARK    3  A    between atoms: C3_19  and  C5_3 
REMARK    4  A    between atoms: NAQ_15  and  N4_20 
REMARK    5  A    between atoms: NAS_17  and  C3_19 
ROOT
ATOM      1  CAQ JH5 d   1       9.519 -14.127  -2.259  0.00  0.00     0.106 A 
ATOM      2  NAQ JH5 d   1       9.885 -14.746  -3.380  0.00  0.00    -0.246 N 
ATOM      3  CAR JH5 d   1      10.096 -13.758  -4.205  0.00  0.00     0.083 A 
ATOM      4  NAS JH5 d   1       9.861 -12.585  -3.618  0.00  0.00    -0.258 N 
ATOM      5  NAT JH5 d   1       9.514 -12.799  -2.471  0.00  0.00    -0.164 NA
ATOM      6  H13 JH5 d   1       9.264 -14.618  -1.321  0.00  0.00     0.149 H 
ATOM      7  H14 JH5 d   1      10.421 -13.876  -5.237  0.00  0.00     0.146 H 
ENDROOT
BRANCH   2   8
ATOM      8  N4  JH5 d   1      10.134 -15.941  -3.699  0.00  0.00    -0.324 N 
ATOM      9  H17 JH5 d   1      10.090 -16.630  -2.935  0.00  0.00     0.181 HD
BRANCH   8  10
ATOM     10  C2  JH5 d   1      10.487 -16.485  -5.054  0.00  0.00     0.032 C 
ATOM     11  H1  JH5 d   1      10.676 -17.557  -4.896  0.00  0.00     0.073 H 
ATOM     12  H2  JH5 d   1       9.580 -16.358  -5.663  0.00  0.00     0.073 H 
BRANCH  10  13
ATOM     13  CAP JH5 d   1      11.592 -16.018  -5.903  0.00  0.00    -0.039 A 
ATOM     14  CAK JH5 d   1      12.575 -15.050  -5.622  0.00  0.00    -0.075 A 
ATOM     15  CAL JH5 d   1      13.565 -14.724  -6.569  0.00  0.00    -0.082 A 
ATOM     16  H8  JH5 d   1      12.570 -14.548  -4.661  0.00  0.00     0.084 H 
ATOM     17  CAM JH5 d   1      13.653 -15.354  -7.799  0.00  0.00    -0.083 A 
ATOM     18  H9  JH5 d   1      14.285 -13.951  -6.326  0.00  0.00     0.083 H 
ATOM     19  CAN JH5 d   1      12.704 -16.312  -8.104  0.00  0.00    -0.082 A 
ATOM     20  H10 JH5 d   1      14.441 -15.104  -8.500  0.00  0.00     0.083 H 
ATOM     21  CAO JH5 d   1      11.702 -16.629  -7.171  0.00  0.00    -0.075 A 
ATOM     22  H11 JH5 d   1      12.733 -16.818  -9.062  0.00  0.00     0.083 H 
ATOM     23  H12 JH5 d   1      10.973 -17.385  -7.440  0.00  0.00     0.084 H 
ENDBRANCH  10  13
ENDBRANCH   8  10
ENDBRANCH   2   8
BRANCH   4  24
ATOM     24  C3  JH5 d   1      10.078 -11.390  -4.480  0.00  0.00     0.042 C 
ATOM     25  H15 JH5 d   1       9.533 -10.518  -4.091  0.00  0.00     0.074 H 
ATOM     26  H16 JH5 d   1      11.148 -11.148  -4.559  0.00  0.00     0.074 H 
BRANCH  24  27
ATOM     27  C5  JH5 d   1       9.577 -11.783  -5.680  0.00  0.00    -0.038 A 
ATOM     28  C4  JH5 d   1      10.401 -12.420  -6.600  0.00  0.00    -0.075 A 
ATOM     29  CAA JH5 d   1       9.900 -12.853  -7.817  0.00  0.00    -0.082 A 
ATOM     30  H3  JH5 d   1      11.447 -12.580  -6.363  0.00  0.00     0.084 H 
ATOM     31  CAB JH5 d   1       8.562 -12.648  -8.117  0.00  0.00    -0.083 A 
ATOM     32  H4  JH5 d   1      10.550 -13.348  -8.530  0.00  0.00     0.083 H 
ATOM     33  CAC JH5 d   1       7.746 -12.019  -7.188  0.00  0.00    -0.082 A 
ATOM     34  H5  JH5 d   1       8.158 -12.976  -9.068  0.00  0.00     0.083 H 
ATOM     35  CAD JH5 d   1       8.239 -11.594  -5.966  0.00  0.00    -0.075 A 
ATOM     36  H6  JH5 d   1       6.700 -11.857  -7.424  0.00  0.00     0.083 H 
ATOM     37  H7  JH5 d   1       7.584 -11.120  -5.244  0.00  0.00     0.084 H 
ENDBRANCH  24  27
ENDBRANCH   4  24
TORSDOF 5
