REMARK  2 active torsions:
REMARK  status: ('A' for Active; 'I' for Inactive)
REMARK    1  A    between atoms: C2'_10  and  O2'_11 
REMARK    2  A    between atoms: C1'_12  and  N9_13 
ROOT
ATOM      1  P   CMP d   1      -6.684  -6.949  20.154  0.00  0.00     0.408 P 
ATOM      2  O1P CMP d   1      -6.101  -5.665  20.666  0.00  0.00    -0.624 OA
ATOM      3  O2P CMP d   1      -8.118  -7.185  20.043  0.00  0.00    -0.624 OA
ATOM      4  O5' CMP d   1      -6.275  -8.094  21.206  0.00  0.00    -0.287 OA
ATOM      5  C5' CMP d   1      -6.168  -9.447  20.861  0.00  0.00     0.058 C 
ATOM      6  C4' CMP d   1      -5.313  -9.505  19.605  0.00  0.00     0.090 C 
ATOM      7  O4' CMP d   1      -5.193 -10.785  19.062  0.00  0.00    -0.353 OA
ATOM      8  C3' CMP d   1      -5.938  -8.696  18.474  0.00  0.00     0.106 C 
ATOM      9  O3' CMP d   1      -5.794  -7.355  18.870  0.00  0.00    -0.279 OA
ATOM     10  C2' CMP d   1      -5.193  -9.236  17.281  0.00  0.00     0.106 C 
ATOM     11  C1' CMP d   1      -5.117 -10.730  17.629  0.00  0.00     0.140 C 
ATOM     12  H1  CMP d   1      -7.164  -9.869  20.662  0.00  0.00     0.079 H 
ATOM     13  H2  CMP d   1      -5.687 -10.010  21.674  0.00  0.00     0.079 H 
ATOM     14  H3  CMP d   1      -4.316  -9.111  19.849  0.00  0.00     0.090 H 
ATOM     15  H4  CMP d   1      -7.011  -8.907  18.351  0.00  0.00     0.092 H 
ATOM     16  H5  CMP d   1      -5.769  -9.072  16.358  0.00  0.00     0.093 H 
ATOM     17  H7  CMP d   1      -4.170 -11.165  17.276  0.00  0.00     0.122 H 
ENDROOT
BRANCH  11  18
ATOM     18  N9  CMP d   1      -6.258 -11.452  17.010  0.00  0.00    -0.294 N 
ATOM     19  C8  CMP d   1      -7.389 -11.850  17.563  0.00  0.00     0.071 A 
ATOM     20  N7  CMP d   1      -8.182 -12.463  16.641  0.00  0.00    -0.236 NA
ATOM     21  H8  CMP d   1      -7.651 -11.708  18.610  0.00  0.00     0.144 H 
ATOM     22  C5  CMP d   1      -7.549 -12.437  15.466  0.00  0.00     0.149 A 
ATOM     23  C6  CMP d   1      -7.787 -12.827  14.035  0.00  0.00     0.155 A 
ATOM     24  C4  CMP d   1      -6.309 -11.753  15.715  0.00  0.00     0.167 A 
ATOM     25  N6  CMP d   1      -8.879 -13.450  13.638  0.00  0.00    -0.382 N 
ATOM     26  N1  CMP d   1      -6.869 -12.570  13.109  0.00  0.00    -0.222 NA
ATOM     27  H9  CMP d   1      -8.999 -13.698  12.645  0.00  0.00     0.157 HD
ATOM     28  H10 CMP d   1      -9.613 -13.689  14.320  0.00  0.00     0.157 HD
ATOM     29  C2  CMP d   1      -5.714 -12.001  13.431  0.00  0.00     0.091 A 
ATOM     30  N3  CMP d   1      -5.453 -11.561  14.673  0.00  0.00    -0.222 NA
ATOM     31  H11 CMP d   1      -4.955 -11.887  12.665  0.00  0.00     0.146 H 
ENDBRANCH  11  18
BRANCH  10  32
ATOM     32  O2' CMP d   1      -3.912  -8.689  17.115  0.00  0.00    -0.388 OA
ATOM     33  H6  CMP d   1      -3.502  -9.072  16.349  0.00  0.00     0.210 HD
ENDBRANCH  10  32
TORSDOF 2
