REMARK  14 active torsions:
REMARK  status: ('A' for Active; 'I' for Inactive)
REMARK    1  A    between atoms: C1_1  and  C2_2 
REMARK    2  A    between atoms: C2_2  and  C3_3 
REMARK    3  A    between atoms: C3_3  and  S4_4 
REMARK    4  A    between atoms: S4_4  and  C5_5 
REMARK    5  A    between atoms: C7_7  and  N8_8 
REMARK    6  A    between atoms: N8_8  and  C9_9 
REMARK    7  A    between atoms: C12_11  and  C14_12 
REMARK    8  A    between atoms: N25_23  and  C26_24 
REMARK    9  A    between atoms: C29_26  and  O31_27 
REMARK   10  A    between atoms: O31_27  and  C32_28 
REMARK   11  A    between atoms: C32_28  and  C33_29 
REMARK   12  A    between atoms: C33_29  and  O34_30 
REMARK   13  A    between atoms: C35_31  and  O37_32 
REMARK   14  A    between atoms: C38_33  and  O40_34 
ROOT
ATOM      1  C5  TIQ d   1       5.609   5.942   0.211  0.00  0.00     0.192 A 
ATOM      2  N6  TIQ d   1       6.872   6.380   0.223  0.00  0.00    -0.203 NA
ATOM      3  C7  TIQ d   1       7.841   5.663  -0.370  0.00  0.00     0.161 A 
ATOM      4  C22 TIQ d   1       7.473   4.475  -0.975  0.00  0.00     0.167 A 
ATOM      5  N23 TIQ d   1       8.171   3.520  -1.666  0.00  0.00    -0.152 NA
ATOM      6  N24 TIQ d   1       7.324   2.571  -2.038  0.00  0.00     0.007 NA
ATOM      7  N25 TIQ d   1       6.104   2.932  -1.601  0.00  0.00    -0.247 N 
ATOM      8  C41 TIQ d   1       6.154   4.120  -0.920  0.00  0.00     0.180 A 
ATOM      9  N42 TIQ d   1       5.168   4.810  -0.342  0.00  0.00    -0.201 NA
ENDROOT
BRANCH   7  10
ATOM     10  C26 TIQ d   1       5.013   1.981  -1.657  0.00  0.00     0.062 C 
ATOM     11  C28 TIQ d   1       3.766   2.461  -2.367  0.00  0.00    -0.015 C 
ATOM     12  C29 TIQ d   1       2.625   1.716  -1.696  0.00  0.00     0.067 C 
ATOM     13  H17 TIQ d   1       3.812   2.216  -3.438  0.00  0.00     0.040 H 
ATOM     14  H18 TIQ d   1       3.644   3.547  -2.244  0.00  0.00     0.040 H 
ATOM     15  C35 TIQ d   1       3.201   0.969  -0.516  0.00  0.00     0.087 C 
ATOM     16  H19 TIQ d   1       2.194   1.008  -2.419  0.00  0.00     0.087 H 
ATOM     17  C38 TIQ d   1       4.549   1.593  -0.261  0.00  0.00     0.084 C 
ATOM     18  H25 TIQ d   1       2.553   1.059   0.368  0.00  0.00     0.091 H 
ATOM     19  H27 TIQ d   1       4.442   2.499   0.354  0.00  0.00     0.090 H 
ATOM     20  H16 TIQ d   1       5.386   1.087  -2.177  0.00  0.00     0.079 H 
BRANCH  12  21
ATOM     21  O31 TIQ d   1       1.575   2.557  -1.191  0.00  0.00    -0.381 OA
BRANCH  21  22
ATOM     22  C32 TIQ d   1       0.610   2.845  -2.218  0.00  0.00     0.040 C 
ATOM     23  H20 TIQ d   1       1.120   2.816  -3.192  0.00  0.00     0.077 H 
ATOM     24  H21 TIQ d   1       0.207   3.854  -2.044  0.00  0.00     0.077 H 
BRANCH  22  25
ATOM     25  C33 TIQ d   1      -0.549   1.865  -2.253  0.00  0.00     0.036 C 
ATOM     26  H22 TIQ d   1      -0.221   0.920  -2.711  0.00  0.00     0.077 H 
ATOM     27  H23 TIQ d   1      -1.376   2.290  -2.841  0.00  0.00     0.077 H 
BRANCH  25  28
ATOM     28  O34 TIQ d   1      -0.980   1.628  -0.928  0.00  0.00    -0.399 OA
ATOM     29  H24 TIQ d   1      -0.263   1.263  -0.423  0.00  0.00     0.209 HD
ENDBRANCH  25  28
ENDBRANCH  22  25
ENDBRANCH  21  22
ENDBRANCH  12  21
BRANCH  15  30
ATOM     30  O37 TIQ d   1       3.357  -0.409  -0.881  0.00  0.00    -0.390 OA
ATOM     31  H26 TIQ d   1       3.719  -0.891  -0.147  0.00  0.00     0.210 HD
ENDBRANCH  15  30
BRANCH  17  32
ATOM     32  O40 TIQ d   1       5.406   0.679   0.444  0.00  0.00    -0.391 OA
ATOM     33  H28 TIQ d   1       5.524  -0.107  -0.076  0.00  0.00     0.210 HD
ENDBRANCH  17  32
ENDBRANCH   7  10
BRANCH   3  34
ATOM     34  N8  TIQ d   1       9.176   6.059  -0.419  0.00  0.00    -0.367 N 
ATOM     35  H8  TIQ d   1       9.771   5.828  -1.227  0.00  0.00     0.161 HD
BRANCH  34  36
ATOM     36  C9  TIQ d   1       9.703   6.816   0.719  0.00  0.00     0.019 A 
ATOM     37  C11 TIQ d   1      10.172   8.220   0.465  0.00  0.00    -0.037 A 
ATOM     38  C12 TIQ d   1      11.157   7.157   0.826  0.00  0.00    -0.007 A 
ATOM     39  H10 TIQ d   1       9.935   9.018   1.185  0.00  0.00     0.037 H 
ATOM     40  H11 TIQ d   1      10.154   8.630  -0.556  0.00  0.00     0.037 H 
ATOM     41  H12 TIQ d   1      11.857   6.754   0.079  0.00  0.00     0.050 H 
ATOM     42  H9  TIQ d   1       9.134   6.566   1.627  0.00  0.00     0.073 H 
BRANCH  38  43
ATOM     43  C14 TIQ d   1      11.854   7.313   2.126  0.00  0.00    -0.049 A 
ATOM     44  C15 TIQ d   1      13.228   7.146   2.145  0.00  0.00    -0.073 A 
ATOM     45  C16 TIQ d   1      13.966   7.275   3.305  0.00  0.00    -0.042 A 
ATOM     46  H13 TIQ d   1      13.741   6.907   1.220  0.00  0.00     0.084 H 
ATOM     47  C17 TIQ d   1      13.312   7.574   4.479  0.00  0.00     0.154 A 
ATOM     48  H14 TIQ d   1      15.042   7.143   3.292  0.00  0.00     0.088 H 
ATOM     49  F18 TIQ d   1      13.997   7.690   5.625  0.00  0.00    -0.203 F 
ATOM     50  C19 TIQ d   1      11.950   7.762   4.479  0.00  0.00     0.155 A 
ATOM     51  F20 TIQ d   1      11.334   8.063   5.626  0.00  0.00    -0.203 F 
ATOM     52  C21 TIQ d   1      11.224   7.642   3.317  0.00  0.00    -0.036 A 
ATOM     53  H15 TIQ d   1      10.152   7.806   3.332  0.00  0.00     0.089 H 
ENDBRANCH  38  43
ENDBRANCH  34  36
ENDBRANCH   3  34
BRANCH   1  54
ATOM     54  S4  TIQ d   1       4.419   6.959   1.029  0.00  0.00    -0.090 SA
BRANCH  54  55
ATOM     55  C3  TIQ d   1       2.855   6.059   0.845  0.00  0.00    -0.016 C 
ATOM     56  H6  TIQ d   1       2.027   6.779   0.769  0.00  0.00     0.049 H 
ATOM     57  H7  TIQ d   1       2.893   5.446  -0.067  0.00  0.00     0.049 H 
BRANCH  55  58
ATOM     58  C2  TIQ d   1       2.630   5.160   2.046  0.00  0.00    -0.060 C 
ATOM     59  H4  TIQ d   1       3.516   4.523   2.186  0.00  0.00     0.033 H 
ATOM     60  H5  TIQ d   1       2.484   5.787   2.938  0.00  0.00     0.033 H 
BRANCH  58  61
ATOM     61  C1  TIQ d   1       1.416   4.278   1.862  0.00  0.00    -0.076 C 
ATOM     62  H1  TIQ d   1       1.286   3.643   2.751  0.00  0.00     0.027 H 
ATOM     63  H2  TIQ d   1       1.555   3.643   0.975  0.00  0.00     0.027 H 
ATOM     64  H3  TIQ d   1       0.523   4.906   1.727  0.00  0.00     0.027 H 
ENDBRANCH  58  61
ENDBRANCH  55  58
ENDBRANCH  54  55
ENDBRANCH   1  54
TORSDOF 14
