REMARK  3 active torsions:
REMARK  status: ('A' for Active; 'I' for Inactive)
REMARK    1  A    between atoms: N2_17  and  C1_1 
REMARK    2  A    between atoms: C8_6  and  N5_18 
REMARK    3  A    between atoms: C17_11  and  C12_7 
ROOT
ATOM      1  C8  38O d   1     219.162  -8.026  26.990  0.00  0.00     0.032 A 
ATOM      2  C12 38O d   1     217.088  -7.607  23.021  0.00  0.00     0.147 A 
ATOM      3  N13 38O d   1     217.945  -6.630  23.343  0.00  0.00    -0.228 NA
ATOM      4  C15 38O d   1     219.365  -6.264  25.349  0.00  0.00    -0.051 A 
ATOM      5  C16 38O d   1     219.708  -6.814  26.571  0.00  0.00    -0.055 A 
ATOM      6  C9  38O d   1     218.231  -8.729  26.201  0.00  0.00    -0.029 A 
ATOM      7  C10 38O d   1     217.848  -8.216  24.956  0.00  0.00     0.065 A 
ATOM      8  N11 38O d   1     217.025  -8.595  23.945  0.00  0.00    -0.338 N 
ATOM      9  C14 38O d   1     218.452  -6.925  24.540  0.00  0.00     0.086 A 
ATOM     10  H12 38O d   1     219.805  -5.327  25.027  0.00  0.00     0.087 H 
ATOM     11  H13 38O d   1     220.411  -6.295  27.212  0.00  0.00     0.087 H 
ATOM     12  H17 38O d   1     217.813  -9.664  26.556  0.00  0.00     0.090 H 
ATOM     13  H18 38O d   1     216.466  -9.459  23.892  0.00  0.00     0.167 HD
ENDROOT
BRANCH   1  14
ATOM     14  N5  38O d   1     219.580  -8.468  28.254  0.00  0.00    -0.378 N 
ATOM     15  C4  38O d   1     220.690  -9.406  28.376  0.00  0.00     0.018 C 
ATOM     16  C3  38O d   1     220.995  -9.594  29.857  0.00  0.00     0.098 C 
ATOM     17  H6  38O d   1     220.412 -10.371  27.928  0.00  0.00     0.066 H 
ATOM     18  H7  38O d   1     221.575  -9.004  27.862  0.00  0.00     0.066 H 
ATOM     19  N2  38O d   1     219.751  -9.957  30.543  0.00  0.00    -0.072 N 
ATOM     20  H4  38O d   1     221.391  -8.658  30.277  0.00  0.00     0.078 H 
ATOM     21  H5  38O d   1     221.737 -10.396  29.985  0.00  0.00     0.078 H 
ATOM     22  C7  38O d   1     218.891  -8.768  30.660  0.00  0.00     0.098 C 
ATOM     23  H16 38O d   1     219.271 -10.665  30.009  0.00  0.00     0.279 HD
ATOM     24  C6  38O d   1     218.886  -7.877  29.410  0.00  0.00     0.018 C 
ATOM     25  H10 38O d   1     217.861  -9.103  30.850  0.00  0.00     0.078 H 
ATOM     26  H11 38O d   1     219.244  -8.168  31.512  0.00  0.00     0.078 H 
ATOM     27  H8  38O d   1     219.379  -6.926  29.660  0.00  0.00     0.066 H 
ATOM     28  H9  38O d   1     217.841  -7.685  29.126  0.00  0.00     0.066 H 
BRANCH  19  29
ATOM     29  C1  38O d   1     220.051 -10.483  31.886  0.00  0.00     0.066 C 
ATOM     30  H1  38O d   1     220.694 -11.371  31.797  0.00  0.00     0.068 H 
ATOM     31  H2  38O d   1     219.113 -10.758  32.390  0.00  0.00     0.068 H 
ATOM     32  H3  38O d   1     220.571  -9.712  32.474  0.00  0.00     0.068 H 
ENDBRANCH  19  29
ENDBRANCH   1  14
BRANCH   2  33
ATOM     33  C17 38O d   1     216.318  -7.719  21.751  0.00  0.00     0.105 A 
ATOM     34  C18 38O d   1     216.606  -6.782  20.629  0.00  0.00     0.061 A 
ATOM     35  N19 38O d   1     217.542  -5.797  20.728  0.00  0.00    -0.397 N 
ATOM     36  C20 38O d   1     215.825  -6.966  19.377  0.00  0.00     0.057 A 
ATOM     37  H19 38O d   1     218.076  -5.680  21.601  0.00  0.00     0.156 HD
ATOM     38  H20 38O d   1     217.715  -5.169  19.930  0.00  0.00     0.156 HD
ATOM     39  C21 38O d   1     216.000  -6.117  18.174  0.00  0.00     0.131 A 
ATOM     40  C26 38O d   1     214.809  -8.049  19.319  0.00  0.00     0.050 A 
ATOM     41  C23 38O d   1     215.219  -6.373  17.037  0.00  0.00    -0.045 A 
ATOM     42  F22 38O d   1     216.915  -5.128  18.187  0.00  0.00    -0.205 F 
ATOM     43  C24 38O d   1     214.282  -7.404  17.032  0.00  0.00    -0.078 A 
ATOM     44  H14 38O d   1     215.346  -5.761  16.151  0.00  0.00     0.088 H 
ATOM     45  C25 38O d   1     214.077  -8.227  18.143  0.00  0.00    -0.056 A 
ATOM     46  H15 38O d   1     213.693  -7.573  16.138  0.00  0.00     0.083 H 
ATOM     47  H21 38O d   1     213.337  -9.017  18.091  0.00  0.00     0.086 H 
ATOM     48  N27 38O d   1     214.616  -8.851  20.372  0.00  0.00    -0.322 N 
ATOM     49  C28 38O d   1     215.277  -8.747  21.541  0.00  0.00     0.262 A 
ATOM     50  H22 38O d   1     213.934  -9.578  20.285  0.00  0.00     0.169 HD
ATOM     51  O29 38O d   1     215.016  -9.551  22.466  0.00  0.00    -0.267 OA
ENDBRANCH   2  33
TORSDOF 3
