REMARK  3 active torsions:
REMARK  status: ('A' for Active; 'I' for Inactive)
REMARK    1  A    between atoms: N2_17  and  C1_1 
REMARK    2  A    between atoms: C8_6  and  N5_18 
REMARK    3  A    between atoms: C17_11  and  C12_7 
ROOT
ATOM      1  C8  38O d   1     219.089   3.268  26.814  0.00  0.00     0.032 A 
ATOM      2  C12 38O d   1     216.912   3.786  22.921  0.00  0.00     0.147 A 
ATOM      3  N13 38O d   1     217.725   4.811  23.245  0.00  0.00    -0.228 NA
ATOM      4  C15 38O d   1     219.181   5.131  25.266  0.00  0.00    -0.051 A 
ATOM      5  C16 38O d   1     219.580   4.519  26.451  0.00  0.00    -0.055 A 
ATOM      6  C9  38O d   1     218.182   2.583  26.006  0.00  0.00    -0.029 A 
ATOM      7  C10 38O d   1     217.753   3.150  24.801  0.00  0.00     0.065 A 
ATOM      8  N11 38O d   1     216.925   2.766  23.811  0.00  0.00    -0.338 N 
ATOM      9  C14 38O d   1     218.284   4.483  24.426  0.00  0.00     0.086 A 
ATOM     10  H12 38O d   1     219.568   6.108  25.000  0.00  0.00     0.087 H 
ATOM     11  H13 38O d   1     220.284   5.025  27.102  0.00  0.00     0.087 H 
ATOM     12  H17 38O d   1     217.810   1.612  26.311  0.00  0.00     0.090 H 
ATOM     13  H18 38O d   1     216.407   1.878  23.744  0.00  0.00     0.167 HD
ENDROOT
BRANCH   1  14
ATOM     14  N5  38O d   1     219.522   2.694  28.015  0.00  0.00    -0.378 N 
ATOM     15  C4  38O d   1     220.923   2.301  28.123  0.00  0.00     0.018 C 
ATOM     16  C3  38O d   1     221.413   2.758  29.491  0.00  0.00     0.098 C 
ATOM     17  H6  38O d   1     221.016   1.208  28.035  0.00  0.00     0.066 H 
ATOM     18  H7  38O d   1     221.513   2.785  27.330  0.00  0.00     0.066 H 
ATOM     19  N2  38O d   1     220.535   2.203  30.529  0.00  0.00    -0.072 N 
ATOM     20  H4  38O d   1     221.393   3.857  29.541  0.00  0.00     0.078 H 
ATOM     21  H5  38O d   1     222.442   2.403  29.651  0.00  0.00     0.078 H 
ATOM     22  C7  38O d   1     219.226   2.859  30.415  0.00  0.00     0.098 C 
ATOM     23  H16 38O d   1     220.430   1.210  30.394  0.00  0.00     0.279 HD
ATOM     24  C6  38O d   1     218.562   2.475  29.097  0.00  0.00     0.018 C 
ATOM     25  H10 38O d   1     218.586   2.542  31.251  0.00  0.00     0.078 H 
ATOM     26  H11 38O d   1     219.361   3.950  30.450  0.00  0.00     0.078 H 
ATOM     27  H8  38O d   1     217.671   3.099  28.934  0.00  0.00     0.066 H 
ATOM     28  H9  38O d   1     218.268   1.415  29.124  0.00  0.00     0.066 H 
BRANCH  19  29
ATOM     29  C1  38O d   1     221.120   2.458  31.853  0.00  0.00     0.066 C 
ATOM     30  H1  38O d   1     222.099   1.961  31.923  0.00  0.00     0.068 H 
ATOM     31  H2  38O d   1     220.451   2.062  32.632  0.00  0.00     0.068 H 
ATOM     32  H3  38O d   1     221.248   3.541  31.995  0.00  0.00     0.068 H 
ENDBRANCH  19  29
ENDBRANCH   1  14
BRANCH   2  33
ATOM     33  C17 38O d   1     216.074   3.623  21.703  0.00  0.00     0.105 A 
ATOM     34  C18 38O d   1     216.191   4.636  20.623  0.00  0.00     0.061 A 
ATOM     35  N19 38O d   1     217.049   5.669  20.756  0.00  0.00    -0.397 N 
ATOM     36  C20 38O d   1     215.358   4.443  19.402  0.00  0.00     0.057 A 
ATOM     37  H19 38O d   1     217.607   5.767  21.616  0.00  0.00     0.156 HD
ATOM     38  H20 38O d   1     217.146   6.359  19.997  0.00  0.00     0.156 HD
ATOM     39  C21 38O d   1     215.396   5.359  18.237  0.00  0.00     0.131 A 
ATOM     40  C26 38O d   1     214.437   3.282  19.352  0.00  0.00     0.050 A 
ATOM     41  C23 38O d   1     214.577   5.089  17.133  0.00  0.00    -0.045 A 
ATOM     42  F22 38O d   1     216.212   6.434  18.260  0.00  0.00    -0.205 F 
ATOM     43  C24 38O d   1     213.721   3.983  17.136  0.00  0.00    -0.078 A 
ATOM     44  H14 38O d   1     214.607   5.743  16.269  0.00  0.00     0.088 H 
ATOM     45  C25 38O d   1     213.650   3.091  18.212  0.00  0.00    -0.056 A 
ATOM     46  H15 38O d   1     213.089   3.810  16.273  0.00  0.00     0.083 H 
ATOM     47  H21 38O d   1     212.977   2.243  18.161  0.00  0.00     0.086 H 
ATOM     48  N27 38O d   1     214.393   2.414  20.375  0.00  0.00    -0.322 N 
ATOM     49  C28 38O d   1     215.103   2.520  21.518  0.00  0.00     0.262 A 
ATOM     50  H22 38O d   1     213.785   1.625  20.283  0.00  0.00     0.169 HD
ATOM     51  O29 38O d   1     214.960   1.650  22.411  0.00  0.00    -0.267 OA
ENDBRANCH   2  33
TORSDOF 3
