REMARK  8 active torsions:
REMARK  status: ('A' for Active; 'I' for Inactive)
REMARK    1  A    between atoms: C17_2  and  C10_4 
REMARK    2  A    between atoms: C7_7  and  S1_8 
REMARK    3  A    between atoms: S1_8  and  N7_10 
REMARK    4  A    between atoms: C11_13  and  S13_14 
REMARK    5  A    between atoms: S13_14  and  N16_17 
REMARK    6  A    between atoms: N16_17  and  C19_18 
REMARK    7  A    between atoms: C19_18  and  C20_19 
REMARK    8  A    between atoms: C20_19  and  C21_20 
ROOT
ATOM      1  S13 45I d   1      -5.710   5.436  13.773  0.00  0.00     0.259 S 
ATOM      2  O15 45I d   1      -6.053   5.962  15.045  0.00  0.00    -0.201 OA
ATOM      3  O14 45I d   1      -6.474   5.903  12.635  0.00  0.00    -0.201 OA
ENDROOT
BRANCH   1   4
ATOM      4  C11 45I d   1      -5.382   3.838  13.892  0.00  0.00     0.098 A 
ATOM      5  C10 45I d   1      -4.602   3.145  12.846  0.00  0.00     0.064 A 
ATOM      6  C9  45I d   1      -4.331   1.796  13.008  0.00  0.00    -0.063 A 
ATOM      7  C8  45I d   1      -4.727   1.105  14.170  0.00  0.00    -0.059 A 
ATOM      8  H1  45I d   1      -3.804   1.262  12.226  0.00  0.00     0.085 H 
ATOM      9  C7  45I d   1      -5.443   1.747  15.221  0.00  0.00     0.080 A 
ATOM     10  H2  45I d   1      -4.480   0.054  14.267  0.00  0.00     0.085 H 
ATOM     11  C12 45I d   1      -5.744   3.111  15.045  0.00  0.00    -0.037 A 
ATOM     12  H5  45I d   1      -6.280   3.627  15.834  0.00  0.00     0.088 H 
BRANCH   5  13
ATOM     13  C17 45I d   1      -4.197   3.814  11.591  0.00  0.00     0.211 C 
ATOM     14  O18 45I d   1      -3.283   4.621  11.513  0.00  0.00    -0.644 OA
ATOM     15  O17 45I d   1      -4.936   3.566  10.554  0.00  0.00    -0.644 OA
ENDBRANCH   5  13
BRANCH   9  16
ATOM     16  S1  45I d   1      -5.968   0.988  16.622  0.00  0.00     0.256 S 
ATOM     17  O6  45I d   1      -7.372   1.283  16.791  0.00  0.00    -0.201 OA
ATOM     18  O5  45I d   1      -5.139   1.414  17.683  0.00  0.00    -0.201 OA
BRANCH  16  19
ATOM     19  N7  45I d   1      -5.765  -0.563  16.459  0.00  0.00    -0.324 N 
ATOM     20  H3  45I d   1      -6.024  -1.182  17.201  0.00  0.00     0.169 HD
ATOM     21  H4  45I d   1      -5.377  -0.930  15.614  0.00  0.00     0.169 HD
ENDBRANCH  16  19
ENDBRANCH   9  16
ENDBRANCH   1   4
BRANCH   1  22
ATOM     22  N16 45I d   1      -4.329   6.149  13.411  0.00  0.00    -0.315 N 
ATOM     23  H6  45I d   1      -4.206   6.580  12.517  0.00  0.00     0.172 HD
BRANCH  22  24
ATOM     24  C19 45I d   1      -3.241   6.169  14.394  0.00  0.00     0.006 C 
ATOM     25  H7  45I d   1      -3.154   5.170  14.847  0.00  0.00     0.065 H 
ATOM     26  H8  45I d   1      -3.482   6.906  15.175  0.00  0.00     0.065 H 
BRANCH  24  27
ATOM     27  C20 45I d   1      -1.902   6.541  13.765  0.00  0.00    -0.026 C 
ATOM     28  H9  45I d   1      -1.783   5.988  12.822  0.00  0.00     0.042 H 
ATOM     29  H10 45I d   1      -1.092   6.266  14.456  0.00  0.00     0.042 H 
BRANCH  27  30
ATOM     30  C21 45I d   1      -1.825   8.010  13.483  0.00  0.00    -0.057 A 
ATOM     31  C26 45I d   1      -1.340   8.876  14.462  0.00  0.00    -0.077 A 
ATOM     32  C25 45I d   1      -1.269  10.248  14.197  0.00  0.00    -0.082 A 
ATOM     33  H11 45I d   1      -1.020   8.489  15.423  0.00  0.00     0.084 H 
ATOM     34  C24 45I d   1      -1.661  10.744  12.947  0.00  0.00    -0.083 A 
ATOM     35  H12 45I d   1      -0.910  10.928  14.961  0.00  0.00     0.083 H 
ATOM     36  C23 45I d   1      -2.151   9.867  11.967  0.00  0.00    -0.082 A 
ATOM     37  H13 45I d   1      -1.586  11.805  12.737  0.00  0.00     0.083 H 
ATOM     38  C22 45I d   1      -2.221   8.499  12.234  0.00  0.00    -0.077 A 
ATOM     39  H14 45I d   1      -2.474  10.251  11.006  0.00  0.00     0.083 H 
ATOM     40  H15 45I d   1      -2.582   7.816  11.474  0.00  0.00     0.084 H 
ENDBRANCH  27  30
ENDBRANCH  24  27
ENDBRANCH  22  24
ENDBRANCH   1  22
TORSDOF 8
