REMARK  10 active torsions:
REMARK  status: ('A' for Active; 'I' for Inactive)
REMARK    1  A    between atoms: S1_2  and  N7_4 
REMARK    2  A    between atoms: S1_2  and  C7_5 
REMARK    3  A    between atoms: C10_8  and  C17_9 
REMARK    4  A    between atoms: C11_13  and  S13_14 
REMARK    5  A    between atoms: S13_14  and  N16_17 
REMARK    6  A    between atoms: N16_17  and  C19_18 
REMARK    7  A    between atoms: C19_18  and  C20_19 
REMARK    8  A    between atoms: C20_19  and  C21_20 
REMARK    9  A    between atoms: C21_20  and  C29_21 
REMARK   10  A    between atoms: C29_21  and  C30_22 
ROOT
ATOM      1  S13 IW7 d   1      -5.746   5.443  13.716  0.00  0.00     0.259 S 
ATOM      2  O15 IW7 d   1      -6.493   5.867  12.571  0.00  0.00    -0.201 OA
ATOM      3  O14 IW7 d   1      -6.144   5.989  14.951  0.00  0.00    -0.201 OA
ENDROOT
BRANCH   1   4
ATOM      4  C11 IW7 d   1      -5.406   3.863  13.859  0.00  0.00     0.098 A 
ATOM      5  C10 IW7 d   1      -4.625   3.146  12.821  0.00  0.00     0.064 A 
ATOM      6  C9  IW7 d   1      -4.350   1.796  12.991  0.00  0.00    -0.063 A 
ATOM      7  C8  IW7 d   1      -4.772   1.135  14.154  0.00  0.00    -0.059 A 
ATOM      8  H4  IW7 d   1      -3.809   1.252  12.225  0.00  0.00     0.085 H 
ATOM      9  C7  IW7 d   1      -5.481   1.799  15.187  0.00  0.00     0.080 A 
ATOM     10  H3  IW7 d   1      -4.548   0.080  14.267  0.00  0.00     0.085 H 
ATOM     11  C12 IW7 d   1      -5.801   3.161  15.011  0.00  0.00    -0.037 A 
ATOM     12  H5  IW7 d   1      -6.364   3.678  15.780  0.00  0.00     0.088 H 
BRANCH   5  13
ATOM     13  C17 IW7 d   1      -4.213   3.787  11.553  0.00  0.00     0.211 C 
ATOM     14  O18 IW7 d   1      -4.807   3.489  10.554  0.00  0.00    -0.644 OA
ATOM     15  O17 IW7 d   1      -3.272   4.700  11.527  0.00  0.00    -0.644 OA
ENDBRANCH   5  13
BRANCH   9  16
ATOM     16  S1  IW7 d   1      -5.987   1.024  16.568  0.00  0.00     0.256 S 
ATOM     17  O5  IW7 d   1      -7.370   1.340  16.843  0.00  0.00    -0.201 OA
ATOM     18  O6  IW7 d   1      -5.109   1.384  17.638  0.00  0.00    -0.201 OA
BRANCH  16  19
ATOM     19  N7  IW7 d   1      -5.791  -0.543  16.447  0.00  0.00    -0.324 N 
ATOM     20  H1  IW7 d   1      -6.301  -1.059  15.759  0.00  0.00     0.169 HD
ATOM     21  H2  IW7 d   1      -5.157  -1.016  17.059  0.00  0.00     0.169 HD
ENDBRANCH  16  19
ENDBRANCH   9  16
ENDBRANCH   1   4
BRANCH   1  22
ATOM     22  N16 IW7 d   1      -4.368   6.228  13.446  0.00  0.00    -0.315 N 
ATOM     23  H6  IW7 d   1      -4.224   6.689  12.570  0.00  0.00     0.172 HD
BRANCH  22  24
ATOM     24  C19 IW7 d   1      -3.323   6.275  14.468  0.00  0.00     0.003 C 
ATOM     25  H7  IW7 d   1      -2.999   5.248  14.694  0.00  0.00     0.065 H 
ATOM     26  H8  IW7 d   1      -3.734   6.739  15.377  0.00  0.00     0.065 H 
BRANCH  24  27
ATOM     27  C20 IW7 d   1      -2.111   7.087  14.000  0.00  0.00    -0.050 C 
ATOM     28  H9  IW7 d   1      -2.232   7.320  12.932  0.00  0.00     0.035 H 
ATOM     29  H10 IW7 d   1      -1.203   6.482  14.143  0.00  0.00     0.035 H 
BRANCH  27  30
ATOM     30  C21 IW7 d   1      -1.960   8.375  14.762  0.00  0.00    -0.064 C 
ATOM     31  H11 IW7 d   1      -1.759   8.145  15.819  0.00  0.00     0.033 H 
ATOM     32  H12 IW7 d   1      -2.894   8.950  14.683  0.00  0.00     0.033 H 
BRANCH  30  33
ATOM     33  C29 IW7 d   1      -0.807   9.218  14.207  0.00  0.00    -0.068 C 
ATOM     34  H13 IW7 d   1      -0.179   8.570  13.578  0.00  0.00     0.032 H 
ATOM     35  H14 IW7 d   1      -0.214   9.591  15.056  0.00  0.00     0.032 H 
BRANCH  33  36
ATOM     36  C30 IW7 d   1      -1.243  10.410  13.373  0.00  0.00    -0.077 C 
ATOM     37  H15 IW7 d   1      -0.355  10.954  13.018  0.00  0.00     0.027 H 
ATOM     38  H16 IW7 d   1      -1.862  11.080  13.987  0.00  0.00     0.027 H 
ATOM     39  H17 IW7 d   1      -1.827  10.059  12.509  0.00  0.00     0.027 H 
ENDBRANCH  33  36
ENDBRANCH  30  33
ENDBRANCH  27  30
ENDBRANCH  24  27
ENDBRANCH  22  24
ENDBRANCH   1  22
TORSDOF 10
