REMARK  8 active torsions:
REMARK  status: ('A' for Active; 'I' for Inactive)
REMARK    1  A    between atoms: S13_2  and  N16_4 
REMARK    2  A    between atoms: S13_2  and  C11_9 
REMARK    3  A    between atoms: N16_4  and  C19_5 
REMARK    4  A    between atoms: C19_5  and  C20_6 
REMARK    5  A    between atoms: C21_7  and  C29_8 
REMARK    6  A    between atoms: C10_10  and  C17_12 
REMARK    7  A    between atoms: C7_16  and  S1_18 
REMARK    8  A    between atoms: S1_18  and  N7_21 
ROOT
ATOM      1  C11 51J d   1      -5.267   3.886  13.864  0.00  0.00     0.098 A 
ATOM      2  C10 51J d   1      -4.517   3.152  12.830  0.00  0.00     0.064 A 
ATOM      3  C9  51J d   1      -4.304   1.802  13.052  0.00  0.00    -0.063 A 
ATOM      4  C12 51J d   1      -5.679   3.155  15.009  0.00  0.00    -0.037 A 
ATOM      5  C7  51J d   1      -5.364   1.798  15.243  0.00  0.00     0.080 A 
ATOM      6  C8  51J d   1      -4.686   1.137  14.197  0.00  0.00    -0.059 A 
ATOM      7  H7  51J d   1      -3.805   1.232  12.276  0.00  0.00     0.085 H 
ATOM      8  H8  51J d   1      -6.274   3.672  15.753  0.00  0.00     0.088 H 
ATOM      9  H9  51J d   1      -4.460   0.081  14.296  0.00  0.00     0.085 H 
ENDROOT
BRANCH   1  10
ATOM     10  S13 51J d   1      -5.628   5.506  13.757  0.00  0.00     0.260 S 
ATOM     11  O14 51J d   1      -6.251   5.932  14.974  0.00  0.00    -0.200 OA
ATOM     12  O15 51J d   1      -6.312   5.783  12.566  0.00  0.00    -0.200 OA
BRANCH  10  13
ATOM     13  N16 51J d   1      -4.231   6.338  13.640  0.00  0.00    -0.304 N 
ATOM     14  H1  51J d   1      -3.959   6.791  12.791  0.00  0.00     0.173 HD
BRANCH  13  15
ATOM     15  C19 51J d   1      -3.399   6.388  14.835  0.00  0.00     0.057 C 
ATOM     16  H2  51J d   1      -2.824   5.453  14.908  0.00  0.00     0.084 H 
ATOM     17  H3  51J d   1      -4.048   6.489  15.717  0.00  0.00     0.084 H 
BRANCH  15  18
ATOM     18  C20 51J d   1      -2.474   7.509  14.799  0.00  0.00    -0.087 C 
ATOM     19  C21 51J d   1      -1.740   8.423  14.769  0.00  0.00    -0.109 C 
BRANCH  19  20
ATOM     20  C29 51J d   1      -0.840   9.560  14.725  0.00  0.00    -0.021 C 
ATOM     21  H4  51J d   1       0.072   9.328  15.294  0.00  0.00     0.044 H 
ATOM     22  H5  51J d   1      -1.335  10.437  15.168  0.00  0.00     0.044 H 
ATOM     23  H6  51J d   1      -0.575   9.778  13.680  0.00  0.00     0.044 H 
ENDBRANCH  19  20
ENDBRANCH  15  18
ENDBRANCH  13  15
ENDBRANCH  10  13
ENDBRANCH   1  10
BRANCH   2  24
ATOM     24  C17 51J d   1      -4.115   3.768  11.538  0.00  0.00     0.211 C 
ATOM     25  O17 51J d   1      -4.597   3.304  10.477  0.00  0.00    -0.644 OA
ATOM     26  O18 51J d   1      -3.349   4.741  11.553  0.00  0.00    -0.644 OA
ENDBRANCH   2  24
BRANCH   5  27
ATOM     27  S1  51J d   1      -5.918   0.982  16.633  0.00  0.00     0.256 S 
ATOM     28  O6  51J d   1      -7.343   1.309  16.733  0.00  0.00    -0.201 OA
ATOM     29  O5  51J d   1      -5.078   1.378  17.711  0.00  0.00    -0.201 OA
BRANCH  27  30
ATOM     30  N7  51J d   1      -5.729  -0.566  16.420  0.00  0.00    -0.324 N 
ATOM     31  H10 51J d   1      -6.002  -1.206  17.138  0.00  0.00     0.169 HD
ATOM     32  H11 51J d   1      -5.336  -0.909  15.567  0.00  0.00     0.169 HD
ENDBRANCH  27  30
ENDBRANCH   5  27
TORSDOF 8
