REMARK  9 active torsions:
REMARK  status: ('A' for Active; 'I' for Inactive)
REMARK    1  A    between atoms: C1_1  and  N2_2 
REMARK    2  A    between atoms: N2_2  and  C3_3 
REMARK    3  A    between atoms: C5_5  and  O6_6 
REMARK    4  A    between atoms: O6_6  and  C7_7 
REMARK    5  A    between atoms: C7_7  and  C8_8 
REMARK    6  A    between atoms: C8_8  and  O9_9 
REMARK    7  A    between atoms: O9_9  and  C10_10 
REMARK    8  A    between atoms: N13_13  and  C14_14 
REMARK    9  A    between atoms: C14_14  and  C15_15 
ROOT
ATOM      1  C3  RJE d   1      -7.807  10.781 -16.692  0.00  0.00     0.158 A 
ATOM      2  N4  RJE d   1      -8.539   9.872 -17.318  0.00  0.00    -0.187 NA
ATOM      3  C5  RJE d   1      -8.660   9.853 -18.643  0.00  0.00     0.272 A 
ATOM      4  N11 RJE d   1      -8.032  10.742 -19.401  0.00  0.00    -0.186 NA
ATOM      5  C12 RJE d   1      -7.281  11.694 -18.850  0.00  0.00     0.169 A 
ATOM      6  N13 RJE d   1      -6.510  12.718 -19.348  0.00  0.00    -0.277 N 
ATOM      7  C21 RJE d   1      -5.931  13.359 -18.323  0.00  0.00     0.329 A 
ATOM      8  O22 RJE d   1      -5.160  14.307 -18.431  0.00  0.00    -0.246 OA
ATOM      9  N23 RJE d   1      -6.323  12.811 -17.159  0.00  0.00    -0.302 N 
ATOM     10  C25 RJE d   1      -7.165  11.747 -17.459  0.00  0.00     0.129 A 
ATOM     11  H19 RJE d   1      -6.057  13.114 -16.244  0.00  0.00     0.171 HD
ENDROOT
BRANCH   6  12
ATOM     12  C14 RJE d   1      -6.210  13.004 -20.759  0.00  0.00     0.030 C 
ATOM     13  H12 RJE d   1      -5.965  12.041 -21.231  0.00  0.00     0.072 H 
ATOM     14  H13 RJE d   1      -5.322  13.653 -20.768  0.00  0.00     0.072 H 
BRANCH  12  15
ATOM     15  C15 RJE d   1      -7.232  13.663 -21.631  0.00  0.00    -0.040 A 
ATOM     16  C16 RJE d   1      -8.527  13.177 -21.732  0.00  0.00    -0.075 A 
ATOM     17  C17 RJE d   1      -9.429  13.806 -22.581  0.00  0.00    -0.082 A 
ATOM     18  H14 RJE d   1      -8.833  12.313 -21.153  0.00  0.00     0.084 H 
ATOM     19  C18 RJE d   1      -9.028  14.902 -23.323  0.00  0.00    -0.083 A 
ATOM     20  H15 RJE d   1     -10.445  13.438 -22.662  0.00  0.00     0.083 H 
ATOM     21  C19 RJE d   1      -7.734  15.368 -23.226  0.00  0.00    -0.082 A 
ATOM     22  H16 RJE d   1      -9.733  15.396 -23.982  0.00  0.00     0.083 H 
ATOM     23  C20 RJE d   1      -6.827  14.747 -22.384  0.00  0.00    -0.075 A 
ATOM     24  H17 RJE d   1      -7.425  16.226 -23.812  0.00  0.00     0.083 H 
ATOM     25  H18 RJE d   1      -5.807  15.109 -22.317  0.00  0.00     0.084 H 
ENDBRANCH  12  15
ENDBRANCH   6  12
BRANCH   3  26
ATOM     26  O6  RJE d   1      -9.452   8.864 -19.165  0.00  0.00    -0.317 OA
BRANCH  26  27
ATOM     27  C7  RJE d   1      -9.525   8.923 -20.590  0.00  0.00     0.049 C 
ATOM     28  H5  RJE d   1      -9.173   7.977 -21.026  0.00  0.00     0.078 H 
ATOM     29  H6  RJE d   1      -8.908   9.752 -20.967  0.00  0.00     0.078 H 
BRANCH  27  30
ATOM     30  C8  RJE d   1     -10.997   9.155 -20.950  0.00  0.00     0.039 C 
ATOM     31  H7  RJE d   1     -11.623   8.978 -20.063  0.00  0.00     0.077 H 
ATOM     32  H8  RJE d   1     -11.292   8.462 -21.752  0.00  0.00     0.077 H 
BRANCH  30  33
ATOM     33  O9  RJE d   1     -11.173  10.495 -21.394  0.00  0.00    -0.394 OA
BRANCH  33  34
ATOM     34  C10 RJE d   1     -11.176  10.740 -22.813  0.00  0.00     0.004 C 
ATOM     35  H9  RJE d   1     -11.321  11.814 -22.999  0.00  0.00     0.066 H 
ATOM     36  H10 RJE d   1     -11.994  10.173 -23.281  0.00  0.00     0.066 H 
ATOM     37  H11 RJE d   1     -10.215  10.420 -23.242  0.00  0.00     0.066 H 
ENDBRANCH  33  34
ENDBRANCH  30  33
ENDBRANCH  27  30
ENDBRANCH  26  27
ENDBRANCH   3  26
BRANCH   1  38
ATOM     38  N2  RJE d   1      -7.704  10.784 -15.309  0.00  0.00    -0.377 N 
ATOM     39  H4  RJE d   1      -7.089  11.481 -14.866  0.00  0.00     0.160 HD
BRANCH  38  40
ATOM     40  C1  RJE d   1      -8.423   9.850 -14.450  0.00  0.00    -0.019 C 
ATOM     41  H1  RJE d   1      -8.175  10.055 -13.398  0.00  0.00     0.056 H 
ATOM     42  H2  RJE d   1      -8.130   8.820 -14.702  0.00  0.00     0.056 H 
ATOM     43  H3  RJE d   1      -9.506   9.971 -14.602  0.00  0.00     0.056 H 
ENDBRANCH  38  40
ENDBRANCH   1  38
TORSDOF 9
