REMARK  2 active torsions:
REMARK  status: ('A' for Active; 'I' for Inactive)
REMARK    1  A    between atoms: C1_24  and  N_25 
REMARK    2  A    between atoms: N_25  and  C_26 
ROOT
ATOM      1  O3  58T d   1      18.395  21.784   3.903  0.00  0.00    -0.246 OA
ATOM      2  C16 58T d   1      17.495  21.115   4.367  0.00  0.00     0.329 A 
ATOM      3  N4  58T d   1      17.584  20.178   5.358  0.00  0.00    -0.302 N 
ATOM      4  C2  58T d   1      16.360  19.576   5.559  0.00  0.00     0.129 A 
ATOM      5  N3  58T d   1      16.191  21.102   3.920  0.00  0.00    -0.277 N 
ATOM      6  C3  58T d   1      15.483  20.153   4.612  0.00  0.00     0.169 A 
ATOM      7  C15 58T d   1      15.730  21.884   2.767  0.00  0.00     0.030 C 
ATOM      8  C13 58T d   1      14.926  23.128   3.047  0.00  0.00    -0.037 A 
ATOM      9  C12 58T d   1      15.237  24.319   2.415  0.00  0.00    -0.075 A 
ATOM     10  C11 58T d   1      14.473  25.451   2.629  0.00  0.00    -0.080 A 
ATOM     11  C10 58T d   1      13.336  25.390   3.415  0.00  0.00    -0.051 A 
ATOM     12  C14 58T d   1      13.777  23.065   3.825  0.00  0.00    -0.043 A 
ATOM     13  C9  58T d   1      12.991  24.191   4.010  0.00  0.00     0.069 A 
ATOM     14  O2  58T d   1      11.851  24.186   4.797  0.00  0.00    -0.349 OA
ATOM     15  C8  58T d   1      11.763  23.308   5.936  0.00  0.00     0.046 C 
ATOM     16  C7  58T d   1      10.705  22.276   5.677  0.00  0.00     0.040 C 
ATOM     17  O1  58T d   1      11.311  21.226   4.962  0.00  0.00    -0.387 OA
ATOM     18  C6  58T d   1      10.675  19.949   5.095  0.00  0.00     0.040 C 
ATOM     19  C5  58T d   1      11.543  18.933   4.394  0.00  0.00     0.049 C 
ATOM     20  O   58T d   1      12.555  18.474   5.326  0.00  0.00    -0.317 OA
ATOM     21  C4  58T d   1      13.835  18.861   5.335  0.00  0.00     0.272 A 
ATOM     22  N1  58T d   1      14.194  19.801   4.465  0.00  0.00    -0.186 NA
ATOM     23  N2  58T d   1      14.601  18.233   6.254  0.00  0.00    -0.187 NA
ATOM     24  C1  58T d   1      15.875  18.560   6.420  0.00  0.00     0.158 A 
ATOM     25  H1  58T d   1      18.418  19.960   5.865  0.00  0.00     0.171 HD
ATOM     26  H2  58T d   1      15.107  21.222   2.147  0.00  0.00     0.072 H 
ATOM     27  H3  58T d   1      16.621  22.189   2.198  0.00  0.00     0.072 H 
ATOM     28  H4  58T d   1      16.088  24.365   1.745  0.00  0.00     0.084 H 
ATOM     29  H5  58T d   1      14.767  26.392   2.178  0.00  0.00     0.083 H 
ATOM     30  H6  58T d   1      12.723  26.272   3.562  0.00  0.00     0.087 H 
ATOM     31  H7  58T d   1      13.493  22.128   4.291  0.00  0.00     0.088 H 
ATOM     32  H8  58T d   1      11.499  23.890   6.831  0.00  0.00     0.078 H 
ATOM     33  H9  58T d   1      12.732  22.811   6.095  0.00  0.00     0.078 H 
ATOM     34  H10 58T d   1       9.889  22.714   5.083  0.00  0.00     0.077 H 
ATOM     35  H11 58T d   1      10.304  21.900   6.630  0.00  0.00     0.077 H 
ATOM     36  H12 58T d   1       9.678  19.976   4.630  0.00  0.00     0.077 H 
ATOM     37  H13 58T d   1      10.576  19.688   6.159  0.00  0.00     0.077 H 
ATOM     38  H14 58T d   1      12.025  19.396   3.521  0.00  0.00     0.078 H 
ATOM     39  H15 58T d   1      10.928  18.082   4.065  0.00  0.00     0.078 H 
ENDROOT
BRANCH  24  40
ATOM     40  N   58T d   1      16.627  17.949   7.346  0.00  0.00    -0.377 N 
ATOM     41  H16 58T d   1      17.573  18.316   7.522  0.00  0.00     0.160 HD
BRANCH  40  42
ATOM     42  C   58T d   1      16.187  16.808   8.109  0.00  0.00    -0.019 C 
ATOM     43  H17 58T d   1      16.986  16.497   8.798  0.00  0.00     0.056 H 
ATOM     44  H18 58T d   1      15.950  15.979   7.426  0.00  0.00     0.056 H 
ATOM     45  H19 58T d   1      15.290  17.076   8.686  0.00  0.00     0.056 H 
ENDBRANCH  40  42
ENDBRANCH  24  40
TORSDOF 2
