REMARK  8 active torsions:
REMARK  status: ('A' for Active; 'I' for Inactive)
REMARK    1  A    between atoms: N2_3  and  C10_4 
REMARK    2  A    between atoms: C11_14  and  N2_3 
REMARK       I    between atoms: C1_5  and  N_7 
REMARK    3  A    between atoms: C2_15  and  C1_5 
REMARK    4  A    between atoms: N_7  and  C_16 
REMARK    5  A    between atoms: C7_9  and  O1_10 
REMARK    6  A    between atoms: O1_10  and  C17_11 
REMARK    7  A    between atoms: C6_12  and  O2_22 
REMARK    8  A    between atoms: O2_22  and  C18_13 
ROOT
ATOM      1  C10 RGJ d   1      15.579  19.947   4.590  0.00  0.00     0.062 A 
ATOM      2  C9  RGJ d   1      15.976  20.895   3.585  0.00  0.00     0.023 A 
ATOM      3  C7  RGJ d   1      15.579  22.287   1.640  0.00  0.00     0.102 A 
ATOM      4  C6  RGJ d   1      16.922  22.715   1.670  0.00  0.00     0.103 A 
ATOM      5  C2  RGJ d   1      16.561  19.402   5.449  0.00  0.00     0.077 A 
ATOM      6  C4  RGJ d   1      17.328  21.308   3.591  0.00  0.00     0.071 A 
ATOM      7  N1  RGJ d   1      18.243  20.818   4.477  0.00  0.00    -0.259 NA
ATOM      8  C3  RGJ d   1      17.855  19.901   5.334  0.00  0.00     0.020 A 
ATOM      9  C8  RGJ d   1      15.134  21.366   2.545  0.00  0.00    -0.034 A 
ATOM     10  C5  RGJ d   1      17.780  22.221   2.609  0.00  0.00    -0.019 A 
ATOM     11  H12 RGJ d   1      18.604  19.500   6.007  0.00  0.00     0.116 H 
ATOM     12  H13 RGJ d   1      14.121  20.989   2.467  0.00  0.00     0.089 H 
ATOM     13  H14 RGJ d   1      18.819  22.531   2.603  0.00  0.00     0.091 H 
ENDROOT
BRANCH   1  14
ATOM     14  N2  RGJ d   1      14.256  19.566   4.732  0.00  0.00    -0.352 N 
ATOM     15  H1  RGJ d   1      14.071  18.570   4.916  0.00  0.00     0.166 HD
BRANCH  14  16
ATOM     16  C11 RGJ d   1      13.135  20.426   4.646  0.00  0.00     0.071 A 
ATOM     17  C12 RGJ d   1      11.931  19.919   4.158  0.00  0.00    -0.052 A 
ATOM     18  C13 RGJ d   1      10.808  20.721   4.080  0.00  0.00    -0.060 A 
ATOM     19  H16 RGJ d   1      11.875  18.885   3.837  0.00  0.00     0.087 H 
ATOM     20  C14 RGJ d   1      10.890  22.036   4.488  0.00  0.00     0.037 A 
ATOM     21  H15 RGJ d   1       9.874  20.321   3.703  0.00  0.00     0.086 H 
ATOM     22 CL   RGJ d   1       9.495  23.040   4.376  0.00  0.00    -0.084 Cl
ATOM     23  C15 RGJ d   1      12.056  22.579   4.990  0.00  0.00    -0.022 A 
ATOM     24  C16 RGJ d   1      13.145  21.753   5.072  0.00  0.00     0.144 A 
ATOM     25  H17 RGJ d   1      12.107  23.615   5.306  0.00  0.00     0.090 H 
ATOM     26  F   RGJ d   1      14.304  22.266   5.540  0.00  0.00    -0.204 F 
ENDBRANCH  14  16
ENDBRANCH   1  14
BRANCH   5  27
ATOM     27  C1  RGJ d   1      16.233  18.315   6.437  0.00  0.00     0.255 C 
ATOM     28  O   RGJ d   1      15.169  17.722   6.415  0.00  0.00    -0.268 OA
ATOM     29  N   RGJ d   1      17.187  17.928   7.275  0.00  0.00    -0.361 N 
ATOM     30  H2  RGJ d   1      18.047  18.437   7.304  0.00  0.00     0.162 HD
BRANCH  29  31
ATOM     31  C   RGJ d   1      17.011  16.783   8.150  0.00  0.00    -0.018 C 
ATOM     32  H9  RGJ d   1      17.918  16.641   8.755  0.00  0.00     0.056 H 
ATOM     33  H10 RGJ d   1      16.830  15.883   7.544  0.00  0.00     0.056 H 
ATOM     34  H11 RGJ d   1      16.151  16.957   8.813  0.00  0.00     0.056 H 
ENDBRANCH  29  31
ENDBRANCH   5  27
BRANCH   3  35
ATOM     35  O1  RGJ d   1      14.830  22.815   0.619  0.00  0.00    -0.353 OA
BRANCH  35  36
ATOM     36  C17 RGJ d   1      13.517  22.281   0.402  0.00  0.00     0.010 C 
ATOM     37  H3  RGJ d   1      13.045  22.802  -0.444  0.00  0.00     0.066 H 
ATOM     38  H4  RGJ d   1      12.908  22.425   1.307  0.00  0.00     0.066 H 
ATOM     39  H5  RGJ d   1      13.591  21.207   0.177  0.00  0.00     0.066 H 
ENDBRANCH  35  36
ENDBRANCH   3  35
BRANCH   4  40
ATOM     40  O2  RGJ d   1      17.260  23.628   0.708  0.00  0.00    -0.353 OA
BRANCH  40  41
ATOM     41  C18 RGJ d   1      18.587  24.146   0.736  0.00  0.00     0.010 C 
ATOM     42  H6  RGJ d   1      18.718  24.863  -0.088  0.00  0.00     0.066 H 
ATOM     43  H7  RGJ d   1      19.305  23.321   0.621  0.00  0.00     0.066 H 
ATOM     44  H8  RGJ d   1      18.762  24.654   1.696  0.00  0.00     0.066 H 
ENDBRANCH  40  41
ENDBRANCH   4  40
TORSDOF 8
