REMARK  3 active torsions:
REMARK  status: ('A' for Active; 'I' for Inactive)
REMARK    1  A    between atoms: C1_1  and  C11_17 
REMARK    2  A    between atoms: C4_10  and  N1_3 
REMARK    3  A    between atoms: C6_12  and  O2_7 
ROOT
ATOM      1  C1  Y0V d   1      90.937  95.472 -44.751  0.00  0.00     0.076 A 
ATOM      2  I1  Y0V d   1      92.431  94.309 -40.810  0.00  0.00    -0.039 I 
ATOM      3  C2  Y0V d   1      91.043  94.305 -45.530  0.00  0.00    -0.045 A 
ATOM      4  I2  Y0V d   1      91.586  91.491 -46.404  0.00  0.00    -0.042 I 
ATOM      5  C3  Y0V d   1      91.549  93.104 -45.010  0.00  0.00     0.036 A 
ATOM      6  C4  Y0V d   1      91.955  93.081 -43.652  0.00  0.00     0.074 A 
ATOM      7  C5  Y0V d   1      91.857  94.258 -42.869  0.00  0.00     0.069 A 
ATOM      8  C6  Y0V d   1      91.345  95.445 -43.419  0.00  0.00     0.101 A 
ATOM      9  H1  Y0V d   1      90.723  94.335 -46.565  0.00  0.00     0.087 H 
ENDROOT
BRANCH   6  10
ATOM     10  N1  Y0V d   1      92.501  91.953 -42.997  0.00  0.00    -0.330 N 
ATOM     11  C7  Y0V d   1      93.852  91.777 -42.755  0.00  0.00    -0.015 A 
ATOM     12  C8  Y0V d   1      94.031  90.599 -42.064  0.00  0.00    -0.066 A 
ATOM     13  H3  Y0V d   1      94.644  92.459 -43.061  0.00  0.00     0.112 H 
ATOM     14  C9  Y0V d   1      92.749  90.033 -41.877  0.00  0.00    -0.066 A 
ATOM     15  H4  Y0V d   1      94.979  90.183 -41.726  0.00  0.00     0.085 H 
ATOM     16  C10 Y0V d   1      91.827  90.881 -42.454  0.00  0.00    -0.015 A 
ATOM     17  H5  Y0V d   1      92.529  89.096 -41.368  0.00  0.00     0.085 H 
ATOM     18  H6  Y0V d   1      90.749  90.729 -42.477  0.00  0.00     0.112 H 
ENDBRANCH   6  10
BRANCH   8  19
ATOM     19  O2  Y0V d   1      91.235  96.593 -42.675  0.00  0.00    -0.358 OA
ATOM     20  H2  Y0V d   1      90.325  96.863 -42.644  0.00  0.00     0.217 HD
ENDBRANCH   8  19
BRANCH   1  21
ATOM     21  C11 Y0V d   1      90.394  96.717 -45.384  0.00  0.00     0.212 C 
ATOM     22  O1  Y0V d   1      90.204  97.723 -44.630  0.00  0.00    -0.644 OA
ATOM     23  O3  Y0V d   1      90.191  96.655 -46.639  0.00  0.00    -0.644 OA
ENDBRANCH   1  21
TORSDOF 3
