REMARK  3 active torsions:
REMARK  status: ('A' for Active; 'I' for Inactive)
REMARK    1  A    between atoms: C3_3  and  C7_10 
REMARK    2  A    between atoms: C5_5  and  N2_8 
REMARK    3  A    between atoms: C6_6  and  N1_7 
ROOT
ATOM      1  C1  UFV d   1      90.951  88.859 -41.631  0.00  0.00     0.040 A 
ATOM      2  C2  UFV d   1      92.171  89.480 -41.443  0.00  0.00    -0.049 A 
ATOM      3  C3  UFV d   1      92.371  90.777 -41.877  0.00  0.00     0.051 A 
ATOM      4  C4  UFV d   1      91.333  91.433 -42.518  0.00  0.00    -0.041 A 
ATOM      5  C5  UFV d   1      90.103  90.809 -42.718  0.00  0.00     0.054 A 
ATOM      6  C6  UFV d   1      89.903  89.505 -42.270  0.00  0.00     0.070 A 
ATOM      7 BR   UFV d   1      90.683  87.056 -40.976  0.00  0.00    -0.049 Br
ATOM      8  H1  UFV d   1      92.977  88.946 -40.952  0.00  0.00     0.086 H 
ATOM      9  H2  UFV d   1      91.480  92.448 -42.870  0.00  0.00     0.088 H 
ENDROOT
BRANCH   3  10
ATOM     10  C7  UFV d   1      93.691  91.449 -41.681  0.00  0.00     0.417 C 
ATOM     11  F1  UFV d   1      94.169  91.811 -42.866  0.00  0.00    -0.166 F 
ATOM     12  F2  UFV d   1      94.536  90.609 -41.097  0.00  0.00    -0.166 F 
ATOM     13  F3  UFV d   1      93.580  92.520 -40.900  0.00  0.00    -0.166 F 
ENDBRANCH   3  10
BRANCH   5  14
ATOM     14  N2  UFV d   1      89.045  91.505 -43.376  0.00  0.00    -0.397 N 
ATOM     15  H5  UFV d   1      89.191  92.469 -43.708  0.00  0.00     0.156 HD
ATOM     16  H6  UFV d   1      88.135  91.043 -43.519  0.00  0.00     0.156 HD
ENDBRANCH   5  14
BRANCH   6  17
ATOM     17  N1  UFV d   1      88.658  88.827 -42.476  0.00  0.00    -0.396 N 
ATOM     18  H3  UFV d   1      88.534  87.863 -42.136  0.00  0.00     0.156 HD
ATOM     19  H4  UFV d   1      87.887  89.304 -42.965  0.00  0.00     0.156 HD
ENDBRANCH   6  17
TORSDOF 3
