REMARK  7 active torsions:
REMARK  status: ('A' for Active; 'I' for Inactive)
REMARK    1  A    between atoms: C6_6  and  N6_7 
REMARK    2  A    between atoms: C7_8  and  C10_12 
REMARK    3  A    between atoms: N9_10  and  C1'_11 
REMARK       I    between atoms: C10_12  and  N11_13 
REMARK    4  A    between atoms: C2'_15  and  O2'_16 
REMARK    5  A    between atoms: C3'_17  and  O3'_18 
REMARK    6  A    between atoms: C4'_19  and  C5'_21 
REMARK    7  A    between atoms: C5'_21  and  O5'_22 
ROOT
ATOM      1  N1  SGV d   1      18.267 -10.692 -12.762  0.00  0.00    -0.224 NA
ATOM      2  C2  SGV d   1      17.150 -10.038 -13.082  0.00  0.00     0.091 A 
ATOM      3  N3  SGV d   1      16.048  -9.858 -12.354  0.00  0.00    -0.223 NA
ATOM      4  C4  SGV d   1      16.141 -10.426 -11.147  0.00  0.00     0.148 A 
ATOM      5  C5  SGV d   1      17.251 -11.143 -10.668  0.00  0.00     0.073 A 
ATOM      6  C6  SGV d   1      18.350 -11.273 -11.547  0.00  0.00     0.137 A 
ATOM      7  C7  SGV d   1      16.954 -11.568  -9.322  0.00  0.00     0.065 A 
ATOM      8  C8  SGV d   1      15.696 -11.110  -9.037  0.00  0.00     0.000 A 
ATOM      9  N9  SGV d   1      15.193 -10.407 -10.153  0.00  0.00    -0.310 N 
ATOM     10  H1  SGV d   1      17.136  -9.591 -14.070  0.00  0.00     0.146 H 
ATOM     11  H4  SGV d   1      15.167 -11.264  -8.098  0.00  0.00     0.113 H 
ENDROOT
BRANCH   9  12
ATOM     12  C1' SGV d   1      13.880  -9.777 -10.224  0.00  0.00     0.138 C 
ATOM     13  C2' SGV d   1      12.708 -10.740 -10.103  0.00  0.00     0.105 C 
ATOM     14  C3' SGV d   1      11.600  -9.784  -9.659  0.00  0.00     0.091 C 
ATOM     15  H8  SGV d   1      12.896 -11.520  -9.351  0.00  0.00     0.093 H 
ATOM     16  C4' SGV d   1      12.346  -8.773  -8.788  0.00  0.00     0.088 C 
ATOM     17  H10 SGV d   1      10.837 -10.318  -9.074  0.00  0.00     0.091 H 
ATOM     18  O4' SGV d   1      13.743  -8.879  -9.144  0.00  0.00    -0.353 OA
ATOM     19  H12 SGV d   1      11.978  -7.765  -9.030  0.00  0.00     0.090 H 
ATOM     20  H5  SGV d   1      13.805  -9.237 -11.180  0.00  0.00     0.122 H 
BRANCH  13  21
ATOM     21  O2' SGV d   1      12.415 -11.345 -11.354  0.00  0.00    -0.388 OA
ATOM     22  H9  SGV d   1      11.682 -11.940 -11.253  0.00  0.00     0.210 HD
ENDBRANCH  13  21
BRANCH  14  23
ATOM     23  O3' SGV d   1      10.977  -9.146 -10.763  0.00  0.00    -0.390 OA
ATOM     24  H11 SGV d   1      10.593  -9.803 -11.332  0.00  0.00     0.210 HD
ENDBRANCH  14  23
BRANCH  16  25
ATOM     25  C5' SGV d   1      12.193  -8.980  -7.300  0.00  0.00     0.043 C 
ATOM     26  H13 SGV d   1      11.136  -8.846  -7.025  0.00  0.00     0.078 H 
ATOM     27  H14 SGV d   1      12.807  -8.238  -6.769  0.00  0.00     0.078 H 
BRANCH  25  28
ATOM     28  O5' SGV d   1      12.609 -10.283  -6.923  0.00  0.00    -0.398 OA
ATOM     29  H15 SGV d   1      13.522 -10.402  -7.156  0.00  0.00     0.209 HD
ENDBRANCH  25  28
ENDBRANCH  16  25
ENDBRANCH   9  12
BRANCH   7  30
ATOM     30  C10 SGV d   1      17.846 -12.309  -8.432  0.00  0.00     0.251 C 
ATOM     31  N11 SGV d   1      17.442 -12.372  -7.173  0.00  0.00    -0.366 N 
ATOM     32  H6  SGV d   1      17.992 -12.860  -6.495  0.00  0.00     0.159 HD
ATOM     33  H7  SGV d   1      16.587 -11.932  -6.900  0.00  0.00     0.159 HD
ATOM     34  O12 SGV d   1      18.895 -12.826  -8.825  0.00  0.00    -0.268 OA
ENDBRANCH   7  30
BRANCH   6  35
ATOM     35  N6  SGV d   1      19.453 -11.962 -11.253  0.00  0.00    -0.383 N 
ATOM     36  H2  SGV d   1      19.546 -12.417 -10.334  0.00  0.00     0.157 HD
ATOM     37  H3  SGV d   1      20.212 -12.039 -11.945  0.00  0.00     0.157 HD
ENDBRANCH   6  35
TORSDOF 7
