REMARK  3 active torsions:
REMARK  status: ('A' for Active; 'I' for Inactive)
REMARK    1  A    between atoms: C1_1  and  N_9 
REMARK    2  A    between atoms: N_9  and  C11_13 
REMARK    3  A    between atoms: C9_11  and  S_10 
ROOT
ATOM      1  C1  2AN d   1     -22.838   2.183 -11.464  0.00  0.00     0.045 A 
ATOM      2  C2  2AN d   1     -23.569   1.813 -12.596  0.00  0.00    -0.056 A 
ATOM      3  C3  2AN d   1     -24.819   2.333 -12.877  0.00  0.00    -0.080 A 
ATOM      4  C4  2AN d   1     -25.342   3.278 -12.016  0.00  0.00    -0.072 A 
ATOM      5  C5  2AN d   1     -24.632   3.690 -10.904  0.00  0.00    -0.022 A 
ATOM      6  C6  2AN d   1     -25.270   4.634 -10.114  0.00  0.00    -0.072 A 
ATOM      7  C7  2AN d   1     -24.673   5.124  -8.969  0.00  0.00    -0.081 A 
ATOM      8  C8  2AN d   1     -23.421   4.630  -8.636  0.00  0.00    -0.058 A 
ATOM      9  C9  2AN d   1     -22.769   3.677  -9.405  0.00  0.00     0.094 A 
ATOM     10  C10 2AN d   1     -23.366   3.166 -10.586  0.00  0.00     0.025 A 
ATOM     11  H1  2AN d   1     -23.140   1.090 -13.280  0.00  0.00     0.086 H 
ATOM     12  H2  2AN d   1     -25.374   2.008 -13.750  0.00  0.00     0.083 H 
ATOM     13  H3  2AN d   1     -26.320   3.701 -12.215  0.00  0.00     0.084 H 
ATOM     14  H4  2AN d   1     -26.252   4.993 -10.399  0.00  0.00     0.084 H 
ATOM     15  H5  2AN d   1     -25.165   5.868  -8.353  0.00  0.00     0.083 H 
ATOM     16  H6  2AN d   1     -22.934   5.002  -7.742  0.00  0.00     0.086 H 
ENDROOT
BRANCH   1  17
ATOM     17  N   2AN d   1     -21.615   1.635 -11.222  0.00  0.00    -0.355 N 
ATOM     18  H7  2AN d   1     -20.833   2.272 -11.015  0.00  0.00     0.166 HD
BRANCH  17  19
ATOM     19  C11 2AN d   1     -21.359   0.285 -11.237  0.00  0.00     0.032 A 
ATOM     20  C12 2AN d   1     -22.267  -0.725 -11.589  0.00  0.00    -0.057 A 
ATOM     21  C13 2AN d   1     -21.939  -2.080 -11.576  0.00  0.00    -0.081 A 
ATOM     22  H8  2AN d   1     -23.270  -0.439 -11.885  0.00  0.00     0.086 H 
ATOM     23  C14 2AN d   1     -20.656  -2.472 -11.226  0.00  0.00    -0.083 A 
ATOM     24  H9  2AN d   1     -22.683  -2.823 -11.838  0.00  0.00     0.083 H 
ATOM     25  C15 2AN d   1     -19.731  -1.496 -10.871  0.00  0.00    -0.081 A 
ATOM     26  H10 2AN d   1     -20.379  -3.520 -11.229  0.00  0.00     0.083 H 
ATOM     27  C16 2AN d   1     -20.076  -0.137 -10.878  0.00  0.00    -0.057 A 
ATOM     28  H11 2AN d   1     -18.728  -1.790 -10.585  0.00  0.00     0.083 H 
ATOM     29  H12 2AN d   1     -19.333   0.601 -10.599  0.00  0.00     0.086 H 
ENDBRANCH  17  19
ENDBRANCH   1  17
BRANCH   9  30
ATOM     30  S   2AN d   1     -21.199   3.254  -8.728  0.00  0.00     0.138 S 
ATOM     31  O1  2AN d   1     -20.209   3.265  -9.884  0.00  0.00    -0.591 OA
ATOM     32  O2  2AN d   1     -21.278   1.868  -8.063  0.00  0.00    -0.591 OA
ATOM     33  O3  2AN d   1     -20.832   4.325  -7.701  0.00  0.00    -0.591 OA
ENDBRANCH   9  30
TORSDOF 3
