REMARK  4 active torsions:
REMARK  status: ('A' for Active; 'I' for Inactive)
REMARK    1  A    between atoms: N_1  and  CA_2 
REMARK    2  A    between atoms: CA_2  and  C_3 
REMARK    3  A    between atoms: CA_2  and  CB_5 
REMARK    4  A    between atoms: CB_5  and  OG_6 
ROOT
ATOM      1  CA  SER d   1     -19.913 -26.714   6.272  0.00  0.00     0.202 C 
ATOM      2  H4  SER d   1     -19.430 -26.343   7.188  0.00  0.00     0.104 H 
ENDROOT
BRANCH   1   3
ATOM      3  N   SER d   1     -19.564 -28.126   6.089  0.00  0.00    -0.063 N 
ATOM      4  H1  SER d   1     -18.564 -28.216   5.997  0.00  0.00     0.275 HD
ATOM      5  H2  SER d   1     -20.011 -28.477   5.256  0.00  0.00     0.275 HD
ATOM      6  H3  SER d   1     -19.877 -28.656   6.887  0.00  0.00     0.275 HD
ENDBRANCH   1   3
BRANCH   1   7
ATOM      7  C   SER d   1     -21.420 -26.578   6.410  0.00  0.00     0.206 C 
ATOM      8  O   SER d   1     -22.157 -27.472   5.969  0.00  0.00    -0.646 OA
ATOM      9  OXT SER d   1     -21.916 -25.575   6.947  0.00  0.00    -0.646 OA
ENDBRANCH   1   7
BRANCH   1  10
ATOM     10  CB  SER d   1     -19.433 -25.875   5.081  0.00  0.00     0.053 C 
ATOM     11  H5  SER d   1     -18.373 -26.098   4.888  0.00  0.00     0.077 H 
ATOM     12  H6  SER d   1     -19.545 -24.808   5.324  0.00  0.00     0.077 H 
BRANCH  10  13
ATOM     13  OG  SER d   1     -20.192 -26.170   3.913  0.00  0.00    -0.398 OA
ATOM     14  H7  SER d   1     -20.095 -27.090   3.698  0.00  0.00     0.209 HD
ENDBRANCH  10  13
ENDBRANCH   1  10
TORSDOF 4
