REMARK  3 active torsions:
REMARK  status: ('A' for Active; 'I' for Inactive)
REMARK    1  A    between atoms: C1_1  and  C2_2 
REMARK    2  A    between atoms: C1_1  and  N1_3 
REMARK    3  A    between atoms: C2_2  and  S_4 
ROOT
ATOM      1  C1  TAU d   1      24.280 141.586 146.142  0.00  0.00     0.094 C 
ATOM      2  H1  TAU d   1      23.705 141.474 147.073  0.00  0.00     0.076 H 
ATOM      3  H2  TAU d   1      25.352 141.658 146.380  0.00  0.00     0.076 H 
ENDROOT
BRANCH   1   4
ATOM      4  C2  TAU d   1      23.832 142.877 145.420  0.00  0.00     0.067 C 
ATOM      5  H3  TAU d   1      23.672 143.659 146.177  0.00  0.00     0.062 H 
ATOM      6  H4  TAU d   1      22.885 142.672 144.899  0.00  0.00     0.062 H 
BRANCH   4   7
ATOM      7  S   TAU d   1      24.953 143.455 144.283  0.00  0.00     0.103 S 
ATOM      8  O1  TAU d   1      24.398 144.682 143.688  0.00  0.00    -0.595 OA
ATOM      9  O2  TAU d   1      26.202 143.808 144.991  0.00  0.00    -0.595 OA
ATOM     10  O3  TAU d   1      25.203 142.403 143.295  0.00  0.00    -0.595 OA
ENDBRANCH   4   7
ENDBRANCH   1   4
BRANCH   1  11
ATOM     11  N1  TAU d   1      24.053 140.416 145.293  0.00  0.00    -0.078 N 
ATOM     12  H5  TAU d   1      24.351 139.585 145.780  0.00  0.00     0.274 HD
ATOM     13  H6  TAU d   1      24.581 140.513 144.440  0.00  0.00     0.274 HD
ATOM     14  H7  TAU d   1      23.072 140.344 145.075  0.00  0.00     0.274 HD
ENDBRANCH   1  11
TORSDOF 3
