REMARK  3 active torsions:
REMARK  status: ('A' for Active; 'I' for Inactive)
REMARK    1  A    between atoms: NAM_3  and  OAX_4 
REMARK    2  A    between atoms: CAA_16  and  CAP_17 
REMARK    3  A    between atoms: CAP_17  and  CAR_19 
ROOT
ATOM      1  OAO L6Y d   1     -20.428  -0.907  -2.284  0.00  0.00    -0.265 OA
ATOM      2  CAN L6Y d   1     -21.400  -0.271  -2.712  0.00  0.00     0.285 A 
ATOM      3  NAM L6Y d   1     -22.273   0.278  -1.843  0.00  0.00    -0.148 N 
ATOM      4  CAK L6Y d   1     -23.351   0.975  -2.281  0.00  0.00     0.285 A 
ATOM      5  OAL L6Y d   1     -24.130   1.462  -1.469  0.00  0.00    -0.265 OA
ATOM      6  CAJ L6Y d   1     -23.588   1.144  -3.642  0.00  0.00     0.046 A 
ATOM      7  CAI L6Y d   1     -24.689   1.874  -4.076  0.00  0.00    -0.067 A 
ATOM      8  CAH L6Y d   1     -24.905   2.032  -5.441  0.00  0.00    -0.081 A 
ATOM      9  CAG L6Y d   1     -24.023   1.484  -6.362  0.00  0.00    -0.071 A 
ATOM     10  CAF L6Y d   1     -22.920   0.760  -5.919  0.00  0.00    -0.010 A 
ATOM     11  CAE L6Y d   1     -22.698   0.603  -4.553  0.00  0.00     0.007 A 
ATOM     12  CAD L6Y d   1     -21.603  -0.116  -4.087  0.00  0.00     0.046 A 
ATOM     13  CAC L6Y d   1     -20.715  -0.671  -5.000  0.00  0.00    -0.066 A 
ATOM     14  CAB L6Y d   1     -20.923  -0.499  -6.377  0.00  0.00    -0.067 A 
ATOM     15  CAA L6Y d   1     -22.038   0.205  -6.838  0.00  0.00     0.026 A 
ATOM     16  H2  L6Y d   1     -25.371   2.315  -3.358  0.00  0.00     0.085 H 
ATOM     17  H3  L6Y d   1     -25.769   2.587  -5.788  0.00  0.00     0.083 H 
ATOM     18  H4  L6Y d   1     -24.193   1.620  -7.424  0.00  0.00     0.084 H 
ATOM     19  H5  L6Y d   1     -19.860  -1.238  -4.648  0.00  0.00     0.085 H 
ATOM     20  H6  L6Y d   1     -20.216  -0.914  -7.086  0.00  0.00     0.085 H 
ENDROOT
BRANCH  15  21
ATOM     21  CAP L6Y d   1     -22.286   0.414  -8.201  0.00  0.00     0.193 C 
ATOM     22  OAQ L6Y d   1     -22.725   1.491  -8.591  0.00  0.00    -0.287 OA
BRANCH  21  23
ATOM     23  CAR L6Y d   1     -21.983  -0.586  -9.128  0.00  0.00     0.015 A 
ATOM     24  CAS L6Y d   1     -22.255  -1.923  -8.878  0.00  0.00    -0.069 A 
ATOM     25  CAT L6Y d   1     -21.942  -2.866  -9.859  0.00  0.00    -0.082 A 
ATOM     26  H7  L6Y d   1     -22.702  -2.230  -7.939  0.00  0.00     0.085 H 
ATOM     27  CAU L6Y d   1     -21.375  -2.473 -11.073  0.00  0.00    -0.083 A 
ATOM     28  H8  L6Y d   1     -22.142  -3.916  -9.676  0.00  0.00     0.083 H 
ATOM     29  CAV L6Y d   1     -21.125  -1.127 -11.313  0.00  0.00    -0.082 A 
ATOM     30  H9  L6Y d   1     -21.131  -3.215 -11.825  0.00  0.00     0.083 H 
ATOM     31  CAW L6Y d   1     -21.429  -0.192 -10.338  0.00  0.00    -0.069 A 
ATOM     32  H10 L6Y d   1     -20.695  -0.811 -12.257  0.00  0.00     0.083 H 
ATOM     33  H11 L6Y d   1     -21.232   0.858 -10.522  0.00  0.00     0.085 H 
ENDBRANCH  21  23
ENDBRANCH  15  21
BRANCH   3  34
ATOM     34  OAX L6Y d   1     -22.073   0.109  -0.449  0.00  0.00    -0.277 OA
ATOM     35  H1  L6Y d   1     -22.767   0.551   0.025  0.00  0.00     0.245 HD
ENDBRANCH   3  34
TORSDOF 3
