REMARK  23 active torsions:
REMARK  status: ('A' for Active; 'I' for Inactive)
REMARK    1  A    between atoms: C17_2  and  C18_3 
REMARK       I    between atoms: C17_2  and  N12_4 
REMARK    2  A    between atoms: N12_4  and  C12_5 
REMARK    3  A    between atoms: C13_6  and  C14_8 
REMARK    4  A    between atoms: C14_8  and  O14_9 
REMARK    5  A    between atoms: C14_8  and  C15_10 
REMARK    6  A    between atoms: C15_10  and  O15_11 
REMARK    7  A    between atoms: C15_10  and  C16_12 
REMARK    8  A    between atoms: C16_12  and  O16_13 
REMARK    9  A    between atoms: C11_14  and  O11_15 
REMARK   10  A    between atoms: C9_17  and  C19_18 
REMARK   11  A    between atoms: C9_17  and  O9_21 
REMARK   12  A    between atoms: O9_21  and  C3_22 
REMARK   13  A    between atoms: C4_23  and  O4_28 
REMARK   14  A    between atoms: C5_24  and  C6_26 
REMARK   15  A    between atoms: C6_26  and  O6_27 
REMARK   16  A    between atoms: C2_29  and  O2_30 
REMARK   17  A    between atoms: C1_31  and  O1_32 
REMARK   18  A    between atoms: O1_32  and  C4A_33 
REMARK   19  A    between atoms: C5A_34  and  C6A_36 
REMARK   20  A    between atoms: C6A_36  and  O6A_37 
REMARK   21  A    between atoms: C3A_38  and  O3A_39 
REMARK   22  A    between atoms: C2A_40  and  O2A_41 
REMARK   23  A    between atoms: C1A_42  and  O1A_43 
ROOT
ATOM      1  C3  SLT d   1       8.438 -48.217 -27.704  0.00  0.00     0.099 C 
ATOM      2  C4  SLT d   1       7.532 -49.053 -26.863  0.00  0.00     0.090 C 
ATOM      3  C5  SLT d   1       7.771 -50.532 -27.067  0.00  0.00     0.089 C 
ATOM      4  O5  SLT d   1       7.651 -50.915 -28.483  0.00  0.00    -0.348 OA
ATOM      5  C2  SLT d   1       8.339 -48.588 -29.146  0.00  0.00     0.110 C 
ATOM      6  C1  SLT d   1       8.525 -50.107 -29.364  0.00  0.00     0.159 C 
ATOM      7  H18 SLT d   1       9.475 -48.371 -27.372  0.00  0.00     0.091 H 
ATOM      8  H19 SLT d   1       7.704 -48.809 -25.804  0.00  0.00     0.091 H 
ATOM      9  H20 SLT d   1       8.784 -50.779 -26.718  0.00  0.00     0.090 H 
ATOM     10  H25 SLT d   1       7.347 -48.294 -29.520  0.00  0.00     0.094 H 
ATOM     11  H27 SLT d   1       9.572 -50.361 -29.144  0.00  0.00     0.133 H 
ENDROOT
BRANCH   1  12
ATOM     12  O9  SLT d   1       8.074 -46.791 -27.519  0.00  0.00    -0.336 OA
BRANCH  12  13
ATOM     13  C9  SLT d   1       9.230 -45.979 -26.882  0.00  0.00     0.259 C 
ATOM     14  O13 SLT d   1      10.193 -45.700 -27.911  0.00  0.00    -0.336 OA
ATOM     15  C13 SLT d   1      10.036 -44.383 -28.555  0.00  0.00     0.091 C 
ATOM     16  C12 SLT d   1       8.626 -43.888 -28.531  0.00  0.00     0.064 C 
ATOM     17  H6  SLT d   1      10.668 -43.657 -28.023  0.00  0.00     0.090 H 
ATOM     18  C11 SLT d   1       8.135 -43.732 -27.154  0.00  0.00     0.063 C 
ATOM     19  H5  SLT d   1       7.981 -44.597 -29.070  0.00  0.00     0.080 H 
ATOM     20  C10 SLT d   1       8.646 -44.769 -26.226  0.00  0.00     0.024 C 
ATOM     21  H14 SLT d   1       8.470 -42.751 -26.785  0.00  0.00     0.086 H 
ATOM     22  H16 SLT d   1       7.811 -45.097 -25.589  0.00  0.00     0.045 H 
ATOM     23  H17 SLT d   1       9.427 -44.311 -25.601  0.00  0.00     0.045 H 
BRANCH  15  24
ATOM     24  C14 SLT d   1      10.500 -44.491 -29.984  0.00  0.00     0.089 C 
ATOM     25  H7  SLT d   1      10.365 -43.526 -30.494  0.00  0.00     0.091 H 
BRANCH  24  26
ATOM     26  O14 SLT d   1       9.762 -45.476 -30.635  0.00  0.00    -0.390 OA
ATOM     27  H8  SLT d   1       9.889 -46.308 -30.195  0.00  0.00     0.210 HD
ENDBRANCH  24  26
BRANCH  24  28
ATOM     28  C15 SLT d   1      11.966 -44.882 -29.997  0.00  0.00     0.083 C 
ATOM     29  H9  SLT d   1      12.125 -45.735 -29.320  0.00  0.00     0.090 H 
BRANCH  28  30
ATOM     30  O15 SLT d   1      12.736 -43.799 -29.569  0.00  0.00    -0.391 OA
ATOM     31  H10 SLT d   1      13.654 -44.042 -29.576  0.00  0.00     0.210 HD
ENDBRANCH  28  30
BRANCH  28  32
ATOM     32  C16 SLT d   1      12.372 -45.273 -31.404  0.00  0.00     0.043 C 
ATOM     33  H11 SLT d   1      11.623 -45.960 -31.825  0.00  0.00     0.078 H 
ATOM     34  H12 SLT d   1      13.352 -45.772 -31.378  0.00  0.00     0.078 H 
BRANCH  32  35
ATOM     35  O16 SLT d   1      12.456 -44.090 -32.227  0.00  0.00    -0.398 OA
ATOM     36  H13 SLT d   1      11.609 -43.660 -32.249  0.00  0.00     0.209 HD
ENDBRANCH  32  35
ENDBRANCH  28  32
ENDBRANCH  24  28
ENDBRANCH  15  24
BRANCH  16  37
ATOM     37  N12 SLT d   1       8.589 -42.564 -29.193  0.00  0.00    -0.352 N 
ATOM     38  C17 SLT d   1       7.651 -42.304 -30.283  0.00  0.00     0.214 C 
ATOM     39  O17 SLT d   1       6.887 -43.174 -30.652  0.00  0.00    -0.274 OA
ATOM     40  H4  SLT d   1       9.211 -41.842 -28.892  0.00  0.00     0.163 HD
BRANCH  38  41
ATOM     41  C18 SLT d   1       7.635 -40.942 -30.954  0.00  0.00    -0.003 C 
ATOM     42  H1  SLT d   1       8.391 -40.294 -30.486  0.00  0.00     0.040 H 
ATOM     43  H2  SLT d   1       6.640 -40.487 -30.838  0.00  0.00     0.040 H 
ATOM     44  H3  SLT d   1       7.862 -41.058 -32.024  0.00  0.00     0.040 H 
ENDBRANCH  38  41
ENDBRANCH  16  37
BRANCH  18  45
ATOM     45  O11 SLT d   1       6.678 -43.762 -27.149  0.00  0.00    -0.393 OA
ATOM     46  H15 SLT d   1       6.363 -43.661 -26.258  0.00  0.00     0.210 HD
ENDBRANCH  18  45
BRANCH  13  47
ATOM     47  C19 SLT d   1       9.734 -46.954 -25.883  0.00  0.00     0.239 C 
ATOM     48  O20 SLT d   1      10.876 -47.489 -26.039  0.00  0.00    -0.644 OA
ATOM     49  O19 SLT d   1       9.096 -47.153 -24.831  0.00  0.00    -0.644 OA
ENDBRANCH  13  47
ENDBRANCH  12  13
ENDBRANCH   1  12
BRANCH   2  50
ATOM     50  O4  SLT d   1       6.176 -48.750 -27.208  0.00  0.00    -0.390 OA
ATOM     51  H24 SLT d   1       6.018 -47.822 -27.082  0.00  0.00     0.210 HD
ENDBRANCH   2  50
BRANCH   5  52
ATOM     52  O2  SLT d   1       9.346 -47.891 -29.875  0.00  0.00    -0.388 OA
ATOM     53  H26 SLT d   1       9.217 -46.955 -29.775  0.00  0.00     0.210 HD
ENDBRANCH   5  52
BRANCH   3  54
ATOM     54  C6  SLT d   1       6.765 -51.303 -26.263  0.00  0.00     0.043 C 
ATOM     55  H21 SLT d   1       5.910 -51.567 -26.902  0.00  0.00     0.078 H 
ATOM     56  H22 SLT d   1       6.417 -50.685 -25.422  0.00  0.00     0.078 H 
BRANCH  54  57
ATOM     57  O6  SLT d   1       7.373 -52.505 -25.756  0.00  0.00    -0.398 OA
ATOM     58  H23 SLT d   1       6.735 -52.991 -25.248  0.00  0.00     0.209 HD
ENDBRANCH  54  57
ENDBRANCH   3  54
BRANCH   6  59
ATOM     59  O1  SLT d   1       8.248 -50.432 -30.701  0.00  0.00    -0.348 OA
BRANCH  59  60
ATOM     60  C4A SLT d   1       8.844 -51.758 -31.020  0.00  0.00     0.096 C 
ATOM     61  C5A SLT d   1       9.620 -51.666 -32.315  0.00  0.00     0.089 C 
ATOM     62  O5A SLT d   1      10.197 -52.943 -32.681  0.00  0.00    -0.349 OA
ATOM     63  H29 SLT d   1       8.933 -51.349 -33.114  0.00  0.00     0.090 H 
ATOM     64  C1A SLT d   1       9.191 -53.998 -32.761  0.00  0.00     0.156 C 
ATOM     65  C2A SLT d   1       8.311 -54.070 -31.511  0.00  0.00     0.110 C 
ATOM     66  H37 SLT d   1       9.707 -54.962 -32.878  0.00  0.00     0.133 H 
ATOM     67  C3A SLT d   1       7.786 -52.760 -31.116  0.00  0.00     0.092 C 
ATOM     68  H35 SLT d   1       8.915 -54.468 -30.682  0.00  0.00     0.094 H 
ATOM     69  H33 SLT d   1       7.053 -52.430 -31.867  0.00  0.00     0.091 H 
ATOM     70  H28 SLT d   1       9.533 -52.046 -30.213  0.00  0.00     0.091 H 
BRANCH  61  71
ATOM     71  C6A SLT d   1      10.735 -50.624 -32.173  0.00  0.00     0.043 C 
ATOM     72  H30 SLT d   1      10.299 -49.660 -31.873  0.00  0.00     0.078 H 
ATOM     73  H31 SLT d   1      11.253 -50.509 -33.136  0.00  0.00     0.078 H 
BRANCH  71  74
ATOM     74  O6A SLT d   1      11.672 -51.055 -31.175  0.00  0.00    -0.398 OA
ATOM     75  H32 SLT d   1      12.049 -51.888 -31.434  0.00  0.00     0.209 HD
ENDBRANCH  71  74
ENDBRANCH  61  71
BRANCH  64  76
ATOM     76  O1A SLT d   1       8.381 -53.771 -33.884  0.00  0.00    -0.369 OA
ATOM     77  H38 SLT d   1       7.724 -54.454 -33.942  0.00  0.00     0.212 HD
ENDBRANCH  64  76
BRANCH  65  78
ATOM     78  O2A SLT d   1       7.204 -54.967 -31.766  0.00  0.00    -0.388 OA
ATOM     79  H36 SLT d   1       6.666 -54.614 -32.465  0.00  0.00     0.210 HD
ENDBRANCH  65  78
BRANCH  67  80
ATOM     80  O3A SLT d   1       7.107 -52.892 -29.778  0.00  0.00    -0.390 OA
ATOM     81  H34 SLT d   1       6.733 -52.055 -29.530  0.00  0.00     0.210 HD
ENDBRANCH  67  80
ENDBRANCH  59  60
ENDBRANCH   6  59
TORSDOF 23
