REMARK  4 active torsions:
REMARK  status: ('A' for Active; 'I' for Inactive)
REMARK    1  A    between atoms: C7_14  and  C4_2 
REMARK    2  A    between atoms: C6_4  and  S1_9 
REMARK    3  A    between atoms: S1_9  and  N2_7 
REMARK    4  A    between atoms: N2_7  and  C14_11 
ROOT
ATOM      1  C4  6F3 d   1      10.900  -7.698  -4.642  0.00  0.00    -0.001 C 
ATOM      2  C5  6F3 d   1      11.162  -8.984  -4.959  0.00  0.00    -0.048 C 
ATOM      3  C6  6F3 d   1      10.407  -9.684  -5.958  0.00  0.00     0.080 C 
ATOM      4  C2  6F3 d   1       9.237  -7.677  -6.306  0.00  0.00    -0.081 C 
ATOM      5  C1  6F3 d   1       9.441  -8.990  -6.614  0.00  0.00    -0.060 C 
ATOM      6  C3  6F3 d   1       9.975  -7.042  -5.391  0.00  0.00    -0.070 C 
ATOM      7  H2  6F3 d   1      11.964  -9.501  -4.445  0.00  0.00     0.087 H 
ATOM      8  H3  6F3 d   1       8.453  -7.132  -6.819  0.00  0.00     0.083 H 
ATOM      9  H8  6F3 d   1       8.839  -9.474  -7.374  0.00  0.00     0.085 H 
ATOM     10  H9  6F3 d   1       9.832  -5.978  -5.242  0.00  0.00     0.084 H 
ENDROOT
BRANCH   1  11
ATOM     11  C7  6F3 d   1      11.653  -6.973  -3.693  0.00  0.00     0.087 C 
ATOM     12  C8  6F3 d   1      12.114  -5.635  -3.588  0.00  0.00    -0.032 C 
ATOM     13  C9  6F3 d   1      12.843  -5.464  -2.369  0.00  0.00     0.067 C 
ATOM     14  H1  6F3 d   1      11.939  -4.854  -4.326  0.00  0.00     0.089 H 
ATOM     15  C10 6F3 d   1      12.840  -6.738  -1.815  0.00  0.00     0.074 C 
ATOM     16  C11 6F3 d   1      13.576  -4.401  -1.642  0.00  0.00     0.279 C 
ATOM     17  O1  6F3 d   1      12.014  -7.548  -2.527  0.00  0.00    -0.313 OA
ATOM     18  C13 6F3 d   1      13.250  -6.988  -0.525  0.00  0.00     0.011 C 
ATOM     19  C12 6F3 d   1      13.992  -6.042   0.104  0.00  0.00    -0.008 C 
ATOM     20  H10 6F3 d   1      13.847  -7.912  -0.545  0.00  0.00     0.051 H 
ATOM     21  H11 6F3 d   1      12.345  -7.149   0.080  0.00  0.00     0.051 H 
ATOM     22  N1  6F3 d   1      14.168  -4.822  -0.476  0.00  0.00    -0.226 NA
ATOM     23  H12 6F3 d   1      14.446  -6.258   1.070  0.00  0.00     0.108 H 
ATOM     24  O2  6F3 d   1      13.703  -3.241  -2.138  0.00  0.00    -0.265 OA
ENDBRANCH   1  11
BRANCH   3  25
ATOM     25  S1  6F3 d   1      10.769 -11.218  -6.392  0.00  0.00     0.258 S 
ATOM     26  O4  6F3 d   1      11.552 -11.294  -7.671  0.00  0.00    -0.201 OA
ATOM     27  O3  6F3 d   1      11.647 -11.769  -5.357  0.00  0.00    -0.201 OA
BRANCH  25  28
ATOM     28  N2  6F3 d   1       9.534 -12.084  -6.502  0.00  0.00    -0.320 N 
ATOM     29  H4  6F3 d   1       9.316 -12.683  -7.273  0.00  0.00     0.171 HD
BRANCH  28  30
ATOM     30  C14 6F3 d   1       8.717 -11.913  -5.322  0.00  0.00    -0.011 C 
ATOM     31  H5  6F3 d   1       7.819 -12.543  -5.403  0.00  0.00     0.057 H 
ATOM     32  H6  6F3 d   1       8.418 -10.858  -5.233  0.00  0.00     0.057 H 
ATOM     33  H7  6F3 d   1       9.292 -12.207  -4.432  0.00  0.00     0.057 H 
ENDBRANCH  28  30
ENDBRANCH  25  28
ENDBRANCH   3  25
TORSDOF 4
