REMARK  4 active torsions:
REMARK  status: ('A' for Active; 'I' for Inactive)
REMARK    1  A    between atoms: C13_4  and  O4_5 
REMARK    2  A    between atoms: C5_7  and  C13_4 
REMARK    3  A    between atoms: O4_5  and  C14_6 
REMARK    4  A    between atoms: C6_13  and  C3_10 
ROOT
ATOM      1  C5  6FX d   1      17.696 -28.296   0.476  0.00  0.00     0.058 A 
ATOM      2  C1  6FX d   1      17.915 -29.630   0.169  0.00  0.00     0.018 A 
ATOM      3  C4  6FX d   1      17.011 -27.893   1.563  0.00  0.00    -0.052 A 
ATOM      4  C3  6FX d   1      16.571 -28.935   2.369  0.00  0.00     0.016 A 
ATOM      5  C2  6FX d   1      16.782 -30.427   2.113  0.00  0.00     0.014 A 
ATOM      6  N1  6FX d   1      17.520 -30.691   0.888  0.00  0.00    -0.271 NA
ATOM      7  H5  6FX d   1      18.461 -29.836  -0.745  0.00  0.00     0.116 H 
ATOM      8  H6  6FX d   1      16.820 -26.850   1.788  0.00  0.00     0.086 H 
ATOM      9  H7  6FX d   1      16.420 -31.206   2.774  0.00  0.00     0.116 H 
ENDROOT
BRANCH   4  10
ATOM     10  C6  6FX d   1      15.850 -28.526   3.593  0.00  0.00     0.088 A 
ATOM     11  O1  6FX d   1      15.789 -27.210   4.031  0.00  0.00    -0.309 OA
ATOM     12  C9  6FX d   1      15.076 -27.101   5.139  0.00  0.00     0.092 A 
ATOM     13  C12 6FX d   1      14.830 -25.907   5.829  0.00  0.00    -0.034 A 
ATOM     14  C8  6FX d   1      14.609 -28.419   5.479  0.00  0.00     0.054 A 
ATOM     15  C11 6FX d   1      14.040 -26.281   6.991  0.00  0.00    -0.018 A 
ATOM     16  H8  6FX d   1      15.161 -24.907   5.553  0.00  0.00     0.089 H 
ATOM     17  N2  6FX d   1      13.559 -27.527   7.328  0.00  0.00    -0.344 N 
ATOM     18  H1  6FX d   1      13.798 -25.475   7.682  0.00  0.00     0.111 H 
ATOM     19  C10 6FX d   1      13.803 -28.669   6.628  0.00  0.00     0.192 A 
ATOM     20  H9  6FX d   1      12.989 -27.598   8.147  0.00  0.00     0.167 HD
ATOM     21  O2  6FX d   1      13.353 -29.860   6.992  0.00  0.00    -0.171 OA
ATOM     22  C7  6FX d   1      15.127 -29.317   4.510  0.00  0.00    -0.033 A 
ATOM     23  H10 6FX d   1      14.993 -30.397   4.480  0.00  0.00     0.089 H 
ENDBRANCH   4  10
BRANCH   1  24
ATOM     24  C13 6FX d   1      18.189 -27.321  -0.486  0.00  0.00     0.294 C 
ATOM     25  O3  6FX d   1      18.661 -27.711  -1.540  0.00  0.00    -0.259 OA
BRANCH  24  26
ATOM     26  O4  6FX d   1      18.088 -25.919  -0.240  0.00  0.00    -0.322 OA
BRANCH  26  27
ATOM     27  C14 6FX d   1      18.808 -25.025  -1.076  0.00  0.00     0.013 C 
ATOM     28  H2  6FX d   1      18.622 -23.990  -0.753  0.00  0.00     0.067 H 
ATOM     29  H3  6FX d   1      18.476 -25.149  -2.117  0.00  0.00     0.067 H 
ATOM     30  H4  6FX d   1      19.884 -25.243  -1.005  0.00  0.00     0.067 H 
ENDBRANCH  26  27
ENDBRANCH  24  26
ENDBRANCH   1  24
TORSDOF 4
