REMARK  10 active torsions:
REMARK  status: ('A' for Active; 'I' for Inactive)
REMARK    1  A    between atoms: C6_2  and  C5_3 
REMARK    2  A    between atoms: O2_14  and  C6_2 
REMARK    3  A    between atoms: C5_3  and  C4_13 
REMARK    4  A    between atoms: C1_4  and  C_9 
REMARK    5  A    between atoms: C1_4  and  C2_11 
REMARK    6  A    between atoms: C1_4  and  C3_12 
REMARK    7  A    between atoms: C4_13  and  C1_4 
REMARK    8  A    between atoms: C9_5  and  C14_18 
REMARK    9  A    between atoms: O2_14  and  C7_15 
REMARK   10  A    between atoms: C12_16  and  C13_17 
ROOT
ATOM      1  C6  4TX d   1      -0.908   0.804   6.070  0.00  0.00     0.026 C 
ATOM      2  H2  4TX d   1      -1.502  -0.079   6.348  0.00  0.00     0.075 H 
ATOM      3  H3  4TX d   1      -1.563   1.554   5.602  0.00  0.00     0.075 H 
ENDROOT
BRANCH   1   4
ATOM      4  C5  4TX d   1       0.209   0.418   5.134  0.00  0.00    -0.043 C 
ATOM      5  H4  4TX d   1       0.615  -0.562   5.425  0.00  0.00     0.036 H 
ATOM      6  H5  4TX d   1       1.008   1.173   5.178  0.00  0.00     0.036 H 
BRANCH   4   7
ATOM      7  C4  4TX d   1      -0.347   0.344   3.726  0.00  0.00    -0.047 C 
ATOM      8  H14 4TX d   1      -0.883   1.280   3.510  0.00  0.00     0.035 H 
ATOM      9  H15 4TX d   1      -1.048  -0.502   3.669  0.00  0.00     0.035 H 
BRANCH   7  10
ATOM     10  C1  4TX d   1       0.732   0.151   2.676  0.00  0.00     0.041 C 
BRANCH  10  11
ATOM     11  C   4TX d   1       0.029  -0.037   1.354  0.00  0.00     0.181 C 
ATOM     12  O   4TX d   1      -1.182   0.079   1.284  0.00  0.00    -0.647 OA
ATOM     13  O1  4TX d   1       0.699  -0.319   0.240  0.00  0.00    -0.647 OA
ENDBRANCH  10  11
BRANCH  10  14
ATOM     14  C2  4TX d   1       1.557  -1.079   3.022  0.00  0.00    -0.060 C 
ATOM     15  H8  4TX d   1       2.061  -0.923   3.987  0.00  0.00     0.029 H 
ATOM     16  H9  4TX d   1       2.310  -1.248   2.238  0.00  0.00     0.029 H 
ATOM     17  H10 4TX d   1       0.897  -1.956   3.091  0.00  0.00     0.029 H 
ENDBRANCH  10  14
BRANCH  10  18
ATOM     18  C3  4TX d   1       1.637   1.366   2.569  0.00  0.00    -0.060 C 
ATOM     19  H11 4TX d   1       1.034   2.251   2.319  0.00  0.00     0.029 H 
ATOM     20  H12 4TX d   1       2.385   1.197   1.781  0.00  0.00     0.029 H 
ATOM     21  H13 4TX d   1       2.147   1.529   3.530  0.00  0.00     0.029 H 
ENDBRANCH  10  18
ENDBRANCH   7  10
ENDBRANCH   4   7
ENDBRANCH   1   4
BRANCH   1  22
ATOM     22  O2  4TX d   1      -0.262   1.346   7.204  0.00  0.00    -0.351 OA
BRANCH  22  23
ATOM     23  C7  4TX d   1      -0.078   0.672   8.370  0.00  0.00     0.075 A 
ATOM     24  C8  4TX d   1      -0.217  -0.709   8.521  0.00  0.00    -0.045 A 
ATOM     25  C9  4TX d   1       0.004  -1.267   9.778  0.00  0.00    -0.059 A 
ATOM     26  H1  4TX d   1      -0.491  -1.333   7.678  0.00  0.00     0.088 H 
ATOM     27  C10 4TX d   1       0.351  -0.461  10.848  0.00  0.00    -0.077 A 
ATOM     28  C11 4TX d   1       0.493   0.906  10.681  0.00  0.00    -0.074 A 
ATOM     29  H6  4TX d   1       0.513  -0.903  11.824  0.00  0.00     0.084 H 
ATOM     30  C12 4TX d   1       0.267   1.467   9.430  0.00  0.00    -0.029 A 
ATOM     31  H7  4TX d   1       0.778   1.533  11.518  0.00  0.00     0.084 H 
BRANCH  25  32
ATOM     32  C14 4TX d   1      -0.145  -2.745  10.006  0.00  0.00    -0.051 C 
ATOM     33  H19 4TX d   1      -0.421  -3.236   9.061  0.00  0.00     0.033 H 
ATOM     34  H20 4TX d   1      -0.930  -2.923  10.755  0.00  0.00     0.033 H 
ATOM     35  H21 4TX d   1       0.808  -3.158  10.368  0.00  0.00     0.033 H 
ENDBRANCH  25  32
BRANCH  30  36
ATOM     36  C13 4TX d   1       0.403   2.940   9.149  0.00  0.00    -0.049 C 
ATOM     37  H16 4TX d   1       0.681   3.466  10.074  0.00  0.00     0.033 H 
ATOM     38  H17 4TX d   1      -0.555   3.333   8.778  0.00  0.00     0.033 H 
ATOM     39  H18 4TX d   1       1.182   3.098   8.389  0.00  0.00     0.033 H 
ENDBRANCH  30  36
ENDBRANCH  22  23
ENDBRANCH   1  22
TORSDOF 10
