REMARK  19 active torsions:
REMARK  status: ('A' for Active; 'I' for Inactive)
REMARK    1  A    between atoms: C2_1  and  O39_40 
REMARK    2  A    between atoms: S8_7  and  C5_4 
REMARK    3  A    between atoms: N11_10  and  S8_7 
REMARK    4  A    between atoms: N11_10  and  C12_11 
REMARK    5  A    between atoms: C16_15  and  N11_10 
REMARK    6  A    between atoms: C12_11  and  C13_12 
REMARK    7  A    between atoms: C13_12  and  C14_13 
REMARK    8  A    between atoms: C13_12  and  C15_14 
REMARK    9  A    between atoms: C17_16  and  C16_15 
REMARK   10  A    between atoms: C17_16  and  O18_17 
REMARK   11  A    between atoms: C19_18  and  C17_16 
REMARK   12  A    between atoms: C19_18  and  N20_19 
REMARK   13  A    between atoms: C32_33  and  C19_18 
REMARK       I    between atoms: N20_19  and  C21_20 
REMARK   14  A    between atoms: C21_20  and  O23_22 
REMARK   15  A    between atoms: O23_22  and  C24_23 
REMARK   16  A    between atoms: C30_29  and  N41_31 
REMARK   17  A    between atoms: N41_31  and  C42_32 
REMARK   18  A    between atoms: C38_39  and  C32_33 
REMARK   19  A    between atoms: O39_40  and  C40_41 
ROOT
ATOM      1  C19 4UY d   1      15.042  23.106  16.712  0.00  0.00     0.044 C 
ATOM      2  H18 4UY d   1      15.968  22.610  16.384  0.00  0.00     0.077 H 
ENDROOT
BRANCH   1   3
ATOM      3  C17 4UY d   1      15.417  24.208  17.699  0.00  0.00     0.071 C 
ATOM      4  H16 4UY d   1      15.740  23.723  18.632  0.00  0.00     0.088 H 
BRANCH   3   5
ATOM      5  C16 4UY d   1      16.576  25.084  17.204  0.00  0.00     0.031 C 
ATOM      6  H14 4UY d   1      16.361  25.430  16.182  0.00  0.00     0.069 H 
ATOM      7  H15 4UY d   1      16.687  25.953  17.869  0.00  0.00     0.069 H 
BRANCH   5   8
ATOM      8  N11 4UY d   1      17.810  24.316  17.204  0.00  0.00    -0.304 N 
BRANCH   8   9
ATOM      9  S8  4UY d   1      18.505  24.140  15.714  0.00  0.00     0.260 S 
ATOM     10  O9  4UY d   1      17.403  24.031  14.712  0.00  0.00    -0.200 OA
ATOM     11  O10 4UY d   1      19.338  22.903  15.805  0.00  0.00    -0.200 OA
BRANCH   9  12
ATOM     12  C5  4UY d   1      19.503  25.527  15.336  0.00  0.00     0.079 A 
ATOM     13  C4  4UY d   1      18.956  26.641  14.686  0.00  0.00    -0.058 A 
ATOM     14  C3  4UY d   1      19.743  27.748  14.381  0.00  0.00    -0.049 A 
ATOM     15  H2  4UY d   1      17.906  26.641  14.417  0.00  0.00     0.086 H 
ATOM     16  C2  4UY d   1      21.098  27.782  14.714  0.00  0.00     0.068 A 
ATOM     17  H1  4UY d   1      19.296  28.597  13.877  0.00  0.00     0.087 H 
ATOM     18  C7  4UY d   1      21.643  26.676  15.358  0.00  0.00    -0.049 A 
ATOM     19  C6  4UY d   1      20.860  25.565  15.666  0.00  0.00    -0.058 A 
ATOM     20  H4  4UY d   1      22.694  26.678  15.625  0.00  0.00     0.087 H 
ATOM     21  H3  4UY d   1      21.311  24.717  16.169  0.00  0.00     0.086 H 
BRANCH  16  22
ATOM     22  O39 4UY d   1      21.796  28.899  14.383  0.00  0.00    -0.356 OA
BRANCH  22  23
ATOM     23  C40 4UY d   1      23.189  28.897  14.647  0.00  0.00     0.010 C 
ATOM     24  H40 4UY d   1      23.623  29.857  14.331  0.00  0.00     0.066 H 
ATOM     25  H41 4UY d   1      23.667  28.078  14.090  0.00  0.00     0.066 H 
ATOM     26  H42 4UY d   1      23.358  28.755  15.725  0.00  0.00     0.066 H 
ENDBRANCH  22  23
ENDBRANCH  16  22
ENDBRANCH   9  12
ENDBRANCH   8   9
BRANCH   8  27
ATOM     27  C12 4UY d   1      18.733  24.636  18.277  0.00  0.00     0.008 C 
ATOM     28  H5  4UY d   1      18.732  25.727  18.415  0.00  0.00     0.066 H 
ATOM     29  H6  4UY d   1      19.738  24.306  17.974  0.00  0.00     0.066 H 
BRANCH  27  30
ATOM     30  C13 4UY d   1      18.402  23.983  19.627  0.00  0.00    -0.045 C 
ATOM     31  H7  4UY d   1      17.392  24.302  19.926  0.00  0.00     0.041 H 
BRANCH  30  32
ATOM     32  C14 4UY d   1      18.428  22.448  19.545  0.00  0.00    -0.072 C 
ATOM     33  H8  4UY d   1      18.186  22.024  20.531  0.00  0.00     0.028 H 
ATOM     34  H9  4UY d   1      19.430  22.114  19.238  0.00  0.00     0.028 H 
ATOM     35  H10 4UY d   1      17.686  22.108  18.808  0.00  0.00     0.028 H 
ENDBRANCH  30  32
BRANCH  30  36
ATOM     36  C15 4UY d   1      19.407  24.434  20.702  0.00  0.00    -0.072 C 
ATOM     37  H11 4UY d   1      19.400  25.532  20.773  0.00  0.00     0.028 H 
ATOM     38  H12 4UY d   1      20.416  24.091  20.428  0.00  0.00     0.028 H 
ATOM     39  H13 4UY d   1      19.124  24.002  21.673  0.00  0.00     0.028 H 
ENDBRANCH  30  36
ENDBRANCH  27  30
ENDBRANCH   8  27
ENDBRANCH   5   8
ENDBRANCH   3   5
BRANCH   3  40
ATOM     40  O18 4UY d   1      14.272  25.026  17.993  0.00  0.00    -0.392 OA
ATOM     41  H17 4UY d   1      14.003  25.486  17.207  0.00  0.00     0.210 HD
ENDBRANCH   3  40
ENDBRANCH   1   3
BRANCH   1  42
ATOM     42  N20 4UY d   1      14.166  22.124  17.333  0.00  0.00    -0.329 N 
ATOM     43  C21 4UY d   1      14.408  20.854  17.656  0.00  0.00     0.361 C 
ATOM     44  O22 4UY d   1      15.520  20.352  17.475  0.00  0.00    -0.238 OA
ATOM     45  H19 4UY d   1      13.246  22.451  17.549  0.00  0.00     0.165 HD
BRANCH  43  46
ATOM     46  O23 4UY d   1      13.328  20.228  18.194  0.00  0.00    -0.296 OA
BRANCH  46  47
ATOM     47  C24 4UY d   1      13.443  18.833  18.509  0.00  0.00     0.080 C 
ATOM     48  C25 4UY d   1      12.950  18.665  19.966  0.00  0.00     0.048 C 
ATOM     49  O26 4UY d   1      11.530  18.735  19.847  0.00  0.00    -0.358 OA
ATOM     50  H21 4UY d   1      13.331  19.474  20.606  0.00  0.00     0.078 H 
ATOM     51  H22 4UY d   1      13.263  17.694  20.378  0.00  0.00     0.078 H 
ATOM     52  C27 4UY d   1      11.119  18.162  18.607  0.00  0.00     0.139 C 
ATOM     53  O28 4UY d   1      10.271  19.119  17.935  0.00  0.00    -0.359 OA
ATOM     54  C31 4UY d   1      12.380  18.000  17.785  0.00  0.00     0.051 C 
ATOM     55  H23 4UY d   1      10.602  17.202  18.753  0.00  0.00     0.129 H 
ATOM     56  C29 4UY d   1      10.924  19.580  16.764  0.00  0.00     0.050 C 
ATOM     57  C30 4UY d   1      12.009  18.554  16.390  0.00  0.00     0.132 C 
ATOM     58  H24 4UY d   1      11.386  20.559  16.955  0.00  0.00     0.077 H 
ATOM     59  H25 4UY d   1      10.198  19.672  15.943  0.00  0.00     0.077 H 
ATOM     60  H26 4UY d   1      12.862  19.003  15.859  0.00  0.00     0.088 H 
ATOM     61  H27 4UY d   1      12.698  16.950  17.712  0.00  0.00     0.054 H 
ATOM     62  H20 4UY d   1      14.465  18.464  18.338  0.00  0.00     0.088 H 
BRANCH  57  63
ATOM     63  N41 4UY d   1      11.398  17.465  15.611  0.00  0.00    -0.072 N 
ATOM     64  H28 4UY d   1      10.449  17.338  15.927  0.00  0.00     0.277 HD
ATOM     65  H29 4UY d   1      11.922  16.620  15.775  0.00  0.00     0.277 HD
BRANCH  63  66
ATOM     66  C42 4UY d   1      11.378  17.730  14.161  0.00  0.00     0.065 C 
ATOM     67  H30 4UY d   1      10.911  16.881  13.640  0.00  0.00     0.067 H 
ATOM     68  H31 4UY d   1      12.408  17.861  13.798  0.00  0.00     0.067 H 
ATOM     69  H32 4UY d   1      10.800  18.645  13.963  0.00  0.00     0.067 H 
ENDBRANCH  63  66
ENDBRANCH  57  63
ENDBRANCH  46  47
ENDBRANCH  43  46
ENDBRANCH   1  42
BRANCH   1  70
ATOM     70  C32 4UY d   1      14.302  23.646  15.479  0.00  0.00    -0.020 C 
ATOM     71  H33 4UY d   1      14.933  24.385  14.963  0.00  0.00     0.043 H 
ATOM     72  H34 4UY d   1      13.361  24.122  15.791  0.00  0.00     0.043 H 
BRANCH  70  73
ATOM     73  C38 4UY d   1      13.999  22.472  14.530  0.00  0.00    -0.056 A 
ATOM     74  C33 4UY d   1      12.699  22.036  14.326  0.00  0.00    -0.077 A 
ATOM     75  C34 4UY d   1      12.416  20.936  13.506  0.00  0.00    -0.082 A 
ATOM     76  H35 4UY d   1      11.883  22.558  14.812  0.00  0.00     0.084 H 
ATOM     77  C35 4UY d   1      13.453  20.288  12.847  0.00  0.00    -0.083 A 
ATOM     78  H36 4UY d   1      11.395  20.593  13.387  0.00  0.00     0.083 H 
ATOM     79  C36 4UY d   1      14.768  20.709  13.059  0.00  0.00    -0.082 A 
ATOM     80  H37 4UY d   1      13.244  19.464  12.175  0.00  0.00     0.083 H 
ATOM     81  C37 4UY d   1      15.040  21.804  13.892  0.00  0.00    -0.077 A 
ATOM     82  H38 4UY d   1      15.585  20.185  12.576  0.00  0.00     0.083 H 
ATOM     83  H39 4UY d   1      16.063  22.131  14.039  0.00  0.00     0.084 H 
ENDBRANCH  70  73
ENDBRANCH   1  70
TORSDOF 19
