REMARK  18 active torsions:
REMARK  status: ('A' for Active; 'I' for Inactive)
REMARK    1  A    between atoms: C2_2  and  N1_1 
REMARK    2  A    between atoms: C16_11  and  N11_7 
REMARK    3  A    between atoms: N11_7  and  S8_22 
REMARK    4  A    between atoms: N11_7  and  C12_24 
REMARK    5  A    between atoms: C13_8  and  C14_9 
REMARK    6  A    between atoms: C13_8  and  C15_10 
REMARK    7  A    between atoms: C12_24  and  C13_8 
REMARK    8  A    between atoms: C17_12  and  C16_11 
REMARK    9  A    between atoms: C17_12  and  O18_13 
REMARK   10  A    between atoms: C19_25  and  C17_12 
REMARK       I    between atoms: N20_26  and  C21_14 
REMARK   11  A    between atoms: C21_14  and  O23_28 
REMARK   12  A    between atoms: C30_17  and  N51_39 
REMARK   13  A    between atoms: C32_19  and  C19_25 
REMARK   14  A    between atoms: C38_38  and  C32_19 
REMARK   15  A    between atoms: S8_22  and  C5_21 
REMARK   16  A    between atoms: C19_25  and  N20_26 
REMARK   17  A    between atoms: O23_28  and  C24_29 
REMARK   18  A    between atoms: N51_39  and  C52_40 
ROOT
ATOM      1  C19 4UX d   1      17.337  23.805  18.653  0.00  0.00     0.044 C 
ATOM      2  H26 4UX d   1      17.667  22.864  18.189  0.00  0.00     0.077 H 
ENDROOT
BRANCH   1   3
ATOM      3  C17 4UX d   1      15.848  23.978  18.353  0.00  0.00     0.071 C 
ATOM      4  H15 4UX d   1      15.751  24.141  17.269  0.00  0.00     0.088 H 
BRANCH   3   5
ATOM      5  C16 4UX d   1      14.992  22.776  18.701  0.00  0.00     0.031 C 
ATOM      6  H13 4UX d   1      15.264  22.425  19.707  0.00  0.00     0.069 H 
ATOM      7  H14 4UX d   1      13.934  23.077  18.691  0.00  0.00     0.069 H 
BRANCH   5   8
ATOM      8  N11 4UX d   1      15.180  21.688  17.757  0.00  0.00    -0.304 N 
BRANCH   8   9
ATOM      9  S8  4UX d   1      15.808  20.326  18.408  0.00  0.00     0.260 S 
ATOM     10  O10 4UX d   1      16.322  19.554  17.281  0.00  0.00    -0.200 OA
ATOM     11  O9  4UX d   1      16.838  20.777  19.415  0.00  0.00    -0.200 OA
BRANCH   9  12
ATOM     12  C5  4UX d   1      14.592  19.458  19.303  0.00  0.00     0.079 C 
ATOM     13  C4  4UX d   1      14.477  19.646  20.683  0.00  0.00    -0.058 C 
ATOM     14  C3  4UX d   1      13.484  18.928  21.362  0.00  0.00    -0.056 C 
ATOM     15  H3  4UX d   1      15.135  20.326  21.211  0.00  0.00     0.086 H 
ATOM     16  C2  4UX d   1      12.633  18.106  20.630  0.00  0.00     0.025 C 
ATOM     17  H23 4UX d   1      13.381  19.011  22.438  0.00  0.00     0.086 H 
ATOM     18  C7  4UX d   1      12.837  17.813  19.273  0.00  0.00    -0.056 C 
ATOM     19  C6  4UX d   1      13.823  18.537  18.626  0.00  0.00    -0.058 C 
ATOM     20  H5  4UX d   1      12.253  17.059  18.758  0.00  0.00     0.086 H 
ATOM     21  H4  4UX d   1      13.993  18.377  17.567  0.00  0.00     0.086 H 
BRANCH  16  22
ATOM     22  N1  4UX d   1      11.657  17.471  21.251  0.00  0.00    -0.399 N 
ATOM     23  H1  4UX d   1      11.021  16.860  20.720  0.00  0.00     0.156 HD
ATOM     24  H2  4UX d   1      11.532  17.587  22.267  0.00  0.00     0.156 HD
ENDBRANCH  16  22
ENDBRANCH   9  12
ENDBRANCH   8   9
BRANCH   8  25
ATOM     25  C12 4UX d   1      14.196  21.425  16.719  0.00  0.00     0.008 C 
ATOM     26  H24 4UX d   1      13.198  21.425  17.181  0.00  0.00     0.066 H 
ATOM     27  H25 4UX d   1      14.402  20.433  16.290  0.00  0.00     0.066 H 
BRANCH  25  28
ATOM     28  C13 4UX d   1      14.201  22.458  15.575  0.00  0.00    -0.045 C 
ATOM     29  H6  4UX d   1      14.138  23.467  16.009  0.00  0.00     0.041 H 
BRANCH  28  30
ATOM     30  C14 4UX d   1      15.489  22.340  14.732  0.00  0.00    -0.072 C 
ATOM     31  H7  4UX d   1      15.468  23.086  13.924  0.00  0.00     0.028 H 
ATOM     32  H8  4UX d   1      15.552  21.331  14.298  0.00  0.00     0.028 H 
ATOM     33  H9  4UX d   1      16.365  22.518  15.373  0.00  0.00     0.028 H 
ENDBRANCH  28  30
BRANCH  28  34
ATOM     34  C15 4UX d   1      13.007  22.233  14.623  0.00  0.00    -0.072 C 
ATOM     35  H10 4UX d   1      12.067  22.310  15.189  0.00  0.00     0.028 H 
ATOM     36  H11 4UX d   1      13.082  21.233  14.171  0.00  0.00     0.028 H 
ATOM     37  H12 4UX d   1      13.021  22.996  13.831  0.00  0.00     0.028 H 
ENDBRANCH  28  34
ENDBRANCH  25  28
ENDBRANCH   8  25
ENDBRANCH   5   8
ENDBRANCH   3   5
BRANCH   3  38
ATOM     38  O18 4UX d   1      15.359  25.145  19.023  0.00  0.00    -0.392 OA
ATOM     39  H16 4UX d   1      15.387  25.005  19.962  0.00  0.00     0.210 HD
ENDBRANCH   3  38
ENDBRANCH   1   3
BRANCH   1  40
ATOM     40  C32 4UX d   1      17.653  23.715  20.163  0.00  0.00    -0.020 C 
ATOM     41  H21 4UX d   1      17.106  22.867  20.600  0.00  0.00     0.043 H 
ATOM     42  H22 4UX d   1      17.340  24.647  20.657  0.00  0.00     0.043 H 
BRANCH  40  43
ATOM     43  C38 4UX d   1      19.167  23.509  20.372  0.00  0.00    -0.056 A 
ATOM     44  C33 4UX d   1      19.938  24.548  20.873  0.00  0.00    -0.077 A 
ATOM     45  C34 4UX d   1      21.316  24.345  21.046  0.00  0.00    -0.082 A 
ATOM     46  H32 4UX d   1      19.484  25.499  21.126  0.00  0.00     0.084 H 
ATOM     47  C35 4UX d   1      21.890  23.123  20.713  0.00  0.00    -0.083 A 
ATOM     48  H33 4UX d   1      21.935  25.143  21.440  0.00  0.00     0.083 H 
ATOM     49  C36 4UX d   1      21.123  22.086  20.176  0.00  0.00    -0.082 A 
ATOM     50  H34 4UX d   1      22.951  22.972  20.873  0.00  0.00     0.083 H 
ATOM     51  C37 4UX d   1      19.748  22.287  20.016  0.00  0.00    -0.077 A 
ATOM     52  H35 4UX d   1      21.583  21.147  19.890  0.00  0.00     0.083 H 
ATOM     53  H36 4UX d   1      19.130  21.492  19.614  0.00  0.00     0.084 H 
ENDBRANCH  40  43
ENDBRANCH   1  40
BRANCH   1  54
ATOM     54  N20 4UX d   1      18.072  24.896  18.047  0.00  0.00    -0.329 N 
ATOM     55  C21 4UX d   1      18.932  24.771  17.041  0.00  0.00     0.361 C 
ATOM     56  O22 4UX d   1      19.119  23.779  16.331  0.00  0.00    -0.238 OA
ATOM     57  H27 4UX d   1      17.921  25.814  18.414  0.00  0.00     0.165 HD
BRANCH  55  58
ATOM     58  O23 4UX d   1      19.619  25.904  16.828  0.00  0.00    -0.296 OA
BRANCH  58  59
ATOM     59  C24 4UX d   1      20.547  25.954  15.745  0.00  0.00     0.080 C 
ATOM     60  C31 4UX d   1      21.923  26.381  16.239  0.00  0.00     0.051 C 
ATOM     61  C30 4UX d   1      22.217  25.919  17.668  0.00  0.00     0.132 C 
ATOM     62  C27 4UX d   1      21.843  27.884  16.349  0.00  0.00     0.139 C 
ATOM     63  H20 4UX d   1      22.709  26.047  15.546  0.00  0.00     0.054 H 
ATOM     64  C29 4UX d   1      21.629  27.018  18.520  0.00  0.00     0.050 C 
ATOM     65  H19 4UX d   1      21.779  24.937  17.899  0.00  0.00     0.088 H 
ATOM     66  O28 4UX d   1      21.611  28.214  17.719  0.00  0.00    -0.359 OA
ATOM     67  H17 4UX d   1      20.606  26.753  18.824  0.00  0.00     0.077 H 
ATOM     68  H18 4UX d   1      22.249  27.173  19.415  0.00  0.00     0.077 H 
ATOM     69  O26 4UX d   1      20.701  28.303  15.603  0.00  0.00    -0.358 OA
ATOM     70  H31 4UX d   1      22.761  28.361  15.976  0.00  0.00     0.129 H 
ATOM     71  C25 4UX d   1      20.167  27.172  14.904  0.00  0.00     0.048 C 
ATOM     72  H29 4UX d   1      19.073  27.254  14.819  0.00  0.00     0.078 H 
ATOM     73  H30 4UX d   1      20.608  27.098  13.899  0.00  0.00     0.078 H 
ATOM     74  H28 4UX d   1      20.567  25.011  15.180  0.00  0.00     0.088 H 
BRANCH  61  75
ATOM     75  N51 4UX d   1      23.685  25.902  17.806  0.00  0.00    -0.072 N 
ATOM     76  H37 4UX d   1      24.005  26.858  17.819  0.00  0.00     0.277 HD
ATOM     77  H38 4UX d   1      24.066  25.431  17.000  0.00  0.00     0.277 HD
BRANCH  75  78
ATOM     78  C52 4UX d   1      24.203  25.243  18.992  0.00  0.00     0.065 C 
ATOM     79  H39 4UX d   1      25.302  25.292  18.988  0.00  0.00     0.067 H 
ATOM     80  H40 4UX d   1      23.883  24.191  18.996  0.00  0.00     0.067 H 
ATOM     81  H41 4UX d   1      23.817  25.747  19.890  0.00  0.00     0.067 H 
ENDBRANCH  75  78
ENDBRANCH  61  75
ENDBRANCH  58  59
ENDBRANCH  55  58
ENDBRANCH   1  54
TORSDOF 18
