REMARK  15 active torsions:
REMARK  status: ('A' for Active; 'I' for Inactive)
REMARK    1  A    between atoms: N_1  and  CA_2 
REMARK    2  A    between atoms: CA_2  and  C_3 
REMARK       I    between atoms: C_3  and  N_5 
REMARK    3  A    between atoms: N_5  and  CA_6 
REMARK    4  A    between atoms: CA_6  and  CB_7 
REMARK    5  A    between atoms: CA_6  and  C_9 
REMARK    6  A    between atoms: CB_7  and  OG_8 
REMARK    7  A    between atoms: OG_8  and  P_11 
REMARK       I    between atoms: C_9  and  N_15 
REMARK    8  A    between atoms: N_15  and  CA_16 
REMARK    9  A    between atoms: CA_16  and  C_17 
REMARK   10  A    between atoms: CA_16  and  CB_19 
REMARK       I    between atoms: C_17  and  N_23 
REMARK   11  A    between atoms: CB_19  and  CG_20 
REMARK   12  A    between atoms: CG_20  and  CD1_21 
REMARK   13  A    between atoms: CG_20  and  CD2_22 
REMARK   14  A    between atoms: N_23  and  CA_24 
REMARK   15  A    between atoms: CA_24  and  C_25 
ROOT
ATOM      1  C   SEP d   1      15.924  15.852   8.764  0.00  0.00     0.243 C 
ATOM      2  O   SEP d   1      15.179  14.994   8.269  0.00  0.00    -0.271 OA
ATOM      3  N   LEU d   1      16.487  16.814   8.033  0.00  0.00    -0.346 N 
ATOM      4  H10 LEU d   1      17.165  17.404   8.472  0.00  0.00     0.163 HD
ENDROOT
BRANCH   3   5
ATOM      5  CA  LEU d   1      16.171  17.056   6.629  0.00  0.00     0.089 C 
ATOM      6  H11 LEU d   1      15.095  17.268   6.540  0.00  0.00     0.087 H 
BRANCH   5   7
ATOM      7  C   LEU d   1      16.489  15.829   5.805  0.00  0.00     0.240 C 
ATOM      8  O   LEU d   1      17.439  15.056   6.103  0.00  0.00    -0.271 OA
ATOM      9  N   GLY d   1      15.707  15.639   4.753  0.00  0.00    -0.349 N 
ATOM     10  H21 GLY d   1      15.024  16.324   4.499  0.00  0.00     0.163 HD
BRANCH   9  11
ATOM     11  CA  GLY d   1      15.856  14.409   3.964  0.00  0.00     0.075 C 
ATOM     12  H22 GLY d   1      16.922  14.198   3.797  0.00  0.00     0.080 H 
ATOM     13  H23 GLY d   1      15.348  14.521   2.995  0.00  0.00     0.080 H 
BRANCH  11  14
ATOM     14  C   GLY d   1      15.222  13.278   4.752  0.00  0.00     0.191 C 
ATOM     15  O   GLY d   1      15.603  12.113   4.616  0.00  0.00    -0.647 OA
ATOM     16  OXT GLY d   1      14.307  13.491   5.551  0.00  0.00    -0.647 OA
ENDBRANCH  11  14
ENDBRANCH   9  11
ENDBRANCH   5   7
BRANCH   5  17
ATOM     17  CB  LEU d   1      16.958  18.279   6.115  0.00  0.00    -0.035 C 
ATOM     18  H12 LEU d   1      18.023  18.002   6.111  0.00  0.00     0.037 H 
ATOM     19  H13 LEU d   1      16.794  19.096   6.833  0.00  0.00     0.037 H 
BRANCH  17  20
ATOM     20  CG  LEU d   1      16.624  18.835   4.704  0.00  0.00    -0.059 C 
ATOM     21  H14 LEU d   1      16.594  18.007   3.981  0.00  0.00     0.038 H 
BRANCH  20  22
ATOM     22  CD1 LEU d   1      15.261  19.615   4.697  0.00  0.00    -0.073 C 
ATOM     23  H15 LEU d   1      15.060  19.992   3.683  0.00  0.00     0.028 H 
ATOM     24  H16 LEU d   1      15.319  20.460   5.398  0.00  0.00     0.028 H 
ATOM     25  H17 LEU d   1      14.450  18.939   5.004  0.00  0.00     0.028 H 
ENDBRANCH  20  22
BRANCH  20  26
ATOM     26  CD2 LEU d   1      17.682  19.872   4.302  0.00  0.00    -0.073 C 
ATOM     27  H18 LEU d   1      18.674  19.396   4.284  0.00  0.00     0.028 H 
ATOM     28  H19 LEU d   1      17.684  20.696   5.031  0.00  0.00     0.028 H 
ATOM     29  H20 LEU d   1      17.447  20.267   3.303  0.00  0.00     0.028 H 
ENDBRANCH  20  26
ENDBRANCH  17  20
ENDBRANCH   5  17
ENDBRANCH   3   5
BRANCH   1  30
ATOM     30  CA  SEP d   1      16.309  15.841  10.257  0.00  0.00     0.110 C 
ATOM     31  H7  SEP d   1      16.071  16.820  10.698  0.00  0.00     0.090 H 
BRANCH  30  32
ATOM     32  N   SEP d   1      15.589  14.757  11.017  0.00  0.00    -0.344 N 
ATOM     33  C   GLY d   1      14.299  14.914  11.339  0.00  0.00     0.243 C 
ATOM     34  O   GLY d   1      13.717  15.909  11.013  0.00  0.00    -0.272 OA
ATOM     35  H6  SEP d   1      16.073  13.923  11.280  0.00  0.00     0.163 HD
BRANCH  33  36
ATOM     36  CA  GLY d   1      13.579  13.799  12.120  0.00  0.00     0.152 C 
ATOM     37  H4  GLY d   1      13.321  14.172  13.122  0.00  0.00     0.090 H 
ATOM     38  H5  GLY d   1      12.659  13.522  11.584  0.00  0.00     0.090 H 
BRANCH  36  39
ATOM     39  N   GLY d   1      14.438  12.601  12.257  0.00  0.00    -0.071 N 
ATOM     40  H1  GLY d   1      13.943  11.889  12.771  0.00  0.00     0.274 HD
ATOM     41  H2  GLY d   1      15.281  12.847  12.752  0.00  0.00     0.274 HD
ATOM     42  H3  GLY d   1      14.675  12.251  11.342  0.00  0.00     0.274 HD
ENDBRANCH  36  39
ENDBRANCH  33  36
ENDBRANCH  30  32
BRANCH  30  43
ATOM     43  CB  SEP d   1      17.807  15.555  10.383  0.00  0.00     0.059 C 
ATOM     44  H8  SEP d   1      18.098  15.499  11.442  0.00  0.00     0.079 H 
ATOM     45  H9  SEP d   1      18.390  16.343   9.884  0.00  0.00     0.079 H 
BRANCH  43  46
ATOM     46  OG  SEP d   1      18.019  14.303   9.745  0.00  0.00    -0.280 OA
BRANCH  46  47
ATOM     47  P   SEP d   1      19.570  13.734   9.939  0.00  0.00     0.422 P 
ATOM     48  O1P SEP d   1      19.481  12.491   8.930  0.00  0.00    -0.617 OA
ATOM     49  O2P SEP d   1      20.572  14.840   9.467  0.00  0.00    -0.617 OA
ATOM     50  O3P SEP d   1      19.469  13.260  11.450  0.00  0.00    -0.617 OA
ENDBRANCH  46  47
ENDBRANCH  43  46
ENDBRANCH  30  43
ENDBRANCH   1  30
TORSDOF 15
