REMARK  3 active torsions:
REMARK  status: ('A' for Active; 'I' for Inactive)
REMARK    1  A    between atoms: C2'_10  and  O2'_11 
REMARK    2  A    between atoms: C1'_12  and  N9_13 
REMARK    3  A    between atoms: C6_17  and  N6_18 
ROOT
ATOM      1  P   CMP d   1      31.100  19.097  47.138  0.00  0.00     0.408 P 
ATOM      2  O1P CMP d   1      31.797  19.440  45.847  0.00  0.00    -0.624 OA
ATOM      3  O2P CMP d   1      31.510  19.815  48.417  0.00  0.00    -0.624 OA
ATOM      4  O5' CMP d   1      31.185  17.519  47.401  0.00  0.00    -0.287 OA
ATOM      5  C5' CMP d   1      30.236  16.894  48.286  0.00  0.00     0.058 C 
ATOM      6  C4' CMP d   1      28.849  17.250  47.774  0.00  0.00     0.090 C 
ATOM      7  O4' CMP d   1      27.733  16.806  48.534  0.00  0.00    -0.353 OA
ATOM      8  C3' CMP d   1      28.621  18.750  47.764  0.00  0.00     0.106 C 
ATOM      9  O3' CMP d   1      29.540  19.378  46.874  0.00  0.00    -0.279 OA
ATOM     10  C2' CMP d   1      27.140  18.842  47.467  0.00  0.00     0.106 C 
ATOM     11  C1' CMP d   1      26.640  17.698  48.321  0.00  0.00     0.140 C 
ATOM     12  H1  CMP d   1      30.369  17.272  49.310  0.00  0.00     0.079 H 
ATOM     13  H2  CMP d   1      30.373  15.803  48.277  0.00  0.00     0.079 H 
ATOM     14  H3  CMP d   1      28.770  16.847  46.754  0.00  0.00     0.090 H 
ATOM     15  H4  CMP d   1      28.803  19.171  48.764  0.00  0.00     0.092 H 
ATOM     16  H5  CMP d   1      26.716  19.822  47.733  0.00  0.00     0.093 H 
ATOM     17  H7  CMP d   1      25.826  17.162  47.811  0.00  0.00     0.122 H 
ENDROOT
BRANCH  11  18
ATOM     18  N9  CMP d   1      26.134  18.289  49.571  0.00  0.00    -0.294 N 
ATOM     19  C8  CMP d   1      26.762  18.263  50.790  0.00  0.00     0.071 A 
ATOM     20  N7  CMP d   1      26.029  18.910  51.702  0.00  0.00    -0.236 NA
ATOM     21  H8  CMP d   1      27.720  17.784  50.987  0.00  0.00     0.144 H 
ATOM     22  C5  CMP d   1      24.917  19.392  51.058  0.00  0.00     0.149 A 
ATOM     23  C6  CMP d   1      23.723  20.168  51.444  0.00  0.00     0.155 A 
ATOM     24  C4  CMP d   1      25.010  18.979  49.656  0.00  0.00     0.167 A 
ATOM     25  N1  CMP d   1      22.822  20.413  50.468  0.00  0.00    -0.222 NA
ATOM     26  C2  CMP d   1      22.961  20.000  49.197  0.00  0.00     0.091 A 
ATOM     27  N3  CMP d   1      24.028  19.300  48.784  0.00  0.00    -0.222 NA
ATOM     28  H11 CMP d   1      22.184  20.241  48.481  0.00  0.00     0.146 H 
BRANCH  23  29
ATOM     29  N6  CMP d   1      23.530  20.620  52.742  0.00  0.00    -0.382 N 
ATOM     30  H9  CMP d   1      22.685  21.160  52.979  0.00  0.00     0.157 HD
ATOM     31  H10 CMP d   1      24.232  20.416  53.468  0.00  0.00     0.157 HD
ENDBRANCH  23  29
ENDBRANCH  11  18
BRANCH  10  32
ATOM     32  O2' CMP d   1      26.817  18.481  46.124  0.00  0.00    -0.388 OA
ATOM     33  H6  CMP d   1      27.269  19.062  45.524  0.00  0.00     0.210 HD
ENDBRANCH  10  32
TORSDOF 3
