REMARK  10 active torsions:
REMARK  status: ('A' for Active; 'I' for Inactive)
REMARK    1  A    between atoms: PA_1  and  O3A_4 
REMARK    2  A    between atoms: PA_1  and  O5'_5 
REMARK    3  A    between atoms: O3A_4  and  PB_6 
REMARK    4  A    between atoms: O5'_5  and  C5'_10 
REMARK    5  A    between atoms: C5'_10  and  C4'_11 
REMARK    6  A    between atoms: C3'_13  and  O3'_14 
REMARK    7  A    between atoms: C2'_15  and  O2'_16 
REMARK    8  A    between atoms: C1'_17  and  N9_18 
REMARK    9  A    between atoms: N7_20  and  CM7_21 
REMARK   10  A    between atoms: C2_26  and  N2_27 
ROOT
ATOM      1  C4' M7G d   1      42.002   3.336  29.087  0.00  0.00     0.089 C 
ATOM      2  O4' M7G d   1      42.703   2.455  28.183  0.00  0.00    -0.353 OA
ATOM      3  C3' M7G d   1      41.263   2.458  30.095  0.00  0.00     0.091 C 
ATOM      4  C2' M7G d   1      41.710   1.026  29.758  0.00  0.00     0.105 C 
ATOM      5  C1' M7G d   1      42.129   1.139  28.306  0.00  0.00     0.139 C 
ATOM      6  H3  M7G d   1      41.318   4.026  28.571  0.00  0.00     0.090 H 
ATOM      7  H4  M7G d   1      41.528   2.720  31.130  0.00  0.00     0.091 H 
ATOM      8  H6  M7G d   1      42.520   0.674  30.413  0.00  0.00     0.093 H 
ATOM      9  H8  M7G d   1      41.251   1.021  27.654  0.00  0.00     0.122 H 
ENDROOT
BRANCH   5  10
ATOM     10  N9  M7G d   1      43.171   0.191  27.902  0.00  0.00    -0.296 N 
ATOM     11  C8  M7G d   1      44.322  -0.071  28.745  0.00  0.00     0.049 A 
ATOM     12  N7  M7G d   1      45.182  -0.813  27.828  0.00  0.00    -0.340 N 
ATOM     13  H9  M7G d   1      44.497   0.210  29.782  0.00  0.00     0.141 H 
ATOM     14  C5  M7G d   1      44.577  -0.985  26.641  0.00  0.00     0.149 A 
ATOM     15  C6  M7G d   1      44.978  -1.635  25.474  0.00  0.00     0.290 A 
ATOM     16  C4  M7G d   1      43.322  -0.389  26.679  0.00  0.00     0.159 A 
ATOM     17  O6  M7G d   1      46.048  -2.212  25.282  0.00  0.00    -0.265 OA
ATOM     18  N1  M7G d   1      44.022  -1.583  24.444  0.00  0.00    -0.154 N 
ATOM     19  C2  M7G d   1      42.803  -0.961  24.578  0.00  0.00     0.680 A 
ATOM     20  H13 M7G d   1      44.239  -2.020  23.571  0.00  0.00     0.187 HD
ATOM     21  N3  M7G d   1      42.412  -0.338  25.699  0.00  0.00    -0.174 N 
ATOM     22  H16 M7G d   1      41.501   0.133  25.796  0.00  0.00     0.186 HD
BRANCH  12  23
ATOM     23  CM7 M7G d   1      46.516  -1.309  28.264  0.00  0.00    -0.013 C 
ATOM     24  H10 M7G d   1      46.706  -0.989  29.299  0.00  0.00     0.057 H 
ATOM     25  H11 M7G d   1      47.294  -0.897  27.605  0.00  0.00     0.057 H 
ATOM     26  H12 M7G d   1      46.534  -2.408  28.211  0.00  0.00     0.057 H 
ENDBRANCH  12  23
BRANCH  19  27
ATOM     27  N2  M7G d   1      41.982  -0.987  23.532  0.00  0.00    -0.234 N 
ATOM     28  H14 M7G d   1      41.059  -0.533  23.590  0.00  0.00     0.174 HD
ATOM     29  H15 M7G d   1      42.269  -1.461  22.664  0.00  0.00     0.174 HD
ENDBRANCH  19  27
ENDBRANCH   5  10
BRANCH   4  30
ATOM     30  O2' M7G d   1      40.590   0.154  29.796  0.00  0.00    -0.388 OA
ATOM     31  H7  M7G d   1      39.945   0.441  29.160  0.00  0.00     0.210 HD
ENDBRANCH   4  30
BRANCH   1  32
ATOM     32  C5' M7G d   1      43.135   4.056  29.791  0.00  0.00     0.058 C 
ATOM     33  H1  M7G d   1      43.612   3.367  30.503  0.00  0.00     0.079 H 
ATOM     34  H2  M7G d   1      43.874   4.381  29.044  0.00  0.00     0.079 H 
BRANCH  32  35
ATOM     35  O5' M7G d   1      42.655   5.189  30.492  0.00  0.00    -0.287 OA
BRANCH  35  36
ATOM     36  PA  M7G d   1      43.258   5.518  31.931  0.00  0.00     0.418 P 
ATOM     37  O1A M7G d   1      44.711   5.782  31.870  0.00  0.00    -0.624 OA
ATOM     38  O2A M7G d   1      42.346   6.511  32.541  0.00  0.00    -0.624 OA
BRANCH  36  39
ATOM     39  O3A M7G d   1      43.148   4.053  32.598  0.00  0.00    -0.173 OA
BRANCH  39  40
ATOM     40  PB  M7G d   1      42.233   3.676  33.853  0.00  0.00     0.431 P 
ATOM     41  O1B M7G d   1      40.776   3.811  33.601  0.00  0.00    -0.616 OA
ATOM     42  O2B M7G d   1      42.748   4.648  35.006  0.00  0.00    -0.616 OA
ATOM     43  O3B M7G d   1      42.613   2.223  34.195  0.00  0.00    -0.616 OA
ENDBRANCH  39  40
ENDBRANCH  36  39
ENDBRANCH  35  36
ENDBRANCH  32  35
ENDBRANCH   1  32
BRANCH   3  44
ATOM     44  O3' M7G d   1      39.849   2.620  29.887  0.00  0.00    -0.390 OA
ATOM     45  H5  M7G d   1      39.628   2.356  29.002  0.00  0.00     0.210 HD
ENDBRANCH   3  44
TORSDOF 10
