REMARK  12 active torsions:
REMARK  status: ('A' for Active; 'I' for Inactive)
REMARK    1  A    between atoms: N_1  and  CA_2 
REMARK    2  A    between atoms: CA_2  and  C_3 
REMARK    3  A    between atoms: CA_2  and  CB_6 
REMARK    4  A    between atoms: CB_6  and  CG_7 
REMARK    5  A    between atoms: CG_7  and  SD_8 
REMARK    6  A    between atoms: SD_8  and  CE_9 
REMARK    7  A    between atoms: SD_8  and  C5'_10 
REMARK    8  A    between atoms: C5'_10  and  C4'_11 
REMARK    9  A    between atoms: C3'_13  and  O3'_14 
REMARK   10  A    between atoms: C2'_15  and  O2'_16 
REMARK   11  A    between atoms: C1'_17  and  N9_18 
REMARK   12  A    between atoms: C6_22  and  N6_23 
ROOT
ATOM      1  C4' SAM d   1       0.110 -24.464   1.271  0.00  0.00     0.076 C 
ATOM      2  O4' SAM d   1       0.557 -23.333   2.042  0.00  0.00    -0.355 OA
ATOM      3  C3' SAM d   1       1.230 -24.765   0.264  0.00  0.00     0.090 C 
ATOM      4  C2' SAM d   1       2.232 -23.652   0.434  0.00  0.00     0.105 C 
ATOM      5  C1' SAM d   1       1.369 -22.595   1.108  0.00  0.00     0.139 C 
ATOM      6  H14 SAM d   1      -0.810 -24.184   0.738  0.00  0.00     0.088 H 
ATOM      7  H15 SAM d   1       1.685 -25.737   0.505  0.00  0.00     0.091 H 
ATOM      8  H17 SAM d   1       3.060 -23.967   1.086  0.00  0.00     0.093 H 
ATOM      9  H19 SAM d   1       0.698 -22.119   0.377  0.00  0.00     0.122 H 
ENDROOT
BRANCH   1  10
ATOM     10  C5' SAM d   1      -0.172 -25.729   2.074  0.00  0.00    -0.005 C 
ATOM     11  H12 SAM d   1       0.767 -26.279   2.232  0.00  0.00     0.051 H 
ATOM     12  H13 SAM d   1      -0.605 -25.455   3.047  0.00  0.00     0.051 H 
BRANCH  10  13
ATOM     13  SD  SAM d   1      -1.264 -26.711   1.228  0.00  0.00    -0.221 SA
BRANCH  13  14
ATOM     14  CG  SAM d   1      -2.813 -26.625   1.894  0.00  0.00    -0.029 C 
ATOM     15  H7  SAM d   1      -2.924 -27.422   2.644  0.00  0.00     0.047 H 
ATOM     16  H8  SAM d   1      -2.939 -25.646   2.379  0.00  0.00     0.047 H 
BRANCH  14  17
ATOM     17  CB  SAM d   1      -3.899 -26.794   0.825  0.00  0.00    -0.022 C 
ATOM     18  H5  SAM d   1      -3.574 -26.269  -0.085  0.00  0.00     0.037 H 
ATOM     19  H6  SAM d   1      -4.009 -27.867   0.610  0.00  0.00     0.037 H 
BRANCH  17  20
ATOM     20  CA  SAM d   1      -5.278 -26.237   1.241  0.00  0.00     0.183 C 
ATOM     21  H4  SAM d   1      -5.787 -25.890   0.330  0.00  0.00     0.101 H 
BRANCH  20  22
ATOM     22  N   SAM d   1      -5.156 -25.060   2.148  0.00  0.00    -0.065 N 
ATOM     23  H1  SAM d   1      -4.591 -24.352   1.705  0.00  0.00     0.275 HD
ATOM     24  H2  SAM d   1      -4.721 -25.345   3.012  0.00  0.00     0.275 HD
ATOM     25  H3  SAM d   1      -6.073 -24.687   2.340  0.00  0.00     0.275 HD
ENDBRANCH  20  22
BRANCH  20  26
ATOM     26  C   SAM d   1      -6.122 -27.360   1.840  0.00  0.00     0.204 C 
ATOM     27  O   SAM d   1      -7.369 -27.259   1.801  0.00  0.00    -0.646 OA
ATOM     28  OXT SAM d   1      -5.569 -28.362   2.365  0.00  0.00    -0.646 OA
ENDBRANCH  20  26
ENDBRANCH  17  20
ENDBRANCH  14  17
ENDBRANCH  13  14
BRANCH  13  29
ATOM     29  CE  SAM d   1      -1.050 -28.363   1.239  0.00  0.00    -0.042 C 
ATOM     30  H9  SAM d   1      -0.060 -28.607   0.825  0.00  0.00     0.040 H 
ATOM     31  H10 SAM d   1      -1.831 -28.838   0.627  0.00  0.00     0.040 H 
ATOM     32  H11 SAM d   1      -1.117 -28.735   2.272  0.00  0.00     0.040 H 
ENDBRANCH  13  29
ENDBRANCH  10  13
ENDBRANCH   1  10
BRANCH   3  33
ATOM     33  O3' SAM d   1       0.813 -24.778  -1.090  0.00  0.00    -0.390 OA
ATOM     34  H16 SAM d   1       0.456 -23.928  -1.318  0.00  0.00     0.210 HD
ENDBRANCH   3  33
BRANCH   5  35
ATOM     35  N9  SAM d   1       2.283 -21.563   1.608  0.00  0.00    -0.294 N 
ATOM     36  C8  SAM d   1       3.426 -21.742   2.302  0.00  0.00     0.071 A 
ATOM     37  N7  SAM d   1       3.997 -20.580   2.626  0.00  0.00    -0.236 NA
ATOM     38  H20 SAM d   1       3.833 -22.717   2.566  0.00  0.00     0.144 H 
ATOM     39  C5  SAM d   1       3.163 -19.626   2.153  0.00  0.00     0.149 A 
ATOM     40  C6  SAM d   1       3.175 -18.202   2.148  0.00  0.00     0.155 A 
ATOM     41  C4  SAM d   1       2.061 -20.248   1.487  0.00  0.00     0.167 A 
ATOM     42  N1  SAM d   1       2.147 -17.549   1.602  0.00  0.00    -0.222 NA
ATOM     43  C2  SAM d   1       1.167 -18.181   1.025  0.00  0.00     0.091 A 
ATOM     44  N3  SAM d   1       1.051 -19.508   0.981  0.00  0.00    -0.222 NA
ATOM     45  H23 SAM d   1       0.394 -17.589   0.549  0.00  0.00     0.146 H 
BRANCH  40  46
ATOM     46  N6  SAM d   1       4.202 -17.593   2.743  0.00  0.00    -0.382 N 
ATOM     47  H21 SAM d   1       4.250 -16.564   2.762  0.00  0.00     0.157 HD
ATOM     48  H22 SAM d   1       4.947 -18.151   3.183  0.00  0.00     0.157 HD
ENDBRANCH  40  46
ENDBRANCH   5  35
BRANCH   4  49
ATOM     49  O2' SAM d   1       2.772 -23.178  -0.794  0.00  0.00    -0.388 OA
ATOM     50  H18 SAM d   1       2.069 -22.846  -1.341  0.00  0.00     0.210 HD
ENDBRANCH   4  49
TORSDOF 12
