REMARK  12 active torsions:
REMARK  status: ('A' for Active; 'I' for Inactive)
REMARK    1  A    between atoms: N2_10  and  C1_1 
REMARK    2  A    between atoms: C1_1  and  C2_11 
REMARK    3  A    between atoms: C2_11  and  C5_2 
REMARK    4  A    between atoms: C5_2  and  C8_13 
REMARK    5  A    between atoms: N9_4  and  O10_3 
REMARK    6  A    between atoms: C7_6  and  C8A_5 
REMARK    7  A    between atoms: C8_13  and  C11_14 
REMARK    8  A    between atoms: C11_14  and  C14_15 
REMARK    9  A    between atoms: C14_15  and  C17_16 
REMARK   10  A    between atoms: C17_16  and  N20_17 
REMARK   11  A    between atoms: C25_22  and  C26_23 
REMARK   12  A    between atoms: N27_24  and  O28_25 
ROOT
ATOM      1  C8  HBP d   1      56.928 -36.307  -0.921  0.00  0.00    -0.065 C 
ATOM      2  H14 HBP d   1      57.059 -36.988  -1.775  0.00  0.00     0.033 H 
ATOM      3  H15 HBP d   1      56.090 -35.624  -1.123  0.00  0.00     0.033 H 
ENDROOT
BRANCH   1   4
ATOM      4  C5  HBP d   1      58.193 -35.465  -0.802  0.00  0.00    -0.064 C 
ATOM      5  H3  HBP d   1      58.492 -35.384   0.253  0.00  0.00     0.033 H 
ATOM      6  H4  HBP d   1      59.007 -35.927  -1.380  0.00  0.00     0.033 H 
BRANCH   4   7
ATOM      7  C2  HBP d   1      57.877 -34.081  -1.361  0.00  0.00    -0.050 C 
ATOM      8  H10 HBP d   1      57.597 -34.185  -2.420  0.00  0.00     0.035 H 
ATOM      9  H11 HBP d   1      57.032 -33.659  -0.798  0.00  0.00     0.035 H 
BRANCH   7  10
ATOM     10  C1  HBP d   1      59.052 -33.126  -1.261  0.00  0.00    -0.000 C 
ATOM     11  H1  HBP d   1      59.158 -32.783  -0.221  0.00  0.00     0.064 H 
ATOM     12  H2  HBP d   1      59.972 -33.642  -1.573  0.00  0.00     0.064 H 
BRANCH  10  13
ATOM     13  N2  HBP d   1      58.817 -31.964  -2.141  0.00  0.00    -0.356 N 
ATOM     14  C7  HBP d   1      59.479 -31.775  -3.386  0.00  0.00     0.050 A 
ATOM     15  C6  HBP d   1      59.213 -30.639  -4.151  0.00  0.00    -0.072 A 
ATOM     16  C5A HBP d   1      58.298 -29.709  -3.701  0.00  0.00    -0.031 A 
ATOM     17  H7  HBP d   1      59.725 -30.487  -5.100  0.00  0.00     0.080 H 
ATOM     18  C4  HBP d   1      57.663 -29.911  -2.485  0.00  0.00    -0.085 A 
ATOM     19  H12 HBP d   1      57.510 -29.639  -4.466  0.00  0.00     0.044 H 
ATOM     20  H13 HBP d   1      58.827 -28.747  -3.630  0.00  0.00     0.044 H 
ATOM     21  C3  HBP d   1      57.935 -31.045  -1.725  0.00  0.00    -0.023 A 
ATOM     22  H8  HBP d   1      56.946 -29.177  -2.122  0.00  0.00     0.079 H 
ATOM     23  H9  HBP d   1      57.422 -31.188  -0.775  0.00  0.00     0.111 H 
BRANCH  14  24
ATOM     24  C8A HBP d   1      60.470 -32.765  -3.874  0.00  0.00     0.054 C 
ATOM     25  N9  HBP d   1      61.103 -32.605  -4.951  0.00  0.00    -0.146 NA
ATOM     26  H6  HBP d   1      60.656 -33.660  -3.282  0.00  0.00     0.121 H 
BRANCH  25  27
ATOM     27  O10 HBP d   1      62.034 -33.566  -5.332  0.00  0.00    -0.266 OA
ATOM     28  H5  HBP d   1      61.599 -34.405  -5.431  0.00  0.00     0.247 HD
ENDBRANCH  25  27
ENDBRANCH  14  24
ENDBRANCH  10  13
ENDBRANCH   7  10
ENDBRANCH   4   7
ENDBRANCH   1   4
BRANCH   1  29
ATOM     29  C11 HBP d   1      56.555 -37.150   0.289  0.00  0.00    -0.064 C 
ATOM     30  H16 HBP d   1      57.297 -37.955   0.392  0.00  0.00     0.033 H 
ATOM     31  H17 HBP d   1      55.561 -37.588   0.114  0.00  0.00     0.033 H 
BRANCH  29  32
ATOM     32  C14 HBP d   1      56.511 -36.370   1.591  0.00  0.00    -0.050 C 
ATOM     33  H18 HBP d   1      56.751 -35.321   1.361  0.00  0.00     0.035 H 
ATOM     34  H19 HBP d   1      57.283 -36.785   2.256  0.00  0.00     0.035 H 
BRANCH  32  35
ATOM     35  C17 HBP d   1      55.177 -36.387   2.357  0.00  0.00    -0.004 C 
ATOM     36  H20 HBP d   1      54.437 -36.940   1.760  0.00  0.00     0.064 H 
ATOM     37  H21 HBP d   1      54.837 -35.350   2.493  0.00  0.00     0.064 H 
BRANCH  35  38
ATOM     38  N20 HBP d   1      55.285 -37.028   3.689  0.00  0.00    -0.377 N 
ATOM     39  C21 HBP d   1      54.329 -37.924   4.011  0.00  0.00    -0.024 A 
ATOM     40  C22 HBP d   1      54.341 -38.586   5.235  0.00  0.00    -0.069 A 
ATOM     41  H22 HBP d   1      53.532 -38.133   3.299  0.00  0.00     0.111 H 
ATOM     42  C23 HBP d   1      55.338 -38.323   6.158  0.00  0.00    -0.083 A 
ATOM     43  H23 HBP d   1      53.564 -39.313   5.467  0.00  0.00     0.085 H 
ATOM     44  C24 HBP d   1      56.313 -37.394   5.828  0.00  0.00    -0.076 A 
ATOM     45  H24 HBP d   1      55.356 -38.833   7.120  0.00  0.00     0.083 H 
ATOM     46  C25 HBP d   1      56.271 -36.731   4.594  0.00  0.00     0.062 A 
ATOM     47  H25 HBP d   1      57.116 -37.178   6.532  0.00  0.00     0.080 H 
ATOM     48  H26 HBP d   1      55.665 -35.913   5.011  0.00  0.00     0.087 H 
BRANCH  46  49
ATOM     49  C26 HBP d   1      57.391 -35.796   4.287  0.00  0.00     0.033 C 
ATOM     50  N27 HBP d   1      58.443 -35.789   4.983  0.00  0.00    -0.151 NA
ATOM     51  H27 HBP d   1      57.299 -35.108   3.448  0.00  0.00     0.115 H 
BRANCH  50  52
ATOM     52  O28 HBP d   1      59.476 -34.940   4.597  0.00  0.00    -0.267 OA
ATOM     53  H28 HBP d   1      59.167 -34.042   4.607  0.00  0.00     0.247 HD
ENDBRANCH  50  52
ENDBRANCH  46  49
ENDBRANCH  35  38
ENDBRANCH  32  35
ENDBRANCH  29  32
ENDBRANCH   1  29
TORSDOF 12
