REMARK  6 active torsions:
REMARK  status: ('A' for Active; 'I' for Inactive)
REMARK    1  A    between atoms: S18_2  and  N8_4 
REMARK    2  A    between atoms: S18_2  and  C4_5 
REMARK    3  A    between atoms: C1_8  and  N11_11 
REMARK    4  A    between atoms: N11_11  and  N12_12 
REMARK    5  A    between atoms: N12_12  and  C13_13 
REMARK    6  A    between atoms: C16_16  and  N19_17 
ROOT
ATOM      1  N11 4WA d   1      17.176   6.544  14.022  0.00  0.00    -0.300 N 
ATOM      2  H7  4WA d   1      16.560   7.365  13.938  0.00  0.00     0.187 HD
ENDROOT
BRANCH   1   3
ATOM      3  C1  4WA d   1      16.744   5.411  14.618  0.00  0.00     0.048 A 
ATOM      4  C6  4WA d   1      17.614   4.368  14.980  0.00  0.00    -0.054 A 
ATOM      5  C5  4WA d   1      17.113   3.229  15.634  0.00  0.00    -0.058 A 
ATOM      6  H4  4WA d   1      18.672   4.442  14.755  0.00  0.00     0.087 H 
ATOM      7  C4  4WA d   1      15.745   3.117  15.907  0.00  0.00     0.079 A 
ATOM      8  H3  4WA d   1      17.789   2.434  15.928  0.00  0.00     0.086 H 
ATOM      9  C3  4WA d   1      14.889   4.158  15.502  0.00  0.00    -0.058 A 
ATOM     10  C2  4WA d   1      15.381   5.292  14.852  0.00  0.00    -0.054 A 
ATOM     11  H6  4WA d   1      13.826   4.078  15.699  0.00  0.00     0.086 H 
ATOM     12  H5  4WA d   1      14.703   6.075  14.532  0.00  0.00     0.087 H 
BRANCH   7  13
ATOM     13  S18 4WA d   1      15.105   1.727  16.785  0.00  0.00     0.256 S 
ATOM     14  O10 4WA d   1      13.673   1.787  16.641  0.00  0.00    -0.201 OA
ATOM     15  O9  4WA d   1      15.660   1.827  18.119  0.00  0.00    -0.201 OA
BRANCH  13  16
ATOM     16  N8  4WA d   1      15.692   0.419  16.065  0.00  0.00    -0.324 N 
ATOM     17  H1  4WA d   1      15.413   0.194  15.131  0.00  0.00     0.169 HD
ATOM     18  H2  4WA d   1      16.337  -0.172  16.550  0.00  0.00     0.169 HD
ENDBRANCH  13  16
ENDBRANCH   7  13
ENDBRANCH   1   3
BRANCH   1  19
ATOM     19  N12 4WA d   1      18.437   6.572  13.539  0.00  0.00    -0.300 N 
ATOM     20  H8  4WA d   1      18.825   5.713  13.125  0.00  0.00     0.187 HD
BRANCH  19  21
ATOM     21  C13 4WA d   1      19.212   7.680  13.576  0.00  0.00     0.048 A 
ATOM     22  C18 4WA d   1      19.038   8.739  14.485  0.00  0.00    -0.054 A 
ATOM     23  C17 4WA d   1      19.898   9.854  14.466  0.00  0.00    -0.056 A 
ATOM     24  H9  4WA d   1      18.232   8.696  15.209  0.00  0.00     0.087 H 
ATOM     25  C16 4WA d   1      20.951   9.904  13.538  0.00  0.00     0.025 A 
ATOM     26  H10 4WA d   1      19.748  10.670  15.164  0.00  0.00     0.087 H 
ATOM     27  C15 4WA d   1      21.127   8.842  12.634  0.00  0.00    -0.056 A 
ATOM     28  C14 4WA d   1      20.266   7.735  12.662  0.00  0.00    -0.054 A 
ATOM     29  H13 4WA d   1      21.933   8.879  11.911  0.00  0.00     0.087 H 
ATOM     30  H14 4WA d   1      20.420   6.916  11.969  0.00  0.00     0.087 H 
BRANCH  25  31
ATOM     31  N19 4WA d   1      21.822  11.020  13.504  0.00  0.00    -0.399 N 
ATOM     32  H11 4WA d   1      22.593  11.051  12.821  0.00  0.00     0.156 HD
ATOM     33  H12 4WA d   1      21.685  11.800  14.162  0.00  0.00     0.156 HD
ENDBRANCH  25  31
ENDBRANCH  19  21
ENDBRANCH   1  19
TORSDOF 6
