REMARK  6 active torsions:
REMARK  status: ('A' for Active; 'I' for Inactive)
REMARK    1  A    between atoms: NBB_3  and  CAB_4 
REMARK    2  A    between atoms: CAU_10  and  OAD_11 
REMARK    3  A    between atoms: CBE_17  and  OAT_18 
REMARK    4  A    between atoms: OAT_18  and  CAA_19 
REMARK    5  A    between atoms: CBC_24  and  CAC_25 
REMARK    6  A    between atoms: CAY_26  and  CAV_27 
ROOT
ATOM      1  CAP 4VO d   1       2.367  15.479 -57.772  0.00  0.00    -0.028 C 
ATOM      2  CAO 4VO d   1       1.926  15.561 -56.292  0.00  0.00     0.085 C 
ATOM      3  NBB 4VO d   1       1.131  16.797 -56.074  0.00  0.00    -0.069 N 
ATOM      4  CAZ 4VO d   1      -0.092  16.803 -56.917  0.00  0.00     0.118 C 
ATOM      5  CAQ 4VO d   1      -1.026  15.576 -56.678  0.00  0.00    -0.013 C 
ATOM      6  CAW 4VO d   1      -0.724  14.452 -57.486  0.00  0.00    -0.049 A 
ATOM      7  CAM 4VO d   1      -1.498  13.308 -57.318  0.00  0.00    -0.074 A 
ATOM      8  CAL 4VO d   1      -1.271  12.157 -58.072  0.00  0.00    -0.051 A 
ATOM      9  CAU 4VO d   1      -0.253  12.153 -59.015  0.00  0.00     0.066 A 
ATOM     10  CAN 4VO d   1       0.522  13.294 -59.189  0.00  0.00    -0.044 A 
ATOM     11  CAX 4VO d   1       0.299  14.464 -58.455  0.00  0.00    -0.037 A 
ATOM     12  CBF 4VO d   1       1.130  15.605 -58.699  0.00  0.00     0.034 C 
ATOM     13  CBA 4VO d   1       1.563  15.719 -60.219  0.00  0.00     0.148 C 
ATOM     14  NAS 4VO d   1       2.911  16.322 -60.505  0.00  0.00    -0.057 N 
ATOM     15  CBE 4VO d   1       0.706  16.804 -60.923  0.00  0.00     0.117 C 
ATOM     16  CAF 4VO d   1      -0.663  16.745 -60.593  0.00  0.00    -0.070 C 
ATOM     17  CAE 4VO d   1      -0.898  16.796 -59.219  0.00  0.00    -0.092 C 
ATOM     18  CBD 4VO d   1       0.250  16.841 -58.401  0.00  0.00     0.021 C 
ATOM     19  CAR 4VO d   1       0.902  18.153 -58.794  0.00  0.00    -0.040 C 
ATOM     20  CBC 4VO d   1       1.296  18.067 -60.278  0.00  0.00     0.027 C 
ATOM     21  CAY 4VO d   1       2.812  17.752 -60.186  0.00  0.00     0.138 C 
ATOM     22  H1  4VO d   1       2.861  14.513 -57.952  0.00  0.00     0.037 H 
ATOM     23  H2  4VO d   1       3.070  16.297 -57.989  0.00  0.00     0.037 H 
ATOM     24  H3  4VO d   1       2.816  15.580 -55.646  0.00  0.00     0.076 H 
ATOM     25  H4  4VO d   1       1.312  14.683 -56.044  0.00  0.00     0.076 H 
ATOM     26  H5  4VO d   1       1.697  17.588 -56.339  0.00  0.00     0.280 HD
ATOM     27  H9  4VO d   1      -0.656  17.713 -56.667  0.00  0.00     0.086 H 
ATOM     28  H10 4VO d   1      -2.061  15.884 -56.888  0.00  0.00     0.043 H 
ATOM     29  H11 4VO d   1      -0.939  15.276 -55.623  0.00  0.00     0.043 H 
ATOM     30  H12 4VO d   1      -2.296  13.312 -56.584  0.00  0.00     0.084 H 
ATOM     31  H13 4VO d   1      -1.883  11.275 -57.923  0.00  0.00     0.087 H 
ATOM     32  H15 4VO d   1       1.325  13.277 -59.917  0.00  0.00     0.088 H 
ATOM     33  H16 4VO d   1       1.465  14.730 -60.690  0.00  0.00     0.091 H 
ATOM     34  H17 4VO d   1       3.147  16.199 -61.477  0.00  0.00     0.278 HD
ATOM     35  H18 4VO d   1       3.615  15.886 -59.930  0.00  0.00     0.278 HD
ATOM     36  H22 4VO d   1      -1.456  16.668 -61.335  0.00  0.00     0.081 H 
ATOM     37  H23 4VO d   1      -1.905  16.801 -58.804  0.00  0.00     0.077 H 
ATOM     38  H24 4VO d   1       1.799  18.322 -58.180  0.00  0.00     0.036 H 
ATOM     39  H25 4VO d   1       0.193  18.981 -58.644  0.00  0.00     0.036 H 
ATOM     40  H29 4VO d   1       2.887  17.617 -59.097  0.00  0.00     0.093 H 
ENDROOT
BRANCH  21  41
ATOM     41  CAV 4VO d   1       3.726  18.839 -60.183  0.00  0.00    -0.027 A 
ATOM     42  CAJ 4VO d   1       4.028  19.696 -61.223  0.00  0.00    -0.075 A 
ATOM     43  CAH 4VO d   1       4.929  20.735 -61.003  0.00  0.00    -0.082 A 
ATOM     44  H30 4VO d   1       3.570  19.562 -62.197  0.00  0.00     0.084 H 
ATOM     45  CAG 4VO d   1       5.538  20.923 -59.767  0.00  0.00    -0.083 A 
ATOM     46  H31 4VO d   1       5.161  21.414 -61.815  0.00  0.00     0.083 H 
ATOM     47  CAI 4VO d   1       5.239  20.064 -58.718  0.00  0.00    -0.082 A 
ATOM     48  H32 4VO d   1       6.242  21.735 -59.623  0.00  0.00     0.083 H 
ATOM     49  CAK 4VO d   1       4.337  19.032 -58.938  0.00  0.00    -0.075 A 
ATOM     50  H33 4VO d   1       5.701  20.197 -57.746  0.00  0.00     0.083 H 
ATOM     51  H34 4VO d   1       4.099  18.357 -58.124  0.00  0.00     0.084 H 
ENDBRANCH  21  41
BRANCH  20  52
ATOM     52  CAC 4VO d   1       0.833  19.327 -61.026  0.00  0.00    -0.064 C 
ATOM     53  H26 4VO d   1       1.121  19.252 -62.085  0.00  0.00     0.028 H 
ATOM     54  H27 4VO d   1       1.307  20.213 -60.579  0.00  0.00     0.028 H 
ATOM     55  H28 4VO d   1      -0.261  19.418 -60.949  0.00  0.00     0.028 H 
ENDBRANCH  20  52
BRANCH  15  56
ATOM     56  OAT 4VO d   1       0.927  16.799 -62.358  0.00  0.00    -0.378 OA
BRANCH  56  57
ATOM     57  CAA 4VO d   1       0.532  15.553 -62.946  0.00  0.00     0.006 C 
ATOM     58  H19 4VO d   1       0.713  15.586 -64.031  0.00  0.00     0.066 H 
ATOM     59  H20 4VO d   1      -0.538  15.382 -62.758  0.00  0.00     0.066 H 
ATOM     60  H21 4VO d   1       1.118  14.735 -62.501  0.00  0.00     0.066 H 
ENDBRANCH  56  57
ENDBRANCH  15  56
BRANCH   3  61
ATOM     61  CAB 4VO d   1       0.786  16.930 -54.635  0.00  0.00     0.067 C 
ATOM     62  H6  4VO d   1       0.198  17.847 -54.482  0.00  0.00     0.068 H 
ATOM     63  H7  4VO d   1       1.710  16.983 -54.040  0.00  0.00     0.068 H 
ATOM     64  H8  4VO d   1       0.195  16.058 -54.318  0.00  0.00     0.068 H 
ENDBRANCH   3  61
BRANCH   9  65
ATOM     65  OAD 4VO d   1      -0.015  11.030 -59.759  0.00  0.00    -0.361 OA
ATOM     66  H14 4VO d   1       0.709  11.192 -60.352  0.00  0.00     0.217 HD
ENDBRANCH   9  65
TORSDOF 6
