REMARK  3 active torsions:
REMARK  status: ('A' for Active; 'I' for Inactive)
REMARK    1  A    between atoms: C2_1  and  N5_9 
REMARK    2  A    between atoms: C3_2  and  C7_4 
REMARK    3  A    between atoms: C1_8  and  C6_10 
ROOT
ATOM      1  C2  4XV d   1       4.391  11.616  43.056  0.00  0.00     0.132 A 
ATOM      2  C3  4XV d   1       3.951  13.104  41.342  0.00  0.00     0.134 A 
ATOM      3  N4  4XV d   1       3.229  13.910  42.127  0.00  0.00    -0.220 NA
ATOM      4  C   4XV d   1       3.110  13.523  43.393  0.00  0.00     0.137 A 
ATOM      5  N   4XV d   1       4.525  11.965  41.766  0.00  0.00    -0.215 NA
ATOM      6  C1  4XV d   1       3.665  12.389  43.940  0.00  0.00     0.024 A 
ATOM      7 CL   4XV d   1       2.186  14.578  44.361  0.00  0.00    -0.062 Cl
ENDROOT
BRANCH   2   8
ATOM      8  C7  4XV d   1       4.132  13.459  39.929  0.00  0.00     0.006 A 
ATOM      9  C9  4XV d   1       4.449  14.869  39.524  0.00  0.00    -0.054 A 
ATOM     10  C8  4XV d   1       3.092  14.291  39.234  0.00  0.00    -0.054 A 
ATOM     11  H2  4XV d   1       5.153  15.060  38.700  0.00  0.00     0.034 H 
ATOM     12  H3  4XV d   1       4.562  15.649  40.291  0.00  0.00     0.034 H 
ATOM     13  H9  4XV d   1       2.212  14.648  39.789  0.00  0.00     0.034 H 
ATOM     14  H10 4XV d   1       2.803  14.058  38.199  0.00  0.00     0.034 H 
ATOM     15  H1  4XV d   1       4.610  12.620  39.401  0.00  0.00     0.052 H 
ENDBRANCH   2   8
BRANCH   1  16
ATOM     16  N5  4XV d   1       5.007  10.416  43.463  0.00  0.00    -0.383 N 
ATOM     17  H4  4XV d   1       4.933  10.105  44.442  0.00  0.00     0.157 HD
ATOM     18  H5  4XV d   1       5.532   9.849  42.781  0.00  0.00     0.157 HD
ENDBRANCH   1  16
BRANCH   6  19
ATOM     19  C6  4XV d   1       3.458  12.080  45.391  0.00  0.00    -0.045 C 
ATOM     20  H6  4XV d   1       3.973  11.141  45.643  0.00  0.00     0.033 H 
ATOM     21  H7  4XV d   1       2.382  11.974  45.593  0.00  0.00     0.033 H 
ATOM     22  H8  4XV d   1       3.867  12.898  46.002  0.00  0.00     0.033 H 
ENDBRANCH   6  19
TORSDOF 3
