REMARK  7 active torsions:
REMARK  status: ('A' for Active; 'I' for Inactive)
REMARK    1  A    between atoms: C3_1  and  N16_20 
REMARK    2  A    between atoms: C4_14  and  C5_2 
REMARK    3  A    between atoms: C9_4  and  C13_7 
REMARK    4  A    between atoms: C11_5  and  C14_19 
REMARK    5  A    between atoms: C15_8  and  C12_6 
REMARK    6  A    between atoms: N16_20  and  C15_8 
REMARK    7  A    between atoms: C1_12  and  C6_15 
ROOT
ATOM      1  C3  4Y2 d   1       4.514  12.257  45.175  0.00  0.00     0.135 A 
ATOM      2  C   4Y2 d   1       3.280  14.208  45.459  0.00  0.00     0.137 A 
ATOM      3  N   4Y2 d   1       3.397  14.521  44.178  0.00  0.00    -0.220 NA
ATOM      4  C1  4Y2 d   1       4.083  13.676  43.402  0.00  0.00     0.134 A 
ATOM      5  N2  4Y2 d   1       4.638  12.549  43.868  0.00  0.00    -0.215 NA
ATOM      6  C4  4Y2 d   1       3.823  13.088  46.035  0.00  0.00     0.024 A 
ATOM      7 CL   4Y2 d   1       2.375  15.363  46.361  0.00  0.00    -0.062 Cl
ENDROOT
BRANCH   1   8
ATOM      8  N16 4Y2 d   1       5.094  11.093  45.726  0.00  0.00    -0.369 N 
ATOM      9  H17 4Y2 d   1       5.023  10.838  46.721  0.00  0.00     0.161 HD
BRANCH   8  10
ATOM     10  C15 4Y2 d   1       5.798  10.297  44.744  0.00  0.00     0.026 C 
ATOM     11  H9  4Y2 d   1       5.861   9.268  45.127  0.00  0.00     0.072 H 
ATOM     12  H10 4Y2 d   1       5.207  10.307  43.816  0.00  0.00     0.072 H 
BRANCH  10  13
ATOM     13  C12 4Y2 d   1       7.168  10.740  44.412  0.00  0.00     0.026 A 
ATOM     14  C11 4Y2 d   1       8.110  10.096  43.645  0.00  0.00     0.046 A 
ATOM     15  N10 4Y2 d   1       9.292  10.776  43.542  0.00  0.00    -0.250 NA
ATOM     16  C9  4Y2 d   1       9.279  11.907  44.199  0.00  0.00     0.072 A 
ATOM     17  S   4Y2 d   1       7.801  12.230  45.003  0.00  0.00    -0.076 SA
BRANCH  14  18
ATOM     18  C14 4Y2 d   1       7.991   8.794  42.945  0.00  0.00    -0.034 C 
ATOM     19  H14 4Y2 d   1       8.932   8.572  42.421  0.00  0.00     0.035 H 
ATOM     20  H15 4Y2 d   1       7.169   8.843  42.216  0.00  0.00     0.035 H 
ATOM     21  H16 4Y2 d   1       7.784   8.001  43.678  0.00  0.00     0.035 H 
ENDBRANCH  14  18
BRANCH  16  22
ATOM     22  C13 4Y2 d   1      10.418  12.846  44.250  0.00  0.00    -0.029 C 
ATOM     23  H6  4Y2 d   1      11.256  12.437  43.667  0.00  0.00     0.036 H 
ATOM     24  H7  4Y2 d   1      10.732  12.985  45.295  0.00  0.00     0.036 H 
ATOM     25  H8  4Y2 d   1      10.114  13.815  43.826  0.00  0.00     0.036 H 
ENDBRANCH  16  22
ENDBRANCH  10  13
ENDBRANCH   8  10
ENDBRANCH   1   8
BRANCH   6  26
ATOM     26  C5  4Y2 d   1       3.629  12.826  47.496  0.00  0.00    -0.045 C 
ATOM     27  H1  4Y2 d   1       4.134  11.888  47.770  0.00  0.00     0.033 H 
ATOM     28  H2  4Y2 d   1       2.554  12.741  47.714  0.00  0.00     0.033 H 
ATOM     29  H3  4Y2 d   1       4.056  13.656  48.077  0.00  0.00     0.033 H 
ENDBRANCH   6  26
BRANCH   4  30
ATOM     30  C6  4Y2 d   1       4.221  14.014  41.974  0.00  0.00     0.006 A 
ATOM     31  C7  4Y2 d   1       3.123  14.747  41.258  0.00  0.00    -0.054 A 
ATOM     32  C8  4Y2 d   1       4.419  15.438  41.529  0.00  0.00    -0.054 A 
ATOM     33  H4  4Y2 d   1       2.216  15.047  41.804  0.00  0.00     0.034 H 
ATOM     34  H5  4Y2 d   1       2.855  14.466  40.229  0.00  0.00     0.034 H 
ATOM     35  H12 4Y2 d   1       4.466  16.245  42.275  0.00  0.00     0.034 H 
ATOM     36  H13 4Y2 d   1       5.105  15.664  40.700  0.00  0.00     0.034 H 
ATOM     37  H11 4Y2 d   1       4.763  13.204  41.463  0.00  0.00     0.052 H 
ENDBRANCH   4  30
TORSDOF 7
