REMARK  11 active torsions:
REMARK  status: ('A' for Active; 'I' for Inactive)
REMARK    1  A    between atoms: C3_1  and  N5_19 
REMARK    2  A    between atoms: N5_19  and  C7_2 
REMARK    3  A    between atoms: C7_2  and  C8_21 
REMARK    4  A    between atoms: C9_3  and  C13_6 
REMARK    5  A    between atoms: C11_4  and  C12_5 
REMARK    6  A    between atoms: C15_7  and  C14_23 
REMARK    7  A    between atoms: C16_24  and  C15_7 
REMARK    8  A    between atoms: O_13  and  C1_16 
REMARK    9  A    between atoms: C14_23  and  O_13 
REMARK   10  A    between atoms: C4_18  and  C6_20 
REMARK   11  A    between atoms: C16_24  and  C17_25 
ROOT
ATOM      1  C3  4XU d   1       9.071  38.327  60.369  0.00  0.00     0.137 A 
ATOM      2  C   4XU d   1       7.470  37.091  61.522  0.00  0.00     0.140 A 
ATOM      3  N   4XU d   1       6.685  36.894  60.458  0.00  0.00    -0.194 NA
ATOM      4 CL   4XU d   1       6.876  36.422  62.970  0.00  0.00    -0.062 Cl
ATOM      5  C1  4XU d   1       7.205  37.449  59.362  0.00  0.00     0.271 A 
ATOM      6  N2  4XU d   1       8.340  38.137  59.267  0.00  0.00    -0.189 NA
ATOM      7  C4  4XU d   1       8.653  37.792  61.560  0.00  0.00     0.024 A 
ENDROOT
BRANCH   5   8
ATOM      8  O   4XU d   1       6.583  37.357  58.130  0.00  0.00    -0.319 OA
BRANCH   8   9
ATOM      9  C14 4XU d   1       5.435  36.523  58.195  0.00  0.00     0.029 C 
ATOM     10  H16 4XU d   1       5.727  35.476  58.363  0.00  0.00     0.075 H 
ATOM     11  H17 4XU d   1       4.765  36.851  59.003  0.00  0.00     0.075 H 
BRANCH   9  12
ATOM     12  C15 4XU d   1       4.757  36.677  56.845  0.00  0.00    -0.040 C 
ATOM     13  H9  4XU d   1       5.434  37.188  56.145  0.00  0.00     0.036 H 
ATOM     14  H10 4XU d   1       3.834  37.265  56.958  0.00  0.00     0.036 H 
BRANCH  12  15
ATOM     15  C16 4XU d   1       4.423  35.299  56.317  0.00  0.00    -0.023 C 
ATOM     16  H18 4XU d   1       4.211  34.635  57.168  0.00  0.00     0.042 H 
ATOM     17  H19 4XU d   1       5.288  34.914  55.758  0.00  0.00     0.042 H 
BRANCH  15  18
ATOM     18  C17 4XU d   1       3.233  35.318  55.411  0.00  0.00     0.035 A 
ATOM     19  C18 4XU d   1       3.398  34.803  54.140  0.00  0.00    -0.058 A 
ATOM     20  C19 4XU d   1       2.321  34.796  53.285  0.00  0.00    -0.069 A 
ATOM     21  H11 4XU d   1       4.358  34.412  53.823  0.00  0.00     0.086 H 
ATOM     22  C20 4XU d   1       1.121  35.296  53.741  0.00  0.00    -0.007 A 
ATOM     23  H20 4XU d   1       2.414  34.407  52.278  0.00  0.00     0.085 H 
ATOM     24  C21 4XU d   1       1.023  35.791  55.034  0.00  0.00     0.067 A 
ATOM     25  C23 4XU d   1       0.041  35.270  52.895  0.00  0.00    -0.071 A 
ATOM     26  N22 4XU d   1       2.071  35.812  55.872  0.00  0.00    -0.253 NA
ATOM     27  C26 4XU d   1      -0.192  36.301  55.435  0.00  0.00    -0.054 A 
ATOM     28  C25 4XU d   1      -1.278  36.311  54.590  0.00  0.00    -0.081 A 
ATOM     29  H24 4XU d   1      -0.295  36.703  56.437  0.00  0.00     0.087 H 
ATOM     30  C24 4XU d   1      -1.168  35.776  53.328  0.00  0.00    -0.082 A 
ATOM     31  H23 4XU d   1      -2.218  36.740  54.918  0.00  0.00     0.083 H 
ATOM     32  H22 4XU d   1      -2.031  35.752  52.673  0.00  0.00     0.083 H 
ATOM     33  H21 4XU d   1       0.136  34.857  51.898  0.00  0.00     0.084 H 
ENDBRANCH  15  18
ENDBRANCH  12  15
ENDBRANCH   9  12
ENDBRANCH   8   9
ENDBRANCH   5   8
BRANCH   1  34
ATOM     34  N5  4XU d   1      10.272  39.083  60.344  0.00  0.00    -0.369 N 
ATOM     35  H12 4XU d   1      10.905  39.159  61.153  0.00  0.00     0.161 HD
BRANCH  34  36
ATOM     36  C7  4XU d   1      10.528  39.740  59.073  0.00  0.00     0.026 C 
ATOM     37  H1  4XU d   1      10.275  39.017  58.283  0.00  0.00     0.072 H 
ATOM     38  H2  4XU d   1      11.605  39.959  59.038  0.00  0.00     0.072 H 
BRANCH  36  39
ATOM     39  C8  4XU d   1       9.817  41.008  58.743  0.00  0.00     0.026 A 
ATOM     40  C11 4XU d   1      10.083  41.907  57.732  0.00  0.00     0.046 A 
ATOM     41  N10 4XU d   1       9.236  42.978  57.648  0.00  0.00    -0.250 NA
ATOM     42  C9  4XU d   1       8.321  42.912  58.588  0.00  0.00     0.072 A 
ATOM     43  S   4XU d   1       8.446  41.554  59.620  0.00  0.00    -0.076 SA
BRANCH  40  44
ATOM     44  C12 4XU d   1      11.172  41.803  56.737  0.00  0.00    -0.034 C 
ATOM     45  H3  4XU d   1      11.132  42.668  56.058  0.00  0.00     0.035 H 
ATOM     46  H4  4XU d   1      11.052  40.876  56.157  0.00  0.00     0.035 H 
ATOM     47  H5  4XU d   1      12.142  41.788  57.255  0.00  0.00     0.035 H 
ENDBRANCH  40  44
BRANCH  42  48
ATOM     48  C13 4XU d   1       7.245  43.896  58.815  0.00  0.00    -0.029 C 
ATOM     49  H6  4XU d   1       7.316  44.697  58.064  0.00  0.00     0.036 H 
ATOM     50  H7  4XU d   1       7.349  44.328  59.822  0.00  0.00     0.036 H 
ATOM     51  H8  4XU d   1       6.268  43.398  58.729  0.00  0.00     0.036 H 
ENDBRANCH  42  48
ENDBRANCH  36  39
ENDBRANCH  34  36
ENDBRANCH   1  34
BRANCH   7  52
ATOM     52  C6  4XU d   1       9.419  37.958  62.827  0.00  0.00    -0.045 C 
ATOM     53  H13 4XU d   1      10.327  38.548  62.632  0.00  0.00     0.033 H 
ATOM     54  H14 4XU d   1       9.701  36.969  63.217  0.00  0.00     0.033 H 
ATOM     55  H15 4XU d   1       8.795  38.480  63.567  0.00  0.00     0.033 H 
ENDBRANCH   7  52
TORSDOF 11
