REMARK  10 active torsions:
REMARK  status: ('A' for Active; 'I' for Inactive)
REMARK    1  A    between atoms: PA_1  and  O3A_4 
REMARK    2  A    between atoms: PA_1  and  O5'_13 
REMARK    3  A    between atoms: O3A_4  and  PB_5 
REMARK    4  A    between atoms: PB_5  and  O3B_8 
REMARK    5  A    between atoms: O3B_8  and  PG_9 
REMARK    6  A    between atoms: O5'_13  and  C5'_14 
REMARK    7  A    between atoms: C5'_14  and  C4'_15 
REMARK    8  A    between atoms: C3'_17  and  O3'_18 
REMARK    9  A    between atoms: C1'_20  and  N1_21 
REMARK   10  A    between atoms: C5_27  and  C5M_28 
ROOT
ATOM      1  C4' TTP d   1      68.845  59.947  39.123  0.00  0.00     0.087 C 
ATOM      2  O4' TTP d   1      68.765  60.001  40.550  0.00  0.00    -0.356 OA
ATOM      3  C3' TTP d   1      70.235  60.418  38.761  0.00  0.00     0.066 C 
ATOM      4  C2' TTP d   1      71.039  60.372  40.050  0.00  0.00     0.002 C 
ATOM      5  C1' TTP d   1      69.981  60.470  41.137  0.00  0.00     0.116 C 
ATOM      6  H3  TTP d   1      68.089  60.611  38.678  0.00  0.00     0.090 H 
ATOM      7  H4  TTP d   1      70.691  59.809  37.966  0.00  0.00     0.087 H 
ATOM      8  H6  TTP d   1      71.739  61.219  40.106  0.00  0.00     0.043 H 
ATOM      9  H7  TTP d   1      71.598  59.428  40.130  0.00  0.00     0.043 H 
ATOM     10  H8  TTP d   1      69.862  61.525  41.424  0.00  0.00     0.118 H 
ENDROOT
BRANCH   1  11
ATOM     11  C5' TTP d   1      68.633  58.528  38.612  0.00  0.00     0.058 C 
ATOM     12  H1  TTP d   1      68.200  58.573  37.602  0.00  0.00     0.079 H 
ATOM     13  H2  TTP d   1      69.605  58.014  38.572  0.00  0.00     0.079 H 
BRANCH  11  14
ATOM     14  O5' TTP d   1      67.754  57.791  39.460  0.00  0.00    -0.287 OA
BRANCH  14  15
ATOM     15  PA  TTP d   1      67.027  56.462  38.880  0.00  0.00     0.417 P 
ATOM     16  O1A TTP d   1      66.632  56.695  37.438  0.00  0.00    -0.624 OA
ATOM     17  O2A TTP d   1      65.812  56.083  39.704  0.00  0.00    -0.624 OA
BRANCH  15  18
ATOM     18  O3A TTP d   1      68.209  55.357  39.085  0.00  0.00    -0.180 OA
BRANCH  18  19
ATOM     19  PB  TTP d   1      68.606  54.158  38.062  0.00  0.00     0.428 P 
ATOM     20  O1B TTP d   1      67.591  54.027  36.930  0.00  0.00    -0.624 OA
ATOM     21  O2B TTP d   1      68.779  52.835  38.782  0.00  0.00    -0.624 OA
BRANCH  19  22
ATOM     22  O3B TTP d   1      70.081  54.590  37.541  0.00  0.00    -0.173 OA
BRANCH  22  23
ATOM     23  PG  TTP d   1      70.384  55.441  36.190  0.00  0.00     0.431 P 
ATOM     24  O1G TTP d   1      71.047  54.519  35.185  0.00  0.00    -0.616 OA
ATOM     25  O2G TTP d   1      71.325  56.573  36.545  0.00  0.00    -0.616 OA
ATOM     26  O3G TTP d   1      69.121  56.081  35.643  0.00  0.00    -0.616 OA
ENDBRANCH  22  23
ENDBRANCH  19  22
ENDBRANCH  18  19
ENDBRANCH  15  18
ENDBRANCH  14  15
ENDBRANCH  11  14
ENDBRANCH   1  11
BRANCH   3  27
ATOM     27  O3' TTP d   1      70.107  61.782  38.383  0.00  0.00    -0.393 OA
ATOM     28  H5  TTP d   1      69.519  61.850  37.640  0.00  0.00     0.210 HD
ENDBRANCH   3  27
BRANCH   5  29
ATOM     29  N1  TTP d   1      70.322  59.704  42.357  0.00  0.00    -0.282 N 
ATOM     30  C2  TTP d   1      71.254  60.267  43.275  0.00  0.00     0.331 A 
ATOM     31  O2  TTP d   1      71.767  61.386  43.022  0.00  0.00    -0.246 OA
ATOM     32  N3  TTP d   1      71.593  59.631  44.422  0.00  0.00    -0.275 N 
ATOM     33  C4  TTP d   1      71.059  58.433  44.718  0.00  0.00     0.256 A 
ATOM     34  H9  TTP d   1      72.244  60.055  45.052  0.00  0.00     0.173 HD
ATOM     35  O4  TTP d   1      71.377  57.851  45.781  0.00  0.00    -0.267 OA
ATOM     36  C5  TTP d   1      70.085  57.808  43.767  0.00  0.00     0.022 A 
ATOM     37  C6  TTP d   1      69.756  58.504  42.602  0.00  0.00    -0.002 A 
ATOM     38  H13 TTP d   1      69.045  58.080  41.894  0.00  0.00     0.113 H 
BRANCH  36  39
ATOM     39  C5M TTP d   1      69.463  56.460  44.077  0.00  0.00    -0.045 C 
ATOM     40  H10 TTP d   1      68.781  56.175  43.263  0.00  0.00     0.033 H 
ATOM     41  H11 TTP d   1      68.901  56.524  45.021  0.00  0.00     0.033 H 
ATOM     42  H12 TTP d   1      70.256  55.703  44.172  0.00  0.00     0.033 H 
ENDBRANCH  36  39
ENDBRANCH   5  29
TORSDOF 10
