REMARK  4 active torsions:
REMARK  status: ('A' for Active; 'I' for Inactive)
REMARK    1  A    between atoms: C1_1  and  C2_4 
REMARK    2  A    between atoms: C2_4  and  C3_6 
REMARK    3  A    between atoms: C3_6  and  C4_7 
REMARK    4  A    between atoms: C4_7  and  C5_8 
ROOT
ATOM      1  C3  AKG d   1      19.768  20.895  95.423  0.00  0.00     0.010 C 
ATOM      2  H1  AKG d   1      20.864  20.833  95.349  0.00  0.00     0.045 H 
ATOM      3  H2  AKG d   1      19.438  20.441  96.369  0.00  0.00     0.045 H 
ENDROOT
BRANCH   1   4
ATOM      4  C2  AKG d   1      19.154  20.127  94.270  0.00  0.00     0.225 C 
ATOM      5  O5  AKG d   1      18.662  20.724  93.313  0.00  0.00    -0.286 OA
BRANCH   4   6
ATOM      6  C1  AKG d   1      19.152  18.654  94.303  0.00  0.00     0.246 C 
ATOM      7  O1  AKG d   1      18.444  18.042  93.473  0.00  0.00    -0.642 OA
ATOM      8  O2  AKG d   1      19.856  18.036  95.138  0.00  0.00    -0.642 OA
ENDBRANCH   4   6
ENDBRANCH   1   4
BRANCH   1   9
ATOM      9  C4  AKG d   1      19.354  22.363  95.409  0.00  0.00     0.022 C 
ATOM     10  H3  AKG d   1      18.257  22.419  95.350  0.00  0.00     0.049 H 
ATOM     11  H4  AKG d   1      19.793  22.844  94.523  0.00  0.00     0.049 H 
BRANCH   9  12
ATOM     12  C5  AKG d   1      19.811  23.110  96.641  0.00  0.00     0.172 C 
ATOM     13  O3  AKG d   1      19.283  24.218  96.869  0.00  0.00    -0.648 OA
ATOM     14  O4  AKG d   1      20.711  22.639  97.371  0.00  0.00    -0.648 OA
ENDBRANCH   9  12
ENDBRANCH   1   9
TORSDOF 4
