REMARK  4 active torsions:
REMARK  status: ('A' for Active; 'I' for Inactive)
REMARK    1  A    between atoms: C1_1  and  C2_4 
REMARK    2  A    between atoms: C2_4  and  C3_6 
REMARK    3  A    between atoms: C3_6  and  C4_7 
REMARK    4  A    between atoms: C4_7  and  C5_8 
ROOT
ATOM      1  C3  AKG d   1     -11.362  19.236 -10.165  0.00  0.00     0.010 C 
ATOM      2  H1  AKG d   1     -10.698  19.473 -11.009  0.00  0.00     0.045 H 
ATOM      3  H2  AKG d   1     -11.002  19.747  -9.260  0.00  0.00     0.045 H 
ENDROOT
BRANCH   1   4
ATOM      4  C2  AKG d   1     -11.331  17.718  -9.922  0.00  0.00     0.225 C 
ATOM      5  O5  AKG d   1     -12.298  17.023 -10.077  0.00  0.00    -0.286 OA
BRANCH   4   6
ATOM      6  C1  AKG d   1     -10.055  17.051  -9.489  0.00  0.00     0.246 C 
ATOM      7  O1  AKG d   1      -8.949  17.663  -9.603  0.00  0.00    -0.642 OA
ATOM      8  O2  AKG d   1     -10.044  15.851  -9.107  0.00  0.00    -0.642 OA
ENDBRANCH   4   6
ENDBRANCH   1   4
BRANCH   1   9
ATOM      9  C4  AKG d   1     -12.748  19.734 -10.484  0.00  0.00     0.022 C 
ATOM     10  H3  AKG d   1     -13.337  19.760  -9.555  0.00  0.00     0.049 H 
ATOM     11  H4  AKG d   1     -13.218  19.040 -11.196  0.00  0.00     0.049 H 
BRANCH   9  12
ATOM     12  C5  AKG d   1     -12.737  21.114 -11.089  0.00  0.00     0.172 C 
ATOM     13  O3  AKG d   1     -11.716  21.530 -11.704  0.00  0.00    -0.648 OA
ATOM     14  O4  AKG d   1     -13.759  21.853 -10.950  0.00  0.00    -0.648 OA
ENDBRANCH   9  12
ENDBRANCH   1   9
TORSDOF 4
