REMARK  12 active torsions:
REMARK  status: ('A' for Active; 'I' for Inactive)
REMARK    1  A    between atoms: C11_3  and  C12_7 
REMARK    2  A    between atoms: C11_3  and  C13_8 
REMARK    3  A    between atoms: N10_13  and  C11_3 
REMARK    4  A    between atoms: C7_4  and  N14_14 
REMARK    5  A    between atoms: C2_11  and  C1_10 
REMARK    6  A    between atoms: N14_14  and  C15_15 
REMARK    7  A    between atoms: C19_19  and  N21_21 
REMARK    8  A    between atoms: C24_24  and  C27_27 
REMARK    9  A    between atoms: C24_24  and  O30_30 
REMARK   10  A    between atoms: C27_27  and  C28_28 
REMARK   11  A    between atoms: C28_28  and  N29_29 
REMARK   12  A    between atoms: O30_30  and  C31_31 
ROOT
ATOM      1  C15 4YX d   1     -54.786   1.117 -24.482  0.00  0.00     0.149 A 
ATOM      2  C16 4YX d   1     -55.927   1.206 -25.285  0.00  0.00    -0.020 A 
ATOM      3  C17 4YX d   1     -55.987   0.384 -26.402  0.00  0.00     0.025 A 
ATOM      4  N18 4YX d   1     -54.971  -0.431 -26.658  0.00  0.00    -0.075 NA
ATOM      5  C19 4YX d   1     -53.891  -0.473 -25.891  0.00  0.00     0.726 A 
ATOM      6  N20 4YX d   1     -53.800   0.286 -24.816  0.00  0.00    -0.045 NA
ATOM      7  H14 4YX d   1     -56.733   1.890 -25.045  0.00  0.00     0.091 H 
ATOM      8  H15 4YX d   1     -56.851   0.407 -27.056  0.00  0.00     0.115 H 
ENDROOT
BRANCH   5   9
ATOM      9  N21 4YX d   1     -52.852  -1.345 -26.179  0.00  0.00    -0.214 N 
ATOM     10  C22 4YX d   1     -52.566  -1.657 -27.597  0.00  0.00     0.014 C 
ATOM     11  C23 4YX d   1     -51.931  -3.049 -27.618  0.00  0.00    -0.021 C 
ATOM     12  H16 4YX d   1     -51.870  -0.916 -28.016  0.00  0.00     0.065 H 
ATOM     13  H17 4YX d   1     -53.498  -1.656 -28.181  0.00  0.00     0.065 H 
ATOM     14  C24 4YX d   1     -50.676  -3.108 -26.717  0.00  0.00     0.065 C 
ATOM     15  H18 4YX d   1     -51.643  -3.296 -28.651  0.00  0.00     0.039 H 
ATOM     16  H19 4YX d   1     -52.666  -3.784 -27.257  0.00  0.00     0.039 H 
ATOM     17  C25 4YX d   1     -50.932  -2.540 -25.300  0.00  0.00    -0.021 C 
ATOM     18  C26 4YX d   1     -51.646  -1.169 -25.354  0.00  0.00     0.014 C 
ATOM     19  H20 4YX d   1     -49.968  -2.420 -24.785  0.00  0.00     0.039 H 
ATOM     20  H21 4YX d   1     -51.561  -3.248 -24.740  0.00  0.00     0.039 H 
ATOM     21  H22 4YX d   1     -51.925  -0.848 -24.340  0.00  0.00     0.065 H 
ATOM     22  H23 4YX d   1     -50.984  -0.416 -25.807  0.00  0.00     0.065 H 
BRANCH  14  23
ATOM     23  C27 4YX d   1     -50.263  -4.579 -26.557  0.00  0.00    -0.014 C 
ATOM     24  H24 4YX d   1     -51.139  -5.171 -26.256  0.00  0.00     0.039 H 
ATOM     25  H25 4YX d   1     -49.485  -4.655 -25.783  0.00  0.00     0.039 H 
BRANCH  23  26
ATOM     26  C28 4YX d   1     -49.713  -5.127 -27.885  0.00  0.00     0.082 C 
ATOM     27  H26 4YX d   1     -48.911  -4.465 -28.243  0.00  0.00     0.075 H 
ATOM     28  H27 4YX d   1     -50.525  -5.154 -28.627  0.00  0.00     0.075 H 
BRANCH  26  29
ATOM     29  N29 4YX d   1     -49.176  -6.481 -27.712  0.00  0.00    -0.079 N 
ATOM     30  H28 4YX d   1     -48.822  -6.817 -28.594  0.00  0.00     0.274 HD
ATOM     31  H29 4YX d   1     -49.908  -7.094 -27.388  0.00  0.00     0.274 HD
ATOM     32  H30 4YX d   1     -48.429  -6.462 -27.036  0.00  0.00     0.274 HD
ENDBRANCH  26  29
ENDBRANCH  23  26
ENDBRANCH  14  23
BRANCH  14  33
ATOM     33  O30 4YX d   1     -49.649  -2.351 -27.394  0.00  0.00    -0.385 OA
BRANCH  33  34
ATOM     34  C31 4YX d   1     -48.432  -2.084 -26.681  0.00  0.00     0.005 C 
ATOM     35  H31 4YX d   1     -47.752  -1.503 -27.321  0.00  0.00     0.066 H 
ATOM     36  H32 4YX d   1     -47.953  -3.035 -26.405  0.00  0.00     0.066 H 
ATOM     37  H33 4YX d   1     -48.659  -1.510 -25.771  0.00  0.00     0.066 H 
ENDBRANCH  33  34
ENDBRANCH  14  33
ENDBRANCH   5   9
BRANCH   1  38
ATOM     38  N14 4YX d   1     -54.696   1.935 -23.378  0.00  0.00    -0.325 N 
ATOM     39  H13 4YX d   1     -55.199   2.833 -23.424  0.00  0.00     0.169 HD
BRANCH  38  40
ATOM     40  C7  4YX d   1     -53.997   1.670 -22.213  0.00  0.00     0.131 A 
ATOM     41  C8  4YX d   1     -53.006   0.700 -22.134  0.00  0.00    -0.010 A 
ATOM     42  C9  4YX d   1     -52.366   0.534 -20.895  0.00  0.00     0.070 A 
ATOM     43  H3  4YX d   1     -52.738   0.096 -22.993  0.00  0.00     0.093 H 
ATOM     44  C4  4YX d   1     -52.730   1.340 -19.787  0.00  0.00     0.103 A 
ATOM     45  N10 4YX d   1     -51.389  -0.307 -20.431  0.00  0.00    -0.329 N 
ATOM     46  C5  4YX d   1     -53.719   2.297 -19.976  0.00  0.00     0.034 A 
ATOM     47  N3  4YX d   1     -51.962   0.961 -18.729  0.00  0.00    -0.232 NA
ATOM     48  N6  4YX d   1     -54.305   2.429 -21.160  0.00  0.00    -0.241 NA
ATOM     49  H1  4YX d   1     -54.014   2.939 -19.153  0.00  0.00     0.118 H 
ATOM     50  C2  4YX d   1     -51.181  -0.015 -19.096  0.00  0.00     0.103 A 
BRANCH  50  51
ATOM     51  C1  4YX d   1     -50.214  -0.647 -18.126  0.00  0.00    -0.021 C 
ATOM     52  H10 4YX d   1     -50.316  -0.167 -17.141  0.00  0.00     0.037 H 
ATOM     53  H11 4YX d   1     -49.186  -0.514 -18.494  0.00  0.00     0.037 H 
ATOM     54  H12 4YX d   1     -50.435  -1.721 -18.035  0.00  0.00     0.037 H 
ENDBRANCH  50  51
BRANCH  45  55
ATOM     55  C11 4YX d   1     -50.784  -1.278 -21.336  0.00  0.00     0.011 C 
ATOM     56  H2  4YX d   1     -51.322  -1.105 -22.279  0.00  0.00     0.072 H 
BRANCH  55  57
ATOM     57  C12 4YX d   1     -49.345  -0.935 -21.697  0.00  0.00    -0.057 C 
ATOM     58  H4  4YX d   1     -48.946  -1.700 -22.378  0.00  0.00     0.030 H 
ATOM     59  H5  4YX d   1     -48.735  -0.904 -20.782  0.00  0.00     0.030 H 
ATOM     60  H6  4YX d   1     -49.315   0.047 -22.191  0.00  0.00     0.030 H 
ENDBRANCH  55  57
BRANCH  55  61
ATOM     61  C13 4YX d   1     -51.086  -2.742 -21.057  0.00  0.00    -0.057 C 
ATOM     62  H7  4YX d   1     -52.152  -2.856 -20.810  0.00  0.00     0.030 H 
ATOM     63  H8  4YX d   1     -50.475  -3.088 -20.210  0.00  0.00     0.030 H 
ATOM     64  H9  4YX d   1     -50.850  -3.341 -21.949  0.00  0.00     0.030 H 
ENDBRANCH  55  61
ENDBRANCH  45  55
ENDBRANCH  38  40
ENDBRANCH   1  38
TORSDOF 12
