REMARK  13 active torsions:
REMARK  status: ('A' for Active; 'I' for Inactive)
REMARK    1  A    between atoms: C11_3  and  C12_7 
REMARK    2  A    between atoms: C11_3  and  C13_8 
REMARK    3  A    between atoms: N10_13  and  C11_3 
REMARK    4  A    between atoms: C7_4  and  N14_14 
REMARK    5  A    between atoms: C2_11  and  C1_10 
REMARK    6  A    between atoms: N14_14  and  C15_15 
REMARK    7  A    between atoms: C19_19  and  O21_21 
REMARK    8  A    between atoms: O21_21  and  C22_22 
REMARK    9  A    between atoms: C22_22  and  C23_23 
REMARK   10  A    between atoms: C23_23  and  C24_24 
REMARK   11  A    between atoms: C23_23  and  C25_25 
REMARK   12  A    between atoms: C23_23  and  S26_26 
REMARK   13  A    between atoms: S26_26  and  C29_29 
ROOT
ATOM      1  C15 4ZH d   1     -56.160   1.208 -25.797  0.00  0.00     0.134 A 
ATOM      2  C16 4ZH d   1     -57.213   1.160 -26.744  0.00  0.00    -0.021 A 
ATOM      3  C17 4ZH d   1     -57.107   0.209 -27.775  0.00  0.00     0.010 A 
ATOM      4  N18 4ZH d   1     -56.025  -0.606 -27.856  0.00  0.00    -0.219 NA
ATOM      5  C19 4ZH d   1     -55.079  -0.533 -26.917  0.00  0.00     0.270 A 
ATOM      6  N20 4ZH d   1     -55.137   0.375 -25.949  0.00  0.00    -0.189 NA
ATOM      7  H14 4ZH d   1     -58.064   1.828 -26.677  0.00  0.00     0.091 H 
ATOM      8  H15 4ZH d   1     -57.898   0.126 -28.512  0.00  0.00     0.115 H 
ENDROOT
BRANCH   1   9
ATOM      9  N14 4ZH d   1     -56.143   2.063 -24.705  0.00  0.00    -0.325 N 
ATOM     10  H13 4ZH d   1     -56.648   2.957 -24.791  0.00  0.00     0.169 HD
BRANCH   9  11
ATOM     11  C7  4ZH d   1     -55.483   1.798 -23.480  0.00  0.00     0.131 A 
ATOM     12  C8  4ZH d   1     -54.494   0.809 -23.350  0.00  0.00    -0.010 A 
ATOM     13  C9  4ZH d   1     -53.887   0.584 -22.108  0.00  0.00     0.070 A 
ATOM     14  H3  4ZH d   1     -54.200   0.220 -24.211  0.00  0.00     0.093 H 
ATOM     15  C4  4ZH d   1     -54.269   1.393 -21.015  0.00  0.00     0.103 A 
ATOM     16  N10 4ZH d   1     -52.932  -0.292 -21.626  0.00  0.00    -0.329 N 
ATOM     17  C5  4ZH d   1     -55.237   2.387 -21.228  0.00  0.00     0.034 A 
ATOM     18  N3  4ZH d   1     -53.540   0.972 -19.947  0.00  0.00    -0.232 NA
ATOM     19  N6  4ZH d   1     -55.798   2.548 -22.419  0.00  0.00    -0.241 NA
ATOM     20  H1  4ZH d   1     -55.530   3.032 -20.408  0.00  0.00     0.118 H 
ATOM     21  C2  4ZH d   1     -52.750  -0.006 -20.289  0.00  0.00     0.103 A 
BRANCH  21  22
ATOM     22  C1  4ZH d   1     -51.803  -0.669 -19.307  0.00  0.00    -0.021 C 
ATOM     23  H10 4ZH d   1     -51.910  -0.198 -18.319  0.00  0.00     0.037 H 
ATOM     24  H11 4ZH d   1     -50.768  -0.550 -19.659  0.00  0.00     0.037 H 
ATOM     25  H12 4ZH d   1     -52.044  -1.740 -19.231  0.00  0.00     0.037 H 
ENDBRANCH  21  22
BRANCH  16  26
ATOM     26  C11 4ZH d   1     -52.258  -1.276 -22.491  0.00  0.00     0.011 C 
ATOM     27  H2  4ZH d   1     -52.757  -1.038 -23.442  0.00  0.00     0.072 H 
BRANCH  26  28
ATOM     28  C12 4ZH d   1     -52.697  -2.729 -22.360  0.00  0.00    -0.057 C 
ATOM     29  H4  4ZH d   1     -52.117  -3.351 -23.058  0.00  0.00     0.030 H 
ATOM     30  H5  4ZH d   1     -53.768  -2.811 -22.598  0.00  0.00     0.030 H 
ATOM     31  H6  4ZH d   1     -52.523  -3.073 -21.330  0.00  0.00     0.030 H 
ENDBRANCH  26  28
BRANCH  26  32
ATOM     32  C13 4ZH d   1     -50.816  -0.972 -22.906  0.00  0.00    -0.057 C 
ATOM     33  H7  4ZH d   1     -50.669   0.117 -22.952  0.00  0.00     0.030 H 
ATOM     34  H8  4ZH d   1     -50.619  -1.410 -23.895  0.00  0.00     0.030 H 
ATOM     35  H9  4ZH d   1     -50.123  -1.404 -22.169  0.00  0.00     0.030 H 
ENDBRANCH  26  32
ENDBRANCH  16  26
ENDBRANCH   9  11
ENDBRANCH   1   9
BRANCH   5  36
ATOM     36  O21 4ZH d   1     -53.914  -1.209 -26.940  0.00  0.00    -0.317 OA
BRANCH  36  37
ATOM     37  C22 4ZH d   1     -53.785  -2.597 -27.158  0.00  0.00     0.048 C 
ATOM     38  H16 4ZH d   1     -54.474  -2.916 -27.953  0.00  0.00     0.077 H 
ATOM     39  H17 4ZH d   1     -54.015  -3.144 -26.232  0.00  0.00     0.077 H 
BRANCH  37  40
ATOM     40  C23 4ZH d   1     -52.344  -2.872 -27.579  0.00  0.00     0.078 C 
BRANCH  40  41
ATOM     41  C24 4ZH d   1     -51.379  -2.798 -26.389  0.00  0.00    -0.054 C 
ATOM     42  H18 4ZH d   1     -51.728  -3.471 -25.592  0.00  0.00     0.029 H 
ATOM     43  H19 4ZH d   1     -51.344  -1.766 -26.009  0.00  0.00     0.029 H 
ATOM     44  H20 4ZH d   1     -50.373  -3.104 -26.713  0.00  0.00     0.029 H 
ENDBRANCH  40  41
BRANCH  40  45
ATOM     45  C25 4ZH d   1     -52.407  -4.334 -28.024  0.00  0.00    -0.054 C 
ATOM     46  H21 4ZH d   1     -52.746  -4.958 -27.184  0.00  0.00     0.029 H 
ATOM     47  H22 4ZH d   1     -51.408  -4.663 -28.346  0.00  0.00     0.029 H 
ATOM     48  H23 4ZH d   1     -53.113  -4.432 -28.862  0.00  0.00     0.029 H 
ENDBRANCH  40  45
BRANCH  40  49
ATOM     49  S26 4ZH d   1     -51.784  -1.755 -28.928  0.00  0.00     0.150 S 
ATOM     50  O27 4ZH d   1     -52.829  -1.552 -29.871  0.00  0.00    -0.227 OA
ATOM     51  O28 4ZH d   1     -50.555  -2.250 -29.416  0.00  0.00    -0.227 OA
BRANCH  49  52
ATOM     52  C29 4ZH d   1     -51.492  -0.130 -28.222  0.00  0.00     0.016 C 
ATOM     53  H24 4ZH d   1     -51.155   0.558 -29.012  0.00  0.00     0.049 H 
ATOM     54  H25 4ZH d   1     -50.718  -0.202 -27.444  0.00  0.00     0.049 H 
ATOM     55  H26 4ZH d   1     -52.424   0.250 -27.778  0.00  0.00     0.049 H 
ENDBRANCH  49  52
ENDBRANCH  40  49
ENDBRANCH  37  40
ENDBRANCH  36  37
ENDBRANCH   5  36
TORSDOF 13
