REMARK  9 active torsions:
REMARK  status: ('A' for Active; 'I' for Inactive)
REMARK    1  A    between atoms: C11_3  and  C12_7 
REMARK    2  A    between atoms: C11_3  and  C13_8 
REMARK    3  A    between atoms: N10_13  and  C11_3 
REMARK    4  A    between atoms: C7_4  and  N14_14 
REMARK    5  A    between atoms: C2_11  and  C1_10 
REMARK    6  A    between atoms: N14_14  and  C15_15 
REMARK    7  A    between atoms: C19_19  and  N21_21 
REMARK    8  A    between atoms: C24_24  and  O28_28 
REMARK    9  A    between atoms: O28_28  and  C29_29 
ROOT
ATOM      1  C15 4ZJ d   1     -54.772   1.186 -24.344  0.00  0.00     0.149 A 
ATOM      2  C16 4ZJ d   1     -55.933   1.257 -25.135  0.00  0.00    -0.020 A 
ATOM      3  C17 4ZJ d   1     -56.055   0.400 -26.220  0.00  0.00     0.025 A 
ATOM      4  N18 4ZJ d   1     -55.070  -0.461 -26.471  0.00  0.00    -0.075 NA
ATOM      5  C19 4ZJ d   1     -53.973  -0.535 -25.703  0.00  0.00     0.726 A 
ATOM      6  N20 4ZJ d   1     -53.826   0.299 -24.668  0.00  0.00    -0.045 NA
ATOM      7  H14 4ZJ d   1     -56.718   1.968 -24.902  0.00  0.00     0.091 H 
ATOM      8  H15 4ZJ d   1     -56.936   0.431 -26.852  0.00  0.00     0.115 H 
ENDROOT
BRANCH   1   9
ATOM      9  N14 4ZJ d   1     -54.632   2.042 -23.253  0.00  0.00    -0.325 N 
ATOM     10  H13 4ZJ d   1     -55.048   2.979 -23.349  0.00  0.00     0.169 HD
BRANCH   9  11
ATOM     11  C7  4ZJ d   1     -53.986   1.765 -22.039  0.00  0.00     0.131 A 
ATOM     12  C8  4ZJ d   1     -52.967   0.826 -21.958  0.00  0.00    -0.010 A 
ATOM     13  C9  4ZJ d   1     -52.336   0.606 -20.733  0.00  0.00     0.070 A 
ATOM     14  H3  4ZJ d   1     -52.664   0.269 -22.837  0.00  0.00     0.093 H 
ATOM     15  C4  4ZJ d   1     -52.716   1.373 -19.611  0.00  0.00     0.103 A 
ATOM     16  N10 4ZJ d   1     -51.330  -0.234 -20.318  0.00  0.00    -0.329 N 
ATOM     17  C5  4ZJ d   1     -53.712   2.338 -19.785  0.00  0.00     0.034 A 
ATOM     18  N3  4ZJ d   1     -51.931   0.962 -18.580  0.00  0.00    -0.232 NA
ATOM     19  N6  4ZJ d   1     -54.314   2.482 -20.961  0.00  0.00    -0.241 NA
ATOM     20  H1  4ZJ d   1     -53.996   2.974 -18.954  0.00  0.00     0.118 H 
ATOM     21  C2  4ZJ d   1     -51.109   0.031 -18.977  0.00  0.00     0.103 A 
BRANCH  21  22
ATOM     22  C1  4ZJ d   1     -50.127  -0.615 -18.030  0.00  0.00    -0.021 C 
ATOM     23  H10 4ZJ d   1     -50.222  -0.157 -17.035  0.00  0.00     0.037 H 
ATOM     24  H11 4ZJ d   1     -49.104  -0.467 -18.405  0.00  0.00     0.037 H 
ATOM     25  H12 4ZJ d   1     -50.340  -1.692 -17.960  0.00  0.00     0.037 H 
ENDBRANCH  21  22
BRANCH  16  26
ATOM     26  C11 4ZJ d   1     -50.712  -1.174 -21.266  0.00  0.00     0.011 C 
ATOM     27  H2  4ZJ d   1     -51.169  -0.872 -22.220  0.00  0.00     0.072 H 
BRANCH  26  28
ATOM     28  C12 4ZJ d   1     -51.202  -2.619 -21.134  0.00  0.00    -0.057 C 
ATOM     29  H4  4ZJ d   1     -50.691  -3.249 -21.877  0.00  0.00     0.030 H 
ATOM     30  H5  4ZJ d   1     -52.288  -2.655 -21.308  0.00  0.00     0.030 H 
ATOM     31  H6  4ZJ d   1     -50.980  -2.991 -20.123  0.00  0.00     0.030 H 
ENDBRANCH  26  28
BRANCH  26  32
ATOM     32  C13 4ZJ d   1     -49.234  -0.942 -21.556  0.00  0.00    -0.057 C 
ATOM     33  H7  4ZJ d   1     -49.038   0.139 -21.622  0.00  0.00     0.030 H 
ATOM     34  H8  4ZJ d   1     -48.968  -1.422 -22.509  0.00  0.00     0.030 H 
ATOM     35  H9  4ZJ d   1     -48.629  -1.375 -20.746  0.00  0.00     0.030 H 
ENDBRANCH  26  32
ENDBRANCH  16  26
ENDBRANCH   9  11
ENDBRANCH   1   9
BRANCH   5  36
ATOM     36  N21 4ZJ d   1     -52.961  -1.452 -25.994  0.00  0.00    -0.211 N 
ATOM     37  C22 4ZJ d   1     -51.787  -1.582 -25.088  0.00  0.00     0.014 C 
ATOM     38  C23 4ZJ d   1     -50.476  -1.525 -25.894  0.00  0.00    -0.023 C 
ATOM     39  H16 4ZJ d   1     -51.844  -2.544 -24.557  0.00  0.00     0.065 H 
ATOM     40  H17 4ZJ d   1     -51.800  -0.759 -24.358  0.00  0.00     0.065 H 
ATOM     41  C24 4ZJ d   1     -50.532  -2.579 -27.024  0.00  0.00     0.070 C 
ATOM     42  H18 4ZJ d   1     -49.626  -1.741 -25.230  0.00  0.00     0.039 H 
ATOM     43  H19 4ZJ d   1     -50.355  -0.523 -26.331  0.00  0.00     0.039 H 
ATOM     44  C25 4ZJ d   1     -51.700  -2.268 -27.981  0.00  0.00     0.119 C 
ATOM     45  H20 4ZJ d   1     -50.678  -3.575 -26.581  0.00  0.00     0.087 H 
ATOM     46  C26 4ZJ d   1     -53.032  -2.284 -27.226  0.00  0.00     0.043 C 
ATOM     47  F27 4ZJ d   1     -51.556  -0.955 -28.431  0.00  0.00    -0.245 F 
ATOM     48  H21 4ZJ d   1     -51.711  -2.982 -28.817  0.00  0.00     0.098 H 
ATOM     49  H22 4ZJ d   1     -53.821  -1.888 -27.882  0.00  0.00     0.069 H 
ATOM     50  H23 4ZJ d   1     -53.274  -3.320 -26.946  0.00  0.00     0.069 H 
BRANCH  41  51
ATOM     51  O28 4ZJ d   1     -49.308  -2.565 -27.771  0.00  0.00    -0.388 OA
BRANCH  51  52
ATOM     52  C29 4ZJ d   1     -48.445  -3.680 -27.544  0.00  0.00     0.005 C 
ATOM     53  H24 4ZJ d   1     -47.540  -3.575 -28.160  0.00  0.00     0.066 H 
ATOM     54  H25 4ZJ d   1     -48.967  -4.609 -27.816  0.00  0.00     0.066 H 
ATOM     55  H26 4ZJ d   1     -48.163  -3.715 -26.481  0.00  0.00     0.066 H 
ENDBRANCH  51  52
ENDBRANCH  41  51
ENDBRANCH   5  36
TORSDOF 9
