REMARK  11 active torsions:
REMARK  status: ('A' for Active; 'I' for Inactive)
REMARK    1  A    between atoms: C12_7  and  C14_1 
REMARK    2  A    between atoms: C8_4  and  N18_18 
REMARK    3  A    between atoms: C12_7  and  C13_8 
REMARK    4  A    between atoms: N11_14  and  C12_7 
REMARK    5  A    between atoms: C3_9  and  C2_11 
REMARK    6  A    between atoms: C2_11  and  C1_10 
REMARK    7  A    between atoms: C2_11  and  O34_34 
REMARK    8  A    between atoms: N18_18  and  C19_19 
REMARK    9  A    between atoms: C23_23  and  N25_25 
REMARK   10  A    between atoms: C28_28  and  O32_32 
REMARK   11  A    between atoms: O32_32  and  C33_33 
ROOT
ATOM      1  N18 4ZQ d   1     -54.647   1.874 -23.209  0.00  0.00    -0.325 N 
ATOM      2  H11 4ZQ d   1     -55.081   2.808 -23.229  0.00  0.00     0.169 HD
ENDROOT
BRANCH   1   3
ATOM      3  C8  4ZQ d   1     -53.963   1.554 -22.031  0.00  0.00     0.131 A 
ATOM      4  C9  4ZQ d   1     -52.934   0.607 -21.963  0.00  0.00    -0.010 A 
ATOM      5  C10 4ZQ d   1     -52.300   0.396 -20.728  0.00  0.00     0.070 A 
ATOM      6  H2  4ZQ d   1     -52.634   0.050 -22.843  0.00  0.00     0.093 H 
ATOM      7  C5  4ZQ d   1     -52.701   1.185 -19.616  0.00  0.00     0.103 A 
ATOM      8  N11 4ZQ d   1     -51.302  -0.434 -20.248  0.00  0.00    -0.318 N 
ATOM      9  C6  4ZQ d   1     -53.699   2.145 -19.783  0.00  0.00     0.034 A 
ATOM     10  N4  4ZQ d   1     -51.948   0.806 -18.563  0.00  0.00    -0.229 NA
ATOM     11  N7  4ZQ d   1     -54.295   2.270 -20.956  0.00  0.00    -0.241 NA
ATOM     12  H1  4ZQ d   1     -53.984   2.785 -18.956  0.00  0.00     0.118 H 
ATOM     13  C3  4ZQ d   1     -51.122  -0.133 -18.919  0.00  0.00     0.136 A 
BRANCH  13  14
ATOM     14  C2  4ZQ d   1     -50.121  -0.811 -17.999  0.00  0.00     0.089 C 
ATOM     15  H10 4ZQ d   1     -49.130  -0.797 -18.476  0.00  0.00     0.094 H 
BRANCH  14  16
ATOM     16  C1  4ZQ d   1     -50.007  -0.152 -16.620  0.00  0.00    -0.046 C 
ATOM     17  H7  4ZQ d   1     -49.267  -0.696 -16.014  0.00  0.00     0.031 H 
ATOM     18  H8  4ZQ d   1     -50.985  -0.181 -16.118  0.00  0.00     0.031 H 
ATOM     19  H9  4ZQ d   1     -49.687   0.894 -16.739  0.00  0.00     0.031 H 
ENDBRANCH  14  16
BRANCH  14  20
ATOM     20  O34 4ZQ d   1     -50.562  -2.156 -17.834  0.00  0.00    -0.388 OA
ATOM     21  H25 4ZQ d   1     -51.410  -2.160 -17.405  0.00  0.00     0.210 HD
ENDBRANCH  14  20
ENDBRANCH  13  14
BRANCH   8  22
ATOM     22  C12 4ZQ d   1     -50.578  -1.487 -20.985  0.00  0.00     0.109 C 
ATOM     23  H3  4ZQ d   1     -49.986  -2.000 -20.212  0.00  0.00     0.086 H 
BRANCH  22  24
ATOM     24  C14 4ZQ d   1     -49.529  -0.933 -21.937  0.00  0.00     0.407 C 
ATOM     25  F15 4ZQ d   1     -48.711  -0.038 -21.259  0.00  0.00    -0.169 F 
ATOM     26  F16 4ZQ d   1     -48.758  -1.975 -22.432  0.00  0.00    -0.169 F 
ATOM     27  F17 4ZQ d   1     -50.130  -0.257 -22.989  0.00  0.00    -0.169 F 
ENDBRANCH  22  24
BRANCH  22  28
ATOM     28  C13 4ZQ d   1     -51.485  -2.599 -21.544  0.00  0.00    -0.049 C 
ATOM     29  H4  4ZQ d   1     -52.197  -2.916 -20.768  0.00  0.00     0.030 H 
ATOM     30  H5  4ZQ d   1     -50.868  -3.457 -21.848  0.00  0.00     0.030 H 
ATOM     31  H6  4ZQ d   1     -52.038  -2.218 -22.415  0.00  0.00     0.030 H 
ENDBRANCH  22  28
ENDBRANCH   8  22
ENDBRANCH   1   3
BRANCH   1  32
ATOM     32  C19 4ZQ d   1     -54.822   1.110 -24.353  0.00  0.00     0.149 A 
ATOM     33  C20 4ZQ d   1     -56.002   1.257 -25.100  0.00  0.00    -0.020 A 
ATOM     34  C21 4ZQ d   1     -56.152   0.476 -26.245  0.00  0.00     0.025 A 
ATOM     35  H12 4ZQ d   1     -56.773   1.956 -24.796  0.00  0.00     0.091 H 
ATOM     36  N22 4ZQ d   1     -55.184  -0.376 -26.581  0.00  0.00    -0.075 NA
ATOM     37  H13 4ZQ d   1     -57.045   0.561 -26.854  0.00  0.00     0.115 H 
ATOM     38  C23 4ZQ d   1     -54.072  -0.515 -25.842  0.00  0.00     0.726 A 
ATOM     39  N24 4ZQ d   1     -53.887   0.260 -24.772  0.00  0.00    -0.045 NA
BRANCH  38  40
ATOM     40  N25 4ZQ d   1     -53.025  -1.350 -26.242  0.00  0.00    -0.211 N 
ATOM     41  C26 4ZQ d   1     -52.041  -1.828 -25.240  0.00  0.00     0.014 C 
ATOM     42  C27 4ZQ d   1     -50.630  -1.816 -25.879  0.00  0.00    -0.023 C 
ATOM     43  H14 4ZQ d   1     -52.297  -2.852 -24.930  0.00  0.00     0.065 H 
ATOM     44  H15 4ZQ d   1     -52.055  -1.165 -24.363  0.00  0.00     0.065 H 
ATOM     45  C28 4ZQ d   1     -50.623  -2.612 -27.207  0.00  0.00     0.070 C 
ATOM     46  H16 4ZQ d   1     -49.913  -2.273 -25.181  0.00  0.00     0.039 H 
ATOM     47  H17 4ZQ d   1     -50.334  -0.776 -26.080  0.00  0.00     0.039 H 
ATOM     48  C29 4ZQ d   1     -51.711  -2.111 -28.183  0.00  0.00     0.119 C 
ATOM     49  H18 4ZQ d   1     -50.796  -3.676 -26.987  0.00  0.00     0.087 H 
ATOM     50  C30 4ZQ d   1     -53.094  -2.081 -27.527  0.00  0.00     0.043 C 
ATOM     51  F31 4ZQ d   1     -51.417  -0.795 -28.529  0.00  0.00    -0.245 F 
ATOM     52  H19 4ZQ d   1     -51.731  -2.754 -29.076  0.00  0.00     0.098 H 
ATOM     53  H20 4ZQ d   1     -53.805  -1.575 -28.197  0.00  0.00     0.069 H 
ATOM     54  H21 4ZQ d   1     -53.433  -3.111 -27.343  0.00  0.00     0.069 H 
BRANCH  45  55
ATOM     55  O32 4ZQ d   1     -49.354  -2.451 -27.844  0.00  0.00    -0.388 OA
BRANCH  55  56
ATOM     56  C33 4ZQ d   1     -48.514  -3.606 -27.736  0.00  0.00     0.005 C 
ATOM     57  H22 4ZQ d   1     -47.558  -3.413 -28.246  0.00  0.00     0.066 H 
ATOM     58  H23 4ZQ d   1     -49.013  -4.467 -28.205  0.00  0.00     0.066 H 
ATOM     59  H24 4ZQ d   1     -48.326  -3.825 -26.674  0.00  0.00     0.066 H 
ENDBRANCH  55  56
ENDBRANCH  45  55
ENDBRANCH  38  40
ENDBRANCH   1  32
TORSDOF 11
