REMARK  11 active torsions:
REMARK  status: ('A' for Active; 'I' for Inactive)
REMARK    1  A    between atoms: C12_7  and  C14_1 
REMARK    2  A    between atoms: C8_4  and  N18_18 
REMARK    3  A    between atoms: C12_7  and  C13_8 
REMARK    4  A    between atoms: N11_14  and  C12_7 
REMARK    5  A    between atoms: C3_9  and  C2_11 
REMARK    6  A    between atoms: C2_11  and  C1_10 
REMARK    7  A    between atoms: C2_11  and  O34_34 
REMARK    8  A    between atoms: N18_18  and  C19_19 
REMARK    9  A    between atoms: C23_23  and  N25_25 
REMARK   10  A    between atoms: C28_28  and  O32_32 
REMARK   11  A    between atoms: O32_32  and  C33_33 
ROOT
ATOM      1  N18 4ZR d   1     -54.686   1.785 -23.290  0.00  0.00    -0.325 N 
ATOM      2  H11 4ZR d   1     -55.097   2.729 -23.324  0.00  0.00     0.169 HD
ENDROOT
BRANCH   1   3
ATOM      3  C8  4ZR d   1     -53.995   1.474 -22.121  0.00  0.00     0.131 A 
ATOM      4  C9  4ZR d   1     -53.003   0.493 -22.047  0.00  0.00    -0.010 A 
ATOM      5  C10 4ZR d   1     -52.364   0.285 -20.817  0.00  0.00     0.070 A 
ATOM      6  H2  4ZR d   1     -52.734  -0.092 -22.919  0.00  0.00     0.093 H 
ATOM      7  C5  4ZR d   1     -52.744   1.099 -19.716  0.00  0.00     0.103 A 
ATOM      8  N11 4ZR d   1     -51.396  -0.573 -20.330  0.00  0.00    -0.318 N 
ATOM      9  C6  4ZR d   1     -53.721   2.075 -19.881  0.00  0.00     0.034 A 
ATOM     10  N4  4ZR d   1     -51.992   0.719 -18.664  0.00  0.00    -0.229 NA
ATOM     11  N7  4ZR d   1     -54.297   2.223 -21.059  0.00  0.00    -0.241 NA
ATOM     12  H1  4ZR d   1     -54.007   2.709 -19.049  0.00  0.00     0.118 H 
ATOM     13  C3  4ZR d   1     -51.177  -0.228 -19.013  0.00  0.00     0.136 A 
BRANCH  13  14
ATOM     14  C2  4ZR d   1     -50.177  -0.864 -18.069  0.00  0.00     0.089 C 
ATOM     15  H10 4ZR d   1     -49.178  -0.837 -18.529  0.00  0.00     0.094 H 
BRANCH  14  16
ATOM     16  C1  4ZR d   1     -50.114  -0.173 -16.704  0.00  0.00    -0.046 C 
ATOM     17  H7  4ZR d   1     -49.373  -0.681 -16.070  0.00  0.00     0.031 H 
ATOM     18  H8  4ZR d   1     -51.102  -0.220 -16.223  0.00  0.00     0.031 H 
ATOM     19  H9  4ZR d   1     -49.822   0.879 -16.839  0.00  0.00     0.031 H 
ENDBRANCH  14  16
BRANCH  14  20
ATOM     20  O34 4ZR d   1     -50.588  -2.206 -17.873  0.00  0.00    -0.388 OA
ATOM     21  H25 4ZR d   1     -51.445  -2.217 -17.463  0.00  0.00     0.210 HD
ENDBRANCH  14  20
ENDBRANCH  13  14
BRANCH   8  22
ATOM     22  C12 4ZR d   1     -50.669  -1.611 -21.087  0.00  0.00     0.109 C 
ATOM     23  H3  4ZR d   1     -50.087  -2.136 -20.315  0.00  0.00     0.086 H 
BRANCH  22  24
ATOM     24  C14 4ZR d   1     -49.603  -1.012 -21.997  0.00  0.00     0.407 C 
ATOM     25  F15 4ZR d   1     -50.177  -0.304 -23.039  0.00  0.00    -0.169 F 
ATOM     26  F16 4ZR d   1     -48.808  -0.140 -21.255  0.00  0.00    -0.169 F 
ATOM     27  F17 4ZR d   1     -48.815  -2.026 -22.525  0.00  0.00    -0.169 F 
ENDBRANCH  22  24
BRANCH  22  28
ATOM     28  C13 4ZR d   1     -51.525  -2.736 -21.694  0.00  0.00    -0.049 C 
ATOM     29  H4  4ZR d   1     -52.254  -3.086 -20.948  0.00  0.00     0.030 H 
ATOM     30  H5  4ZR d   1     -50.875  -3.572 -21.991  0.00  0.00     0.030 H 
ATOM     31  H6  4ZR d   1     -52.059  -2.355 -22.577  0.00  0.00     0.030 H 
ENDBRANCH  22  28
ENDBRANCH   8  22
ENDBRANCH   1   3
BRANCH   1  32
ATOM     32  C19 4ZR d   1     -54.898   1.005 -24.411  0.00  0.00     0.149 A 
ATOM     33  C20 4ZR d   1     -56.111   1.123 -25.109  0.00  0.00    -0.020 A 
ATOM     34  C21 4ZR d   1     -56.262   0.341 -26.246  0.00  0.00     0.025 A 
ATOM     35  H12 4ZR d   1     -56.894   1.794 -24.775  0.00  0.00     0.091 H 
ATOM     36  N22 4ZR d   1     -55.291  -0.489 -26.626  0.00  0.00    -0.075 NA
ATOM     37  H13 4ZR d   1     -57.174   0.406 -26.828  0.00  0.00     0.115 H 
ATOM     38  C23 4ZR d   1     -54.149  -0.595 -25.938  0.00  0.00     0.726 A 
ATOM     39  N24 4ZR d   1     -53.961   0.175 -24.865  0.00  0.00    -0.045 NA
BRANCH  38  40
ATOM     40  N25 4ZR d   1     -53.095  -1.408 -26.376  0.00  0.00    -0.211 N 
ATOM     41  C26 4ZR d   1     -53.194  -2.154 -27.653  0.00  0.00     0.014 C 
ATOM     42  C27 4ZR d   1     -51.819  -2.223 -28.344  0.00  0.00    -0.023 C 
ATOM     43  H14 4ZR d   1     -53.907  -1.643 -28.316  0.00  0.00     0.065 H 
ATOM     44  H15 4ZR d   1     -53.549  -3.175 -27.449  0.00  0.00     0.065 H 
ATOM     45  C28 4ZR d   1     -50.744  -2.732 -27.360  0.00  0.00     0.070 C 
ATOM     46  H16 4ZR d   1     -51.540  -1.219 -28.697  0.00  0.00     0.039 H 
ATOM     47  H17 4ZR d   1     -51.879  -2.909 -29.201  0.00  0.00     0.039 H 
ATOM     48  C29 4ZR d   1     -50.694  -1.863 -26.080  0.00  0.00     0.119 C 
ATOM     49  H18 4ZR d   1     -50.970  -3.772 -27.081  0.00  0.00     0.087 H 
ATOM     50  C30 4ZR d   1     -52.074  -1.856 -25.398  0.00  0.00     0.043 C 
ATOM     51  F31 4ZR d   1     -50.355  -0.559 -26.461  0.00  0.00    -0.245 F 
ATOM     52  H19 4ZR d   1     -49.940  -2.261 -25.385  0.00  0.00     0.098 H 
ATOM     53  H20 4ZR d   1     -52.318  -2.870 -25.049  0.00  0.00     0.069 H 
ATOM     54  H21 4ZR d   1     -52.058  -1.167 -24.541  0.00  0.00     0.069 H 
BRANCH  45  55
ATOM     55  O32 4ZR d   1     -49.477  -2.673 -28.018  0.00  0.00    -0.388 OA
BRANCH  55  56
ATOM     56  C33 4ZR d   1     -48.589  -3.741 -27.671  0.00  0.00     0.005 C 
ATOM     57  H22 4ZR d   1     -47.642  -3.622 -28.217  0.00  0.00     0.066 H 
ATOM     58  H23 4ZR d   1     -49.050  -4.703 -27.940  0.00  0.00     0.066 H 
ATOM     59  H24 4ZR d   1     -48.393  -3.718 -26.589  0.00  0.00     0.066 H 
ENDBRANCH  55  56
ENDBRANCH  45  55
ENDBRANCH  38  40
ENDBRANCH   1  32
TORSDOF 11
