REMARK  6 active torsions:
REMARK  status: ('A' for Active; 'I' for Inactive)
REMARK    1  A    between atoms: C11_10  and  N12_1 
REMARK    2  A    between atoms: C11_10  and  C13_2 
REMARK    3  A    between atoms: C07_6  and  C06_5 
REMARK    4  A    between atoms: C06_5  and  C19_14 
REMARK    5  A    between atoms: P08_7  and  C07_6 
REMARK    6  A    between atoms: P08_7  and  C11_10 
ROOT
ATOM      1  C11 4ZN d   1     172.783  13.440  84.714  0.00  0.00     0.198 C 
ATOM      2  H10 4ZN d   1     172.908  12.857  83.790  0.00  0.00     0.108 H 
ENDROOT
BRANCH   1   3
ATOM      3  N12 4ZN d   1     172.117  12.621  85.686  0.00  0.00    -0.061 N 
ATOM      4  H1  4ZN d   1     171.191  12.396  85.358  0.00  0.00     0.275 HD
ATOM      5  H2  4ZN d   1     172.051  13.121  86.559  0.00  0.00     0.275 HD
ATOM      6  H3  4ZN d   1     172.641  11.771  85.825  0.00  0.00     0.275 HD
ENDBRANCH   1   3
BRANCH   1   7
ATOM      7  C13 4ZN d   1     171.953  14.664  84.360  0.00  0.00    -0.018 A 
ATOM      8  C14 4ZN d   1     172.086  15.845  85.070  0.00  0.00    -0.074 A 
ATOM      9  C15 4ZN d   1     171.313  16.953  84.740  0.00  0.00    -0.082 A 
ATOM     10  H11 4ZN d   1     172.796  15.906  85.887  0.00  0.00     0.084 H 
ATOM     11  C16 4ZN d   1     170.391  16.864  83.707  0.00  0.00    -0.083 A 
ATOM     12  H4  4ZN d   1     171.430  17.881  85.287  0.00  0.00     0.083 H 
ATOM     13  C17 4ZN d   1     170.258  15.683  83.005  0.00  0.00    -0.082 A 
ATOM     14  H12 4ZN d   1     169.777  17.720  83.452  0.00  0.00     0.083 H 
ATOM     15  C18 4ZN d   1     171.030  14.585  83.333  0.00  0.00    -0.074 A 
ATOM     16  H5  4ZN d   1     169.544  15.617  82.192  0.00  0.00     0.083 H 
ATOM     17  H13 4ZN d   1     170.912  13.658  82.783  0.00  0.00     0.084 H 
ENDBRANCH   1   7
BRANCH   1  18
ATOM     18  P08 4ZN d   1     174.438  13.805  85.371  0.00  0.00     0.142 P 
ATOM     19  O09 4ZN d   1     174.394  14.508  86.778  0.00  0.00    -0.666 OA
ATOM     20  O10 4ZN d   1     175.109  12.502  85.538  0.00  0.00    -0.666 OA
BRANCH  18  21
ATOM     21  C07 4ZN d   1     175.361  14.792  84.191  0.00  0.00     0.018 C 
ATOM     22  H8  4ZN d   1     176.308  14.285  83.955  0.00  0.00     0.049 H 
ATOM     23  H9  4ZN d   1     174.768  14.908  83.272  0.00  0.00     0.049 H 
BRANCH  21  24
ATOM     24  C06 4ZN d   1     175.656  16.158  84.771  0.00  0.00     0.024 C 
ATOM     25  H6  4ZN d   1     176.740  16.287  84.902  0.00  0.00     0.049 H 
ATOM     26  H7  4ZN d   1     175.153  16.273  85.742  0.00  0.00     0.049 H 
BRANCH  24  27
ATOM     27  C19 4ZN d   1     175.131  17.169  83.796  0.00  0.00     0.173 C 
ATOM     28  O20 4ZN d   1     174.483  18.165  84.202  0.00  0.00    -0.648 OA
ATOM     29  O21 4ZN d   1     175.343  16.985  82.574  0.00  0.00    -0.648 OA
ENDBRANCH  24  27
ENDBRANCH  21  24
ENDBRANCH  18  21
ENDBRANCH   1  18
TORSDOF 6
