REMARK  6 active torsions:
REMARK  status: ('A' for Active; 'I' for Inactive)
REMARK    1  A    between atoms: C2_12  and  N1_1 
REMARK    2  A    between atoms: C4_2  and  C3_13 
REMARK    3  A    between atoms: C10_7  and  C9_16 
REMARK    4  A    between atoms: C2_12  and  C1_10 
REMARK    5  A    between atoms: C3_13  and  C2_12 
REMARK    6  A    between atoms: C14_20  and  O3_21 
ROOT
ATOM      1  C4  4ZK d   1       8.698  13.703  49.222  0.00  0.00    -0.053 A 
ATOM      2  C5  4ZK d   1       8.245  14.608  50.195  0.00  0.00    -0.064 A 
ATOM      3  C6  4ZK d   1       9.496  12.615  49.591  0.00  0.00    -0.054 A 
ATOM      4  C7  4ZK d   1       9.840  12.460  50.943  0.00  0.00     0.057 A 
ATOM      5  C8  4ZK d   1       9.395  13.363  51.914  0.00  0.00     0.067 A 
ATOM      6 CL1  4ZK d   1      10.824  11.119  51.390  0.00  0.00    -0.083 Cl
ATOM      7 CL2  4ZK d   1       9.838  13.115  53.587  0.00  0.00    -0.082 Cl
ATOM      8  C9  4ZK d   1       8.587  14.455  51.558  0.00  0.00    -0.000 A 
ATOM      9  H4  4ZK d   1       7.620  15.441  49.895  0.00  0.00     0.085 H 
ATOM     10  H5  4ZK d   1       9.842  11.906  48.848  0.00  0.00     0.086 H 
ENDROOT
BRANCH   1  11
ATOM     11  C3  4ZK d   1       8.285  13.889  47.785  0.00  0.00    -0.005 C 
ATOM     12  H8  4ZK d   1       8.957  13.313  47.132  0.00  0.00     0.044 H 
ATOM     13  H9  4ZK d   1       8.342  14.955  47.521  0.00  0.00     0.044 H 
BRANCH  11  14
ATOM     14  C2  4ZK d   1       6.843  13.392  47.604  0.00  0.00     0.186 C 
ATOM     15  H7  4ZK d   1       6.185  13.983  48.258  0.00  0.00     0.101 H 
BRANCH  14  16
ATOM     16  N1  4ZK d   1       6.759  11.952  48.049  0.00  0.00    -0.065 N 
ATOM     17  H1  4ZK d   1       7.072  11.877  49.004  0.00  0.00     0.275 HD
ATOM     18  H2  4ZK d   1       7.344  11.383  47.458  0.00  0.00     0.275 HD
ATOM     19  H3  4ZK d   1       5.804  11.635  47.982  0.00  0.00     0.275 HD
ENDBRANCH  14  16
BRANCH  14  20
ATOM     20  C1  4ZK d   1       6.381  13.630  46.134  0.00  0.00     0.204 C 
ATOM     21  O1  4ZK d   1       6.118  14.799  45.761  0.00  0.00    -0.646 OA
ATOM     22  O2  4ZK d   1       6.326  12.574  45.444  0.00  0.00    -0.646 OA
ENDBRANCH  14  20
ENDBRANCH  11  14
ENDBRANCH   1  11
BRANCH   8  23
ATOM     23  C10 4ZK d   1       8.119  15.448  52.547  0.00  0.00    -0.004 A 
ATOM     24  C11 4ZK d   1       9.047  16.154  53.333  0.00  0.00    -0.037 A 
ATOM     25  C14 4ZK d   1       8.617  17.096  54.265  0.00  0.00     0.084 A 
ATOM     26  H10 4ZK d   1      10.107  15.963  53.212  0.00  0.00     0.089 H 
ATOM     27  C13 4ZK d   1       7.257  17.345  54.373  0.00  0.00     0.034 A 
ATOM     28  N2  4ZK d   1       6.329  16.699  53.620  0.00  0.00    -0.269 NA
ATOM     29  H6  4ZK d   1       6.920  18.086  55.089  0.00  0.00     0.119 H 
ATOM     30  C12 4ZK d   1       6.770  15.768  52.728  0.00  0.00     0.013 A 
ATOM     31  H11 4ZK d   1       6.035  15.247  52.126  0.00  0.00     0.116 H 
BRANCH  25  32
ATOM     32  O3  4ZK d   1       9.547  17.746  55.022  0.00  0.00    -0.359 OA
ATOM     33  H12 4ZK d   1       9.109  18.353  55.607  0.00  0.00     0.217 HD
ENDBRANCH  25  32
ENDBRANCH   8  23
TORSDOF 6
