REMARK  6 active torsions:
REMARK  status: ('A' for Active; 'I' for Inactive)
REMARK    1  A    between atoms: C2_2  and  C13_14 
REMARK    2  A    between atoms: C10_10  and  C6_6 
REMARK    3  A    between atoms: C12_12  and  O1_13 
REMARK    4  A    between atoms: C13_14  and  C14_15 
REMARK    5  A    between atoms: C14_15  and  N1_16 
REMARK    6  A    between atoms: C14_15  and  C15_17 
ROOT
ATOM      1  C1  E42 d   1      59.983   0.643  40.458  0.00  0.00    -0.066 A 
ATOM      2  C2  E42 d   1      60.848   1.209  41.414  0.00  0.00    -0.055 A 
ATOM      3  C3  E42 d   1      61.043   0.541  42.639  0.00  0.00    -0.077 A 
ATOM      4  C4  E42 d   1      60.396  -0.660  42.912  0.00  0.00    -0.082 A 
ATOM      5  C5  E42 d   1      59.549  -1.213  41.947  0.00  0.00    -0.072 A 
ATOM      6  C6  E42 d   1      59.335  -0.575  40.713  0.00  0.00    -0.025 A 
ATOM      7  H1  E42 d   1      59.816   1.153  39.516  0.00  0.00     0.085 H 
ATOM      8  H2  E42 d   1      61.708   0.970  43.380  0.00  0.00     0.084 H 
ATOM      9  H3  E42 d   1      60.547  -1.161  43.861  0.00  0.00     0.083 H 
ATOM     10  H4  E42 d   1      59.048  -2.152  42.154  0.00  0.00     0.084 H 
ENDROOT
BRANCH   2  11
ATOM     11  C13 E42 d   1      61.532   2.524  41.103  0.00  0.00    -0.005 C 
ATOM     12  H10 E42 d   1      61.480   2.693  40.017  0.00  0.00     0.044 H 
ATOM     13  H11 E42 d   1      62.585   2.449  41.413  0.00  0.00     0.044 H 
BRANCH  11  14
ATOM     14  C14 E42 d   1      60.899   3.743  41.818  0.00  0.00     0.186 C 
ATOM     15  H12 E42 d   1      61.459   4.649  41.543  0.00  0.00     0.101 H 
BRANCH  14  16
ATOM     16  N1  E42 d   1      59.463   3.911  41.388  0.00  0.00    -0.065 N 
ATOM     17  H13 E42 d   1      59.062   4.707  41.859  0.00  0.00     0.275 HD
ATOM     18  H14 E42 d   1      58.942   3.082  41.626  0.00  0.00     0.275 HD
ATOM     19  H15 E42 d   1      59.426   4.057  40.391  0.00  0.00     0.275 HD
ENDBRANCH  14  16
BRANCH  14  20
ATOM     20  C15 E42 d   1      60.986   3.545  43.361  0.00  0.00     0.204 C 
ATOM     21  O2  E42 d   1      59.895   3.589  44.002  0.00  0.00    -0.646 OA
ATOM     22  O3  E42 d   1      62.138   3.313  43.827  0.00  0.00    -0.646 OA
ENDBRANCH  14  20
ENDBRANCH  11  14
ENDBRANCH   2  11
BRANCH   6  23
ATOM     23  C10 E42 d   1      58.423  -1.178  39.722  0.00  0.00    -0.023 A 
ATOM     24  C9  E42 d   1      57.531  -0.385  38.983  0.00  0.00    -0.072 A 
ATOM     25  C8  E42 d   1      56.663  -0.979  38.052  0.00  0.00    -0.080 A 
ATOM     26  H7  E42 d   1      57.512   0.689  39.131  0.00  0.00     0.084 H 
ATOM     27  C7  E42 d   1      56.678  -2.360  37.855  0.00  0.00    -0.051 A 
ATOM     28  H6  E42 d   1      55.978  -0.361  37.483  0.00  0.00     0.083 H 
ATOM     29  C12 E42 d   1      57.554  -3.146  38.587  0.00  0.00     0.066 A 
ATOM     30  H5  E42 d   1      56.009  -2.815  37.134  0.00  0.00     0.087 H 
ATOM     31  C11 E42 d   1      58.415  -2.567  39.512  0.00  0.00    -0.040 A 
ATOM     32  H8  E42 d   1      59.090  -3.197  40.080  0.00  0.00     0.089 H 
BRANCH  29  33
ATOM     33  O1  E42 d   1      57.599  -4.507  38.446  0.00  0.00    -0.361 OA
ATOM     34  H9  E42 d   1      56.968  -4.777  37.789  0.00  0.00     0.217 HD
ENDBRANCH  29  33
ENDBRANCH   6  23
TORSDOF 6
