REMARK  1 active torsions:
REMARK  status: ('A' for Active; 'I' for Inactive)
REMARK    1  A    between atoms: C9_6  and  C10_7 
ROOT
ATOM      1  C4  CKA d   1      13.481   4.017  23.714  0.00  0.00    -0.066 A 
ATOM      2  C5  CKA d   1      14.829   3.858  23.427  0.00  0.00    -0.061 A 
ATOM      3  C6  CKA d   1      15.590   5.001  23.106  0.00  0.00     0.036 A 
ATOM      4  C7  CKA d   1      15.043   6.273  23.066  0.00  0.00    -0.033 A 
ATOM      5  C8  CKA d   1      13.669   6.423  23.360  0.00  0.00     0.072 A 
ATOM      6  C9  CKA d   1      11.761   7.859  23.606  0.00  0.00     0.118 A 
ATOM      7  N1  CKA d   1      13.075   7.659  23.335  0.00  0.00    -0.245 NA
ATOM      8  C3  CKA d   1      12.875   5.291  23.688  0.00  0.00     0.039 A 
ATOM      9  C1  CKA d   1      10.938   6.808  23.931  0.00  0.00     0.042 A 
ATOM     10  C2  CKA d   1      11.429   5.445  23.996  0.00  0.00     0.167 A 
ATOM     11  O1  CKA d   1      10.716   4.467  24.283  0.00  0.00    -0.292 OA
ATOM     12 CL1  CKA d   1      17.293   4.803  22.744  0.00  0.00    -0.084 Cl
ATOM     13  H1  CKA d   1      12.883   3.148  23.962  0.00  0.00     0.085 H 
ATOM     14  H2  CKA d   1      15.287   2.876  23.449  0.00  0.00     0.086 H 
ATOM     15  H3  CKA d   1      15.654   7.133  22.815  0.00  0.00     0.089 H 
ATOM     16  H4  CKA d   1      10.127   6.809  23.188  0.00  0.00     0.054 H 
ATOM     17  H5  CKA d   1      10.525   7.035  24.925  0.00  0.00     0.054 H 
ENDROOT
BRANCH   6  18
ATOM     18  C10 CKA d   1      11.313   9.338  23.520  0.00  0.00     0.225 C 
ATOM     19  O2  CKA d   1      12.230  10.137  23.209  0.00  0.00    -0.643 OA
ATOM     20  O3  CKA d   1      10.114   9.575  23.772  0.00  0.00    -0.643 OA
ENDBRANCH   6  18
TORSDOF 1
