REMARK  3 active torsions:
REMARK  status: ('A' for Active; 'I' for Inactive)
REMARK    1  A    between atoms: C4_4  and  C3_3 
REMARK    2  A    between atoms: N8_18  and  C5_5 
REMARK    3  A    between atoms: N9_17  and  N8_18 
ROOT
ATOM      1  N8  55R d   1      11.733   1.415  30.550  0.00  0.00    -0.277 N 
ATOM      2  H9  55R d   1      12.599   1.738  31.005  0.00  0.00     0.189 HD
ENDROOT
BRANCH   1   3
ATOM      3  C5  55R d   1      11.359   1.938  29.309  0.00  0.00     0.067 A 
ATOM      4  C4  55R d   1      12.075   2.980  28.712  0.00  0.00     0.068 A 
ATOM      5  C9  55R d   1      11.657   3.472  27.486  0.00  0.00    -0.064 A 
ATOM      6  C8  55R d   1      10.548   2.925  26.863  0.00  0.00    -0.082 A 
ATOM      7  H4  55R d   1      12.198   4.285  27.015  0.00  0.00     0.085 H 
ATOM      8  C7  55R d   1       9.830   1.907  27.470  0.00  0.00    -0.081 A 
ATOM      9  H3  55R d   1      10.239   3.296  25.892  0.00  0.00     0.083 H 
ATOM     10  C6  55R d   1      10.237   1.404  28.689  0.00  0.00    -0.055 A 
ATOM     11  H2  55R d   1       8.947   1.505  26.986  0.00  0.00     0.083 H 
ATOM     12  H1  55R d   1       9.685   0.598  29.159  0.00  0.00     0.087 H 
BRANCH   4  13
ATOM     13  C3  55R d   1      13.299   3.602  29.330  0.00  0.00     0.211 C 
ATOM     14  O1  55R d   1      13.935   4.484  28.708  0.00  0.00    -0.644 OA
ATOM     15  O2  55R d   1      13.649   3.240  30.474  0.00  0.00    -0.644 OA
ENDBRANCH   4  13
ENDBRANCH   1   3
BRANCH   1  16
ATOM     16  N9  55R d   1      10.969   0.498  31.146  0.00  0.00    -0.175 NA
ATOM     17  C10 55R d   1      11.278   0.013  32.327  0.00  0.00     0.077 A 
ATOM     18  C11 55R d   1      10.365  -0.992  32.897  0.00  0.00    -0.050 A 
ATOM     19  C15 55R d   1      12.468   0.414  33.102  0.00  0.00    -0.050 A 
ATOM     20  C12 55R d   1      10.609  -1.560  34.119  0.00  0.00    -0.032 A 
ATOM     21  H6  55R d   1       9.480  -1.289  32.337  0.00  0.00     0.087 H 
ATOM     22  C13 55R d   1      11.803  -1.168  34.882  0.00  0.00     0.172 A 
ATOM     23  H5  55R d   1       9.921  -2.300  34.524  0.00  0.00     0.089 H 
ATOM     24  O16 55R d   1      12.017  -1.680  36.010  0.00  0.00    -0.289 OA
ATOM     25  C14 55R d   1      12.722  -0.161  34.323  0.00  0.00    -0.032 A 
ATOM     26  H7  55R d   1      13.610   0.130  34.883  0.00  0.00     0.089 H 
ATOM     27  H8  55R d   1      13.146   1.168  32.705  0.00  0.00     0.087 H 
ENDBRANCH   1  16
TORSDOF 3
