REMARK  5 active torsions:
REMARK  status: ('A' for Active; 'I' for Inactive)
REMARK    1  A    between atoms: C6_2  and  N8_8 
REMARK    2  A    between atoms: C4_5  and  C5_4 
REMARK    3  A    between atoms: N8_8  and  C9_9 
REMARK    4  A    between atoms: C10_10  and  O11_11 
REMARK    5  A    between atoms: C10_10  and  C12_12 
ROOT
ATOM      1  C7  51Y d   1     -27.714   3.467  -4.421  0.00  0.00    -0.055 A 
ATOM      2  C6  51Y d   1     -26.716   2.543  -4.669  0.00  0.00     0.036 A 
ATOM      3  C1  51Y d   1     -27.451   4.818  -4.422  0.00  0.00    -0.059 A 
ATOM      4  C4  51Y d   1     -25.437   2.989  -4.924  0.00  0.00    -0.012 A 
ATOM      5  C3  51Y d   1     -25.175   4.340  -4.924  0.00  0.00     0.062 A 
ATOM      6  C2  51Y d   1     -26.172   5.258  -4.675  0.00  0.00     0.067 A 
ATOM      7 CL1  51Y d   1     -23.575   4.897  -5.236  0.00  0.00    -0.082 Cl
ATOM      8  C17 51Y d   1     -25.874   6.654  -4.685  0.00  0.00     0.101 C 
ATOM      9  N18 51Y d   1     -25.665   7.800  -4.731  0.00  0.00    -0.191 NA
ATOM     10  H1  51Y d   1     -28.722   3.121  -4.222  0.00  0.00     0.087 H 
ATOM     11  H2  51Y d   1     -28.245   5.529  -4.225  0.00  0.00     0.086 H 
ENDROOT
BRANCH   4  12
ATOM     12  C5  51Y d   1     -24.348   2.001  -5.188  0.00  0.00    -0.047 C 
ATOM     13  H3  51Y d   1     -24.759   0.982  -5.144  0.00  0.00     0.033 H 
ATOM     14  H4  51Y d   1     -23.560   2.112  -4.428  0.00  0.00     0.033 H 
ATOM     15  H5  51Y d   1     -23.923   2.182  -6.186  0.00  0.00     0.033 H 
ENDBRANCH   4  12
BRANCH   2  16
ATOM     16  N8  51Y d   1     -26.919   1.154  -4.690  0.00  0.00    -0.382 N 
ATOM     17  H6  51Y d   1     -26.234   0.505  -5.103  0.00  0.00     0.160 HD
BRANCH  16  18
ATOM     18  C9  51Y d   1     -28.151   0.694  -4.095  0.00  0.00     0.039 C 
ATOM     19  C10 51Y d   1     -29.280   0.561  -5.098  0.00  0.00     0.074 C 
ATOM     20  C13 51Y d   1     -29.791  -0.852  -5.044  0.00  0.00    -0.035 C 
ATOM     21  C14 51Y d   1     -29.105  -1.525  -3.886  0.00  0.00    -0.060 C 
ATOM     22  H12 51Y d   1     -29.552  -1.376  -5.981  0.00  0.00     0.037 H 
ATOM     23  H13 51Y d   1     -30.880  -0.854  -4.891  0.00  0.00     0.037 H 
ATOM     24  C15 51Y d   1     -27.895  -0.692  -3.547  0.00  0.00    -0.043 C 
ATOM     25  H14 51Y d   1     -28.796  -2.542  -4.169  0.00  0.00     0.033 H 
ATOM     26  H15 51Y d   1     -29.784  -1.575  -3.022  0.00  0.00     0.033 H 
ATOM     27  H16 51Y d   1     -27.759  -0.649  -2.456  0.00  0.00     0.036 H 
ATOM     28  H17 51Y d   1     -26.996  -1.123  -4.012  0.00  0.00     0.036 H 
ATOM     29  H7  51Y d   1     -28.450   1.383  -3.291  0.00  0.00     0.077 H 
BRANCH  19  30
ATOM     30  O11 51Y d   1     -30.315   1.408  -4.649  0.00  0.00    -0.388 OA
ATOM     31  H8  51Y d   1     -30.594   1.133  -3.784  0.00  0.00     0.210 HD
ENDBRANCH  19  30
BRANCH  19  32
ATOM     32  C12 51Y d   1     -28.927   0.913  -6.528  0.00  0.00    -0.046 C 
ATOM     33  H9  51Y d   1     -29.813   0.782  -7.167  0.00  0.00     0.031 H 
ATOM     34  H10 51Y d   1     -28.120   0.253  -6.880  0.00  0.00     0.031 H 
ATOM     35  H11 51Y d   1     -28.591   1.960  -6.576  0.00  0.00     0.031 H 
ENDBRANCH  19  32
ENDBRANCH  16  18
ENDBRANCH   2  16
TORSDOF 5
