REMARK  6 active torsions:
REMARK  status: ('A' for Active; 'I' for Inactive)
REMARK    1  A    between atoms: C1_3  and  N1_4 
REMARK    2  A    between atoms: C4_7  and  C7_8 
REMARK    3  A    between atoms: C7_8  and  C16_10 
REMARK    4  A    between atoms: C19_15  and  C10_16 
REMARK    5  A    between atoms: C13_19  and  S2_24 
REMARK    6  A    between atoms: S2_24  and  N2_25 
ROOT
ATOM      1  C16 520 d   1      66.854  37.264  -4.143  0.00  0.00     0.015 A 
ATOM      2  C17 520 d   1      68.109  37.437  -3.571  0.00  0.00    -0.068 A 
ATOM      3  C18 520 d   1      68.265  37.343  -2.192  0.00  0.00    -0.071 A 
ATOM      4  C15 520 d   1      65.755  36.994  -3.334  0.00  0.00    -0.068 A 
ATOM      5  C14 520 d   1      65.911  36.900  -1.956  0.00  0.00    -0.071 A 
ATOM      6  C19 520 d   1      67.167  37.077  -1.383  0.00  0.00    -0.026 A 
ATOM      7  H7  520 d   1      68.967  37.645  -4.200  0.00  0.00     0.085 H 
ATOM      8  H8  520 d   1      69.245  37.477  -1.748  0.00  0.00     0.084 H 
ATOM      9  H9  520 d   1      64.776  36.857  -3.779  0.00  0.00     0.085 H 
ATOM     10  H10 520 d   1      65.054  36.689  -1.327  0.00  0.00     0.084 H 
ENDROOT
BRANCH   6  11
ATOM     11  C10 520 d   1      67.312  37.017  -0.002  0.00  0.00    -0.026 A 
ATOM     12  C9  520 d   1      68.377  37.669   0.612  0.00  0.00    -0.071 A 
ATOM     13  C8  520 d   1      68.490  37.667   1.998  0.00  0.00    -0.059 A 
ATOM     14  H11 520 d   1      69.120  38.179   0.009  0.00  0.00     0.084 H 
ATOM     15  C13 520 d   1      67.539  37.011   2.771  0.00  0.00     0.079 A 
ATOM     16  H12 520 d   1      69.319  38.177   2.475  0.00  0.00     0.085 H 
ATOM     17  C12 520 d   1      66.480  36.350   2.159  0.00  0.00    -0.059 A 
ATOM     18  C11 520 d   1      66.368  36.353   0.772  0.00  0.00    -0.071 A 
ATOM     19  H13 520 d   1      65.742  35.833   2.762  0.00  0.00     0.085 H 
ATOM     20  H14 520 d   1      65.543  35.837   0.295  0.00  0.00     0.084 H 
BRANCH  15  21
ATOM     21  S2  520 d   1      67.643  37.071   4.526  0.00  0.00     0.256 S 
ATOM     22  O3  520 d   1      67.277  38.413   4.883  0.00  0.00    -0.201 OA
ATOM     23  O2  520 d   1      66.833  36.003   5.041  0.00  0.00    -0.201 OA
BRANCH  21  24
ATOM     24  N2  520 d   1      69.160  36.821   4.925  0.00  0.00    -0.324 N 
ATOM     25  H15 520 d   1      69.430  36.816   5.888  0.00  0.00     0.169 HD
ATOM     26  H16 520 d   1      69.846  36.668   4.213  0.00  0.00     0.169 HD
ENDBRANCH  21  24
ENDBRANCH  15  21
ENDBRANCH   6  11
BRANCH   1  27
ATOM     27  C7  520 d   1      66.681  37.372  -5.623  0.00  0.00     0.192 C 
ATOM     28  O1  520 d   1      65.635  37.030  -6.152  0.00  0.00    -0.287 OA
BRANCH  27  29
ATOM     29  C4  520 d   1      67.808  37.907  -6.447  0.00  0.00     0.015 A 
ATOM     30  C3  520 d   1      67.978  39.280  -6.583  0.00  0.00    -0.067 A 
ATOM     31  C2  520 d   1      69.027  39.778  -7.348  0.00  0.00    -0.057 A 
ATOM     32  H1  520 d   1      67.293  39.962  -6.093  0.00  0.00     0.085 H 
ATOM     33  C1  520 d   1      69.906  38.902  -7.976  0.00  0.00     0.025 A 
ATOM     34  H2  520 d   1      69.160  40.849  -7.455  0.00  0.00     0.086 H 
ATOM     35  C6  520 d   1      69.736  37.529  -7.839  0.00  0.00    -0.057 A 
ATOM     36  C5  520 d   1      68.686  37.031  -7.074  0.00  0.00    -0.067 A 
ATOM     37  H5  520 d   1      70.421  36.846  -8.328  0.00  0.00     0.086 H 
ATOM     38  H6  520 d   1      68.553  35.961  -6.967  0.00  0.00     0.085 H 
BRANCH  33  39
ATOM     39  N1  520 d   1      70.936  39.390  -8.726  0.00  0.00    -0.399 N 
ATOM     40  H3  520 d   1      71.587  38.741  -9.191  0.00  0.00     0.156 HD
ATOM     41  H4  520 d   1      71.063  40.407  -8.827  0.00  0.00     0.156 HD
ENDBRANCH  33  39
ENDBRANCH  27  29
ENDBRANCH   1  27
TORSDOF 6
