REMARK  12 active torsions:
REMARK  status: ('A' for Active; 'I' for Inactive)
REMARK    1  A    between atoms: N1_1  and  O27_9 
REMARK    2  A    between atoms: C4_2  and  C5_3 
REMARK    3  A    between atoms: C3_11  and  C4_2 
REMARK    4  A    between atoms: C4_2  and  O4_13 
REMARK    5  A    between atoms: C5_3  and  C6_4 
REMARK    6  A    between atoms: C5_3  and  O5_14 
REMARK    7  A    between atoms: C6_4  and  O6_15 
REMARK    8  A    between atoms: C1_8  and  C17_5 
REMARK    9  A    between atoms: C2_10  and  C1_8 
REMARK   10  A    between atoms: C2_10  and  C3_11 
REMARK   11  A    between atoms: C3_11  and  O3_12 
REMARK   12  A    between atoms: O6_15  and  P_16 
ROOT
ATOM      1  C4  52L d   1      42.946-403.437  16.765  0.00  0.00     0.087 C 
ATOM      2  H1  52L d   1      43.306-404.001  17.638  0.00  0.00     0.091 H 
ENDROOT
BRANCH   1   3
ATOM      3  C5  52L d   1      43.922-402.273  16.527  0.00  0.00     0.084 C 
ATOM      4  H2  52L d   1      43.406-401.521  15.912  0.00  0.00     0.090 H 
BRANCH   3   5
ATOM      5  C6  52L d   1      44.333-401.611  17.849  0.00  0.00     0.059 C 
ATOM      6  H3  52L d   1      45.019-402.279  18.391  0.00  0.00     0.079 H 
ATOM      7  H4  52L d   1      43.435-401.434  18.460  0.00  0.00     0.079 H 
BRANCH   5   8
ATOM      8  O6  52L d   1      44.991-400.358  17.600  0.00  0.00    -0.280 OA
BRANCH   8   9
ATOM      9  P   52L d   1      45.777-399.545  18.763  0.00  0.00     0.422 P 
ATOM     10  O2P 52L d   1      44.764-399.410  19.888  0.00  0.00    -0.617 OA
ATOM     11  O3P 52L d   1      46.972-400.410  19.105  0.00  0.00    -0.617 OA
ATOM     12  O1P 52L d   1      46.116-398.236  18.078  0.00  0.00    -0.617 OA
ENDBRANCH   8   9
ENDBRANCH   5   8
ENDBRANCH   3   5
BRANCH   3  13
ATOM     13  O5  52L d   1      45.096-402.704  15.817  0.00  0.00    -0.391 OA
ATOM     14  H11 52L d   1      44.838-403.113  14.999  0.00  0.00     0.210 HD
ENDBRANCH   3  13
ENDBRANCH   1   3
BRANCH   1  15
ATOM     15  C3  52L d   1      42.846-404.416  15.586  0.00  0.00     0.068 C 
ATOM     16  H8  52L d   1      43.859-404.767  15.342  0.00  0.00     0.087 H 
BRANCH  15  17
ATOM     17  C2  52L d   1      41.985-405.632  15.960  0.00  0.00     0.010 C 
ATOM     18  H6  52L d   1      42.316-406.027  16.931  0.00  0.00     0.046 H 
ATOM     19  H7  52L d   1      40.931-405.324  16.029  0.00  0.00     0.046 H 
BRANCH  17  20
ATOM     20  C1  52L d   1      42.124-406.714  14.903  0.00  0.00     0.140 C 
ATOM     21  N1  52L d   1      43.061-407.551  15.057  0.00  0.00    -0.134 NA
BRANCH  21  22
ATOM     22  O27 52L d   1      43.917-407.489  16.167  0.00  0.00    -0.266 OA
ATOM     23  H5  52L d   1      44.554-408.192  16.114  0.00  0.00     0.247 HD
ENDBRANCH  21  22
BRANCH  20  24
ATOM     24  C17 52L d   1      41.254-406.830  13.708  0.00  0.00     0.227 C 
ATOM     25  O30 52L d   1      40.465-405.898  13.414  0.00  0.00    -0.643 OA
ATOM     26  O29 52L d   1      41.320-407.860  12.985  0.00  0.00    -0.643 OA
ENDBRANCH  20  24
ENDBRANCH  17  20
ENDBRANCH  15  17
BRANCH  15  27
ATOM     27  O3  52L d   1      42.294-403.765  14.421  0.00  0.00    -0.393 OA
ATOM     28  H9  52L d   1      42.831-403.014  14.195  0.00  0.00     0.210 HD
ENDBRANCH  15  27
ENDBRANCH   1  15
BRANCH   1  29
ATOM     29  O4  52L d   1      41.637-402.912  17.066  0.00  0.00    -0.390 OA
ATOM     30  H10 52L d   1      41.700-402.307  17.795  0.00  0.00     0.210 HD
ENDBRANCH   1  29
TORSDOF 12
