REMARK  5 active torsions:
REMARK  status: ('A' for Active; 'I' for Inactive)
REMARK    1  A    between atoms: CAO_1  and  CAN_2 
REMARK    2  A    between atoms: CAN_2  and  NAK_3 
REMARK    3  A    between atoms: CAC_15  and  SAP_16 
REMARK    4  A    between atoms: SAP_16  and  NAS_19 
REMARK    5  A    between atoms: NAS_19  and  CAT_20 
ROOT
ATOM      1  NAK EB0 d   1     -12.538   5.665   0.720  0.00  0.00    -0.313 N 
ATOM      2  CAL EB0 d   1     -13.652   5.910  -0.005  0.00  0.00     0.259 A 
ATOM      3  OAM EB0 d   1     -14.729   5.309   0.154  0.00  0.00    -0.267 OA
ATOM      4  CAJ EB0 d   1     -13.375   6.827  -0.963  0.00  0.00     0.045 A 
ATOM      5  CAI EB0 d   1     -14.081   7.445  -1.933  0.00  0.00    -0.067 A 
ATOM      6  CAH EB0 d   1     -13.461   8.387  -2.774  0.00  0.00    -0.081 A 
ATOM      7  CAG EB0 d   1     -12.092   8.672  -2.581  0.00  0.00    -0.071 A 
ATOM      8  CAD EB0 d   1     -11.381   8.013  -1.544  0.00  0.00     0.001 A 
ATOM      9  CAE EB0 d   1     -12.067   7.115  -0.803  0.00  0.00     0.018 A 
ATOM     10  CAF EB0 d   1     -11.550   6.419   0.223  0.00  0.00     0.049 A 
ATOM     11  CAA EB0 d   1     -10.232   6.542   0.531  0.00  0.00    -0.054 A 
ATOM     12  CAB EB0 d   1      -9.447   7.460  -0.180  0.00  0.00    -0.057 A 
ATOM     13  CAC EB0 d   1     -10.003   8.188  -1.239  0.00  0.00     0.091 A 
ATOM     14  H6  EB0 d   1     -15.132   7.214  -2.065  0.00  0.00     0.085 H 
ATOM     15  H7  EB0 d   1     -14.024   8.885  -3.555  0.00  0.00     0.083 H 
ATOM     16  H8  EB0 d   1     -11.588   9.388  -3.220  0.00  0.00     0.084 H 
ATOM     17  H9  EB0 d   1      -9.793   5.938   1.317  0.00  0.00     0.087 H 
ATOM     18  H10 EB0 d   1      -8.408   7.607   0.090  0.00  0.00     0.086 H 
ENDROOT
BRANCH  13  19
ATOM     19  SAP EB0 d   1      -8.923   9.284  -2.155  0.00  0.00     0.264 S 
ATOM     20  OAQ EB0 d   1      -7.516   9.066  -1.601  0.00  0.00    -0.200 OA
ATOM     21  OAR EB0 d   1      -9.395  10.719  -1.968  0.00  0.00    -0.200 OA
BRANCH  19  22
ATOM     22  NAS EB0 d   1      -9.026   8.907  -3.709  0.00  0.00    -0.281 N 
ATOM     23  H11 EB0 d   1      -9.165   9.652  -4.361  0.00  0.00     0.179 HD
BRANCH  22  24
ATOM     24  CAT EB0 d   1      -8.937   7.644  -4.201  0.00  0.00     0.042 A 
ATOM     25  CAU EB0 d   1      -8.182   6.601  -3.663  0.00  0.00    -0.054 A 
ATOM     26  CAV EB0 d   1      -8.124   5.349  -4.291  0.00  0.00    -0.043 A 
ATOM     27  H12 EB0 d   1      -7.631   6.762  -2.744  0.00  0.00     0.087 H 
ATOM     28  CAW EB0 d   1      -8.816   5.124  -5.467  0.00  0.00     0.116 A 
ATOM     29  H13 EB0 d   1      -7.533   4.553  -3.852  0.00  0.00     0.088 H 
ATOM     30  FAZ EB0 d   1      -8.798   3.944  -6.079  0.00  0.00    -0.206 F 
ATOM     31  CAX EB0 d   1      -9.559   6.157  -6.020  0.00  0.00    -0.043 A 
ATOM     32  CAY EB0 d   1      -9.597   7.400  -5.396  0.00  0.00    -0.054 A 
ATOM     33  H14 EB0 d   1     -10.111   5.995  -6.939  0.00  0.00     0.088 H 
ATOM     34  H15 EB0 d   1     -10.160   8.203  -5.858  0.00  0.00     0.087 H 
ENDBRANCH  22  24
ENDBRANCH  19  22
ENDBRANCH  13  19
BRANCH   1  35
ATOM     35  CAN EB0 d   1     -12.424   4.764   1.905  0.00  0.00    -0.000 C 
ATOM     36  H4  EB0 d   1     -11.652   5.133   2.596  0.00  0.00     0.064 H 
ATOM     37  H5  EB0 d   1     -13.387   4.699   2.433  0.00  0.00     0.064 H 
BRANCH  35  38
ATOM     38  CAO EB0 d   1     -12.037   3.424   1.353  0.00  0.00    -0.061 C 
ATOM     39  H1  EB0 d   1     -11.934   2.704   2.178  0.00  0.00     0.029 H 
ATOM     40  H2  EB0 d   1     -11.079   3.510   0.820  0.00  0.00     0.029 H 
ATOM     41  H3  EB0 d   1     -12.814   3.076   0.657  0.00  0.00     0.029 H 
ENDBRANCH  35  38
ENDBRANCH   1  35
TORSDOF 5
