REMARK  3 active torsions:
REMARK  status: ('A' for Active; 'I' for Inactive)
REMARK    1  A    between atoms: CAJ_5  and  CAG_6 
REMARK    2  A    between atoms: CAG_6  and  CAF_7 
REMARK    3  A    between atoms: CAF_7  and  CAI_8 
ROOT
ATOM      1  CAG 6O5 d   1      -4.975  29.633 -11.072  0.00  0.00    -0.011 C 
ATOM      2  H4  6O5 d   1      -4.407  30.572 -10.994  0.00  0.00     0.043 H 
ATOM      3  H5  6O5 d   1      -5.715  29.584 -10.260  0.00  0.00     0.043 H 
ENDROOT
BRANCH   1   4
ATOM      4  CAJ 6O5 d   1      -4.020  28.458 -10.950  0.00  0.00     0.053 A 
ATOM      5  CAE 6O5 d   1      -2.695  28.476 -11.007  0.00  0.00    -0.052 A 
ATOM      6  CAC 6O5 d   1      -2.259  27.228 -10.857  0.00  0.00    -0.059 A 
ATOM      7  H1  6O5 d   1      -2.073  29.358 -11.151  0.00  0.00     0.087 H 
ATOM      8  CAD 6O5 d   1      -3.306  26.420 -10.707  0.00  0.00     0.019 A 
ATOM      9  H2  6O5 d   1      -1.215  26.918 -10.857  0.00  0.00     0.086 H 
ATOM     10  OAH 6O5 d   1      -4.444  27.179 -10.759  0.00  0.00    -0.327 OA
ATOM     11  H3  6O5 d   1      -3.264  25.341 -10.567  0.00  0.00     0.123 H 
ENDBRANCH   1   4
BRANCH   1  12
ATOM     12  CAF 6O5 d   1      -5.697  29.594 -12.411  0.00  0.00     0.021 C 
ATOM     13  H6  6O5 d   1      -6.744  29.297 -12.251  0.00  0.00     0.049 H 
ATOM     14  H7  6O5 d   1      -5.205  28.863 -13.069  0.00  0.00     0.049 H 
BRANCH  12  15
ATOM     15  CAI 6O5 d   1      -5.658  30.971 -13.069  0.00  0.00     0.172 C 
ATOM     16  OAB 6O5 d   1      -6.612  31.737 -12.817  0.00  0.00    -0.648 OA
ATOM     17  OAA 6O5 d   1      -4.673  31.222 -13.801  0.00  0.00    -0.648 OA
ENDBRANCH  12  15
ENDBRANCH   1  12
TORSDOF 3
