REMARK  5 active torsions:
REMARK  status: ('A' for Active; 'I' for Inactive)
REMARK    1  A    between atoms: CAT_6  and  NAS_7 
REMARK    2  A    between atoms: NAS_7  and  SAP_8 
REMARK    3  A    between atoms: SAP_8  and  CAH_11 
REMARK    4  A    between atoms: NAD_23  and  CAM_24 
REMARK    5  A    between atoms: CAM_24  and  CAO_25 
ROOT
ATOM      1  CAH EB3 d   1       5.554  10.207   1.610  0.00  0.00     0.090 A 
ATOM      2  CAG EB3 d   1       6.716   9.682   2.207  0.00  0.00    -0.057 A 
ATOM      3  CAF EB3 d   1       6.619   8.912   3.377  0.00  0.00    -0.054 A 
ATOM      4  CAE EB3 d   1       5.424   8.684   3.943  0.00  0.00     0.049 A 
ATOM      5  CAA EB3 d   1       4.312   9.194   3.356  0.00  0.00     0.018 A 
ATOM      6  CAI EB3 d   1       4.315   9.953   2.241  0.00  0.00     0.001 A 
ATOM      7  CAJ EB3 d   1       3.052  10.395   1.767  0.00  0.00    -0.071 A 
ATOM      8  CAK EB3 d   1       1.896  10.038   2.490  0.00  0.00    -0.081 A 
ATOM      9  CAL EB3 d   1       2.028   9.245   3.657  0.00  0.00    -0.067 A 
ATOM     10  CAB EB3 d   1       3.239   8.817   4.068  0.00  0.00     0.045 A 
ATOM     11  CAC EB3 d   1       3.730   8.072   5.109  0.00  0.00     0.259 A 
ATOM     12  OAN EB3 d   1       3.118   7.401   5.946  0.00  0.00    -0.267 OA
ATOM     13  NAD EB3 d   1       5.051   7.975   5.018  0.00  0.00    -0.313 N 
ATOM     14  H13 EB3 d   1       7.686   9.873   1.763  0.00  0.00     0.086 H 
ATOM     15  H14 EB3 d   1       7.515   8.499   3.826  0.00  0.00     0.087 H 
ATOM     16  H15 EB3 d   1       2.978  10.995   0.867  0.00  0.00     0.084 H 
ATOM     17  H16 EB3 d   1       0.918  10.366   2.157  0.00  0.00     0.083 H 
ATOM     18  H17 EB3 d   1       1.145   8.979   4.226  0.00  0.00     0.085 H 
ENDROOT
BRANCH   1  19
ATOM     19  SAP EB3 d   1       5.750  11.184   0.157  0.00  0.00     0.260 S 
ATOM     20  OAQ EB3 d   1       7.170  11.167  -0.343  0.00  0.00    -0.200 OA
ATOM     21  OAR EB3 d   1       5.173  12.527   0.536  0.00  0.00    -0.200 OA
BRANCH  19  22
ATOM     22  NAS EB3 d   1       4.646  10.656  -1.062  0.00  0.00    -0.311 N 
ATOM     23  H12 EB3 d   1       3.894  11.298  -1.210  0.00  0.00     0.172 HD
BRANCH  22  24
ATOM     24  CAT EB3 d   1       4.565   9.453  -1.944  0.00  0.00     0.020 C 
ATOM     25  CAU EB3 d   1       5.690   9.234  -2.933  0.00  0.00    -0.045 C 
ATOM     26  CAV EB3 d   1       5.791   7.879  -3.559  0.00  0.00    -0.063 C 
ATOM     27  H1  EB3 d   1       5.565   9.966  -3.745  0.00  0.00     0.036 H 
ATOM     28  H2  EB3 d   1       6.636   9.428  -2.407  0.00  0.00     0.036 H 
ATOM     29  CAW EB3 d   1       4.417   7.142  -3.450  0.00  0.00    -0.065 C 
ATOM     30  H3  EB3 d   1       6.562   7.293  -3.038  0.00  0.00     0.033 H 
ATOM     31  H4  EB3 d   1       6.065   7.986  -4.619  0.00  0.00     0.033 H 
ATOM     32  CAX EB3 d   1       3.935   6.999  -2.000  0.00  0.00    -0.063 C 
ATOM     33  H5  EB3 d   1       4.521   6.138  -3.887  0.00  0.00     0.033 H 
ATOM     34  H6  EB3 d   1       3.666   7.713  -4.016  0.00  0.00     0.033 H 
ATOM     35  CAY EB3 d   1       3.956   8.260  -1.197  0.00  0.00    -0.045 C 
ATOM     36  H7  EB3 d   1       4.581   6.264  -1.497  0.00  0.00     0.033 H 
ATOM     37  H8  EB3 d   1       2.901   6.625  -2.020  0.00  0.00     0.033 H 
ATOM     38  H9  EB3 d   1       4.546   8.082  -0.286  0.00  0.00     0.036 H 
ATOM     39  H10 EB3 d   1       2.922   8.514  -0.921  0.00  0.00     0.036 H 
ATOM     40  H11 EB3 d   1       3.749   9.725  -2.629  0.00  0.00     0.073 H 
ENDBRANCH  22  24
ENDBRANCH  19  22
ENDBRANCH   1  19
BRANCH  13  41
ATOM     41  CAM EB3 d   1       5.940   7.285   5.923  0.00  0.00    -0.000 C 
ATOM     42  H18 EB3 d   1       5.510   7.279   6.935  0.00  0.00     0.064 H 
ATOM     43  H19 EB3 d   1       6.917   7.790   5.943  0.00  0.00     0.064 H 
BRANCH  41  44
ATOM     44  CAO EB3 d   1       6.112   5.830   5.418  0.00  0.00    -0.061 C 
ATOM     45  H20 EB3 d   1       6.787   5.285   6.094  0.00  0.00     0.029 H 
ATOM     46  H21 EB3 d   1       6.539   5.842   4.404  0.00  0.00     0.029 H 
ATOM     47  H22 EB3 d   1       5.132   5.331   5.397  0.00  0.00     0.029 H 
ENDBRANCH  41  44
ENDBRANCH  13  41
TORSDOF 5
