REMARK  7 active torsions:
REMARK  status: ('A' for Active; 'I' for Inactive)
REMARK    1  A    between atoms: S_2  and  C11_5 
REMARK    2  A    between atoms: C11_5  and  C10_6 
REMARK    3  A    between atoms: C10_6  and  C9_7 
REMARK    4  A    between atoms: C9_7  and  N1_8 
REMARK    5  A    between atoms: N4_11  and  C7_14 
REMARK    6  A    between atoms: C7_14  and  C8_15 
REMARK    7  A    between atoms: C8_15  and  O8_16 
ROOT
ATOM      1  N1  EP1 d   1      -2.650  26.402 -10.931  0.00  0.00    -0.068 N 
ATOM      2  C2  EP1 d   1      -2.428  25.763  -9.601  0.00  0.00     0.106 C 
ATOM      3  C3  EP1 d   1      -1.668  24.411  -9.653  0.00  0.00     0.106 C 
ATOM      4  N4  EP1 d   1      -0.498  24.475 -10.562  0.00  0.00    -0.066 N 
ATOM      5  C5  EP1 d   1      -1.013  24.718 -11.920  0.00  0.00     0.106 C 
ATOM      6  C6  EP1 d   1      -1.690  26.103 -12.023  0.00  0.00     0.106 C 
ATOM      7  H7  EP1 d   1      -3.545  26.070 -11.255  0.00  0.00     0.280 HD
ATOM      8  H8  EP1 d   1      -3.409  25.587  -9.137  0.00  0.00     0.078 H 
ATOM      9  H9  EP1 d   1      -1.847  26.459  -8.978  0.00  0.00     0.078 H 
ATOM     10  H10 EP1 d   1      -2.355  23.629 -10.010  0.00  0.00     0.078 H 
ATOM     11  H11 EP1 d   1      -1.320  24.159  -8.641  0.00  0.00     0.078 H 
ATOM     12  H12 EP1 d   1      -0.027  23.584 -10.548  0.00  0.00     0.280 HD
ATOM     13  H13 EP1 d   1      -1.749  23.940 -12.169  0.00  0.00     0.078 H 
ATOM     14  H14 EP1 d   1      -0.177  24.674 -12.634  0.00  0.00     0.078 H 
ATOM     15  H15 EP1 d   1      -0.903  26.872 -12.009  0.00  0.00     0.078 H 
ATOM     16  H16 EP1 d   1      -2.232  26.150 -12.979  0.00  0.00     0.078 H 
ENDROOT
BRANCH   1  17
ATOM     17  C9  EP1 d   1      -2.758  27.873 -10.727  0.00  0.00     0.085 C 
ATOM     18  H5  EP1 d   1      -3.266  28.058  -9.769  0.00  0.00     0.076 H 
ATOM     19  H6  EP1 d   1      -1.744  28.298 -10.693  0.00  0.00     0.076 H 
BRANCH  17  20
ATOM     20  C10 EP1 d   1      -3.549  28.577 -11.847  0.00  0.00    -0.028 C 
ATOM     21  H3  EP1 d   1      -2.843  29.167 -12.451  0.00  0.00     0.036 H 
ATOM     22  H4  EP1 d   1      -4.016  27.806 -12.478  0.00  0.00     0.036 H 
BRANCH  20  23
ATOM     23  C11 EP1 d   1      -4.649  29.515 -11.338  0.00  0.00     0.047 C 
ATOM     24  H1  EP1 d   1      -5.311  28.964 -10.654  0.00  0.00     0.060 H 
ATOM     25  H2  EP1 d   1      -4.190  30.360 -10.804  0.00  0.00     0.060 H 
BRANCH  23  26
ATOM     26  S   EP1 d   1      -5.630  30.150 -12.758  0.00  0.00     0.101 S 
ATOM     27  O2S EP1 d   1      -4.702  30.724 -13.735  0.00  0.00    -0.595 OA
ATOM     28  O3S EP1 d   1      -6.364  28.931 -13.261  0.00  0.00    -0.595 OA
ATOM     29  O1S EP1 d   1      -6.639  31.206 -12.370  0.00  0.00    -0.595 OA
ENDBRANCH  23  26
ENDBRANCH  20  23
ENDBRANCH  17  20
ENDBRANCH   1  17
BRANCH   4  30
ATOM     30  C7  EP1 d   1       0.478  25.512 -10.142  0.00  0.00     0.103 C 
ATOM     31  H17 EP1 d   1       0.084  26.041  -9.262  0.00  0.00     0.079 H 
ATOM     32  H18 EP1 d   1       0.621  26.226 -10.966  0.00  0.00     0.079 H 
BRANCH  30  33
ATOM     33  C8  EP1 d   1       1.820  24.886  -9.787  0.00  0.00     0.039 C 
ATOM     34  H19 EP1 d   1       1.681  23.813  -9.591  0.00  0.00     0.076 H 
ATOM     35  H20 EP1 d   1       2.224  25.374  -8.887  0.00  0.00     0.076 H 
BRANCH  33  36
ATOM     36  O8  EP1 d   1       2.742  25.056 -10.875  0.00  0.00    -0.399 OA
ATOM     37  H21 EP1 d   1       3.576  24.663 -10.646  0.00  0.00     0.209 HD
ENDBRANCH  33  36
ENDBRANCH  30  33
ENDBRANCH   4  30
TORSDOF 7
