REMARK  6 active torsions:
REMARK  status: ('A' for Active; 'I' for Inactive)
REMARK    1  A    between atoms: C6_4  and  C7_5 
REMARK    2  A    between atoms: C7_5  and  N_6 
REMARK    3  A    between atoms: C3_9  and  O_10 
REMARK    4  A    between atoms: O_10  and  C2_11 
REMARK    5  A    between atoms: C2_11  and  C1_12 
REMARK    6  A    between atoms: C1_12  and  C_13 
ROOT
ATOM      1 CL   K82 d   1      34.848 152.352 337.799  0.00  0.00    -0.081 Cl
ATOM      2  C4  K82 d   1      33.665 153.600 337.583  0.00  0.00     0.068 A 
ATOM      3  C5  K82 d   1      33.771 154.760 338.322  0.00  0.00    -0.051 A 
ATOM      4  C6  K82 d   1      32.837 155.776 338.170  0.00  0.00    -0.031 A 
ATOM      5  C8  K82 d   1      31.801 155.589 337.265  0.00  0.00    -0.072 A 
ATOM      6  C9  K82 d   1      31.692 154.427 336.523  0.00  0.00    -0.049 A 
ATOM      7  C3  K82 d   1      32.629 153.419 336.676  0.00  0.00     0.090 A 
ATOM      8  H1  K82 d   1      34.588 154.879 339.025  0.00  0.00     0.087 H 
ATOM      9  H7  K82 d   1      31.061 156.371 337.137  0.00  0.00     0.084 H 
ATOM     10  H8  K82 d   1      30.874 154.305 335.822  0.00  0.00     0.087 H 
ENDROOT
BRANCH   7  11
ATOM     11  O   K82 d   1      32.615 152.229 335.998  0.00  0.00    -0.349 OA
BRANCH  11  12
ATOM     12  C2  K82 d   1      31.788 152.132 334.830  0.00  0.00     0.026 C 
ATOM     13  H9  K82 d   1      32.332 152.527 333.960  0.00  0.00     0.075 H 
ATOM     14  H10 K82 d   1      30.867 152.714 334.982  0.00  0.00     0.075 H 
BRANCH  12  15
ATOM     15  C1  K82 d   1      31.440 150.698 334.593  0.00  0.00    -0.048 C 
ATOM     16  H11 K82 d   1      31.306 150.201 335.565  0.00  0.00     0.035 H 
ATOM     17  H12 K82 d   1      32.266 150.219 334.047  0.00  0.00     0.035 H 
BRANCH  15  18
ATOM     18  C   K82 d   1      30.176 150.545 333.792  0.00  0.00    -0.075 C 
ATOM     19  H13 K82 d   1      29.963 149.476 333.644  0.00  0.00     0.027 H 
ATOM     20  H14 K82 d   1      30.300 151.032 332.814  0.00  0.00     0.027 H 
ATOM     21  H15 K82 d   1      29.341 151.014 334.332  0.00  0.00     0.027 H 
ENDBRANCH  15  18
ENDBRANCH  12  15
ENDBRANCH  11  12
ENDBRANCH   7  11
BRANCH   4  22
ATOM     22  C7  K82 d   1      32.977 157.033 338.972  0.00  0.00     0.103 C 
ATOM     23  H2  K82 d   1      33.260 156.784 340.005  0.00  0.00     0.082 H 
ATOM     24  H3  K82 d   1      32.022 157.579 338.975  0.00  0.00     0.082 H 
BRANCH  22  25
ATOM     25  N   K82 d   1      34.018 157.862 338.361  0.00  0.00    -0.075 N 
ATOM     26  H4  K82 d   1      34.124 158.713 338.891  0.00  0.00     0.274 HD
ATOM     27  H5  K82 d   1      33.756 158.086 337.414  0.00  0.00     0.274 HD
ATOM     28  H6  K82 d   1      34.891 157.357 338.358  0.00  0.00     0.274 HD
ENDBRANCH  22  25
ENDBRANCH   4  22
TORSDOF 6
