REMARK  6 active torsions:
REMARK  status: ('A' for Active; 'I' for Inactive)
REMARK    1  A    between atoms: O5'_1  and  C5'_2 
REMARK    2  A    between atoms: C5'_2  and  C4'_3 
REMARK    3  A    between atoms: C1'_5  and  N1_6 
REMARK    4  A    between atoms: C4_9  and  N4_13 
REMARK    5  A    between atoms: C2'_14  and  O2'_15 
REMARK    6  A    between atoms: C3'_16  and  O3'_17 
ROOT
ATOM      1  C4' CTN d   1      21.596   6.694  -6.315  0.00  0.00     0.088 C 
ATOM      2  O4' CTN d   1      20.795   6.074  -5.301  0.00  0.00    -0.353 OA
ATOM      3  C1' CTN d   1      21.295   6.388  -3.995  0.00  0.00     0.141 C 
ATOM      4  C2' CTN d   1      22.450   7.361  -4.173  0.00  0.00     0.105 C 
ATOM      5  C3' CTN d   1      22.853   7.206  -5.627  0.00  0.00     0.091 C 
ATOM      6  H4  CTN d   1      21.047   7.548  -6.739  0.00  0.00     0.090 H 
ATOM      7  H5  CTN d   1      20.499   6.854  -3.396  0.00  0.00     0.123 H 
ATOM      8  H10 CTN d   1      23.289   7.092  -3.514  0.00  0.00     0.093 H 
ATOM      9  H12 CTN d   1      23.660   6.464  -5.715  0.00  0.00     0.091 H 
ENDROOT
BRANCH   3  10
ATOM     10  N1  CTN d   1      21.774   5.180  -3.308  0.00  0.00    -0.280 N 
ATOM     11  C6  CTN d   1      22.394   4.208  -4.002  0.00  0.00    -0.009 A 
ATOM     12  C5  CTN d   1      22.850   3.067  -3.355  0.00  0.00    -0.024 A 
ATOM     13  H6  CTN d   1      22.539   4.317  -5.076  0.00  0.00     0.112 H 
ATOM     14  C4  CTN d   1      22.665   2.943  -1.982  0.00  0.00     0.125 A 
ATOM     15  H7  CTN d   1      23.347   2.278  -3.917  0.00  0.00     0.091 H 
ATOM     16  N3  CTN d   1      22.048   3.921  -1.284  0.00  0.00    -0.293 N 
ATOM     17  C2  CTN d   1      21.601   5.034  -1.907  0.00  0.00     0.330 A 
ATOM     18  H8  CTN d   1      21.921   3.821  -0.297  0.00  0.00     0.172 HD
ATOM     19  O2  CTN d   1      21.039   5.917  -1.226  0.00  0.00    -0.246 OA
BRANCH  14  20
ATOM     20  N4  CTN d   1      23.101   1.843  -1.337  0.00  0.00    -0.284 NA
ATOM     21  H9  CTN d   1      23.563   1.108  -1.850  0.00  0.00     0.188 HD
ENDBRANCH  14  20
ENDBRANCH   3  10
BRANCH   4  22
ATOM     22  O2' CTN d   1      22.025   8.695  -3.872  0.00  0.00    -0.388 OA
ATOM     23  H11 CTN d   1      21.721   8.734  -2.973  0.00  0.00     0.210 HD
ENDBRANCH   4  22
BRANCH   1  24
ATOM     24  C5' CTN d   1      21.909   5.722  -7.449  0.00  0.00     0.043 C 
ATOM     25  H2  CTN d   1      22.764   6.100  -8.028  0.00  0.00     0.078 H 
ATOM     26  H3  CTN d   1      22.159   4.737  -7.027  0.00  0.00     0.078 H 
BRANCH  24  27
ATOM     27  O5' CTN d   1      20.772   5.596  -8.308  0.00  0.00    -0.398 OA
ATOM     28  H1  CTN d   1      20.557   6.446  -8.673  0.00  0.00     0.209 HD
ENDBRANCH  24  27
ENDBRANCH   1  24
BRANCH   5  29
ATOM     29  O3' CTN d   1      23.303   8.438  -6.199  0.00  0.00    -0.390 OA
ATOM     30  H13 CTN d   1      22.605   9.081  -6.153  0.00  0.00     0.210 HD
ENDBRANCH   5  29
TORSDOF 6
