REMARK  3 active torsions:
REMARK  status: ('A' for Active; 'I' for Inactive)
REMARK    1  A    between atoms: C5_4  and  C6_3 
REMARK    2  A    between atoms: C4_5  and  O_9 
REMARK    3  A    between atoms: C1_10  and  C_11 
ROOT
ATOM      1  C2  54G d   1      93.024  16.156 131.504  0.00  0.00    -0.075 A 
ATOM      2  C7  54G d   1      92.740  13.861 130.927  0.00  0.00    -0.058 A 
ATOM      3  C5  54G d   1      92.618  13.515 132.279  0.00  0.00     0.074 A 
ATOM      4  C4  54G d   1      92.739  14.527 133.248  0.00  0.00     0.082 A 
ATOM      5  C3  54G d   1      92.924  15.843 132.849  0.00  0.00    -0.049 A 
ATOM      6  C1  54G d   1      92.952  15.173 130.524  0.00  0.00    -0.061 A 
ATOM      7  H1  54G d   1      93.161  17.190 131.209  0.00  0.00     0.084 H 
ATOM      8  H2  54G d   1      92.667  13.084 130.175  0.00  0.00     0.086 H 
ATOM      9  H3  54G d   1      92.990  16.629 133.593  0.00  0.00     0.087 H 
ENDROOT
BRANCH   6  10
ATOM     10  C   54G d   1      93.177  15.506 129.075  0.00  0.00    -0.051 C 
ATOM     11  H5  54G d   1      93.324  16.591 128.967  0.00  0.00     0.033 H 
ATOM     12  H6  54G d   1      92.302  15.194 128.487  0.00  0.00     0.033 H 
ATOM     13  H7  54G d   1      94.070  14.977 128.712  0.00  0.00     0.033 H 
ENDBRANCH   6  10
BRANCH   3  14
ATOM     14  C6  54G d   1      92.356  12.102 132.696  0.00  0.00     0.212 C 
ATOM     15  O1  54G d   1      92.344  11.779 133.872  0.00  0.00    -0.644 OA
ATOM     16  O2  54G d   1      92.164  11.264 131.724  0.00  0.00    -0.644 OA
ENDBRANCH   3  14
BRANCH   4  17
ATOM     17  O   54G d   1      92.618  14.275 134.583  0.00  0.00    -0.360 OA
ATOM     18  H4  54G d   1      92.497  13.342 134.718  0.00  0.00     0.217 HD
ENDBRANCH   4  17
TORSDOF 3
