REMARK  9 active torsions:
REMARK  status: ('A' for Active; 'I' for Inactive)
REMARK    1  A    between atoms: PB_2  and  O3A_5 
REMARK    2  A    between atoms: O3A_5  and  PA_6 
REMARK    3  A    between atoms: PA_6  and  O5'_9 
REMARK    4  A    between atoms: O5'_9  and  C5'_10 
REMARK    5  A    between atoms: C5'_10  and  C4'_11 
REMARK    6  A    between atoms: C3'_13  and  O3'_14 
REMARK    7  A    between atoms: C2'_15  and  O2'_16 
REMARK    8  A    between atoms: C1'_17  and  N1_18 
REMARK    9  A    between atoms: C4_22  and  N4_23 
ROOT
ATOM      1  C4' CDP d   1     -17.118 -15.166   6.065  0.00  0.00     0.089 C 
ATOM      2  O4' CDP d   1     -15.920 -15.006   5.303  0.00  0.00    -0.353 OA
ATOM      3  C3' CDP d   1     -17.927 -16.236   5.351  0.00  0.00     0.091 C 
ATOM      4  C2' CDP d   1     -17.706 -15.774   3.938  0.00  0.00     0.105 C 
ATOM      5  C1' CDP d   1     -16.229 -15.336   3.954  0.00  0.00     0.141 C 
ATOM      6  H3  CDP d   1     -17.685 -14.223   6.066  0.00  0.00     0.090 H 
ATOM      7  H4  CDP d   1     -17.498 -17.237   5.505  0.00  0.00     0.091 H 
ATOM      8  H6  CDP d   1     -17.887 -16.580   3.212  0.00  0.00     0.093 H 
ATOM      9  H8  CDP d   1     -16.127 -14.436   3.329  0.00  0.00     0.123 H 
ENDROOT
BRANCH   1  10
ATOM     10  C5' CDP d   1     -16.796 -15.528   7.497  0.00  0.00     0.058 C 
ATOM     11  H1  CDP d   1     -16.075 -14.791   7.881  0.00  0.00     0.079 H 
ATOM     12  H2  CDP d   1     -17.726 -15.470   8.081  0.00  0.00     0.079 H 
BRANCH  10  13
ATOM     13  O5' CDP d   1     -16.247 -16.811   7.676  0.00  0.00    -0.287 OA
BRANCH  13  14
ATOM     14  PA  CDP d   1     -15.852 -17.103   9.220  0.00  0.00     0.418 P 
ATOM     15  O1A CDP d   1     -15.128 -18.433   9.178  0.00  0.00    -0.624 OA
ATOM     16  O2A CDP d   1     -17.109 -17.029  10.066  0.00  0.00    -0.624 OA
BRANCH  14  17
ATOM     17  O3A CDP d   1     -14.915 -15.773   9.528  0.00  0.00    -0.173 OA
BRANCH  17  18
ATOM     18  PB  CDP d   1     -14.212 -15.361  10.947  0.00  0.00     0.431 P 
ATOM     19  O3B CDP d   1     -14.474 -16.575  11.830  0.00  0.00    -0.616 OA
ATOM     20  O1B CDP d   1     -12.764 -15.162  10.705  0.00  0.00    -0.616 OA
ATOM     21  O2B CDP d   1     -14.871 -14.096  11.461  0.00  0.00    -0.616 OA
ENDBRANCH  17  18
ENDBRANCH  14  17
ENDBRANCH  13  14
ENDBRANCH  10  13
ENDBRANCH   1  10
BRANCH   3  22
ATOM     22  O3' CDP d   1     -19.289 -16.262   5.792  0.00  0.00    -0.390 OA
ATOM     23  H5  CDP d   1     -19.693 -15.419   5.620  0.00  0.00     0.210 HD
ENDBRANCH   3  22
BRANCH   5  24
ATOM     24  N1  CDP d   1     -15.269 -16.363   3.429  0.00  0.00    -0.280 N 
ATOM     25  C2  CDP d   1     -15.031 -16.437   2.032  0.00  0.00     0.330 A 
ATOM     26  O2  CDP d   1     -15.622 -15.697   1.198  0.00  0.00    -0.246 OA
ATOM     27  N3  CDP d   1     -14.154 -17.369   1.572  0.00  0.00    -0.293 N 
ATOM     28  C4  CDP d   1     -13.546 -18.215   2.408  0.00  0.00     0.125 A 
ATOM     29  H9  CDP d   1     -13.961 -17.422   0.592  0.00  0.00     0.172 HD
ATOM     30  C5  CDP d   1     -13.766 -18.188   3.784  0.00  0.00    -0.024 A 
ATOM     31  C6  CDP d   1     -14.650 -17.233   4.261  0.00  0.00    -0.009 A 
ATOM     32  H11 CDP d   1     -13.266 -18.886   4.454  0.00  0.00     0.091 H 
ATOM     33  H12 CDP d   1     -14.851 -17.181   5.330  0.00  0.00     0.112 H 
BRANCH  28  34
ATOM     34  N4  CDP d   1     -12.709 -19.071   1.881  0.00  0.00    -0.284 NA
ATOM     35  H10 CDP d   1     -12.225 -19.730   2.470  0.00  0.00     0.188 HD
ENDBRANCH  28  34
ENDBRANCH   5  24
BRANCH   4  36
ATOM     36  O2' CDP d   1     -18.547 -14.639   3.648  0.00  0.00    -0.388 OA
ATOM     37  H7  CDP d   1     -18.398 -14.357   2.753  0.00  0.00     0.210 HD
ENDBRANCH   4  36
TORSDOF 9
