REMARK  5 active torsions:
REMARK  status: ('A' for Active; 'I' for Inactive)
REMARK    1  A    between atoms: S_1  and  C1_5 
REMARK    2  A    between atoms: C1_5  and  C2_6 
REMARK    3  A    between atoms: C2_6  and  C3_7 
REMARK    4  A    between atoms: C3_7  and  N_8 
REMARK    5  A    between atoms: N_8  and  C4_9 
ROOT
ATOM      1  C4  CXS d   1      14.095  15.851  31.366  0.00  0.00     0.102 C 
ATOM      2  C5  CXS d   1      13.969  15.032  30.063  0.00  0.00    -0.038 C 
ATOM      3  C6  CXS d   1      12.536  14.789  29.611  0.00  0.00    -0.063 C 
ATOM      4  C7  CXS d   1      11.713  16.077  29.556  0.00  0.00    -0.065 C 
ATOM      5  C8  CXS d   1      11.733  16.776  30.916  0.00  0.00    -0.063 C 
ATOM      6  C9  CXS d   1      13.169  17.102  31.341  0.00  0.00    -0.038 C 
ATOM      7  H9  CXS d   1      13.829  15.222  32.228  0.00  0.00     0.084 H 
ATOM      8  H10 CXS d   1      14.450  14.056  30.222  0.00  0.00     0.036 H 
ATOM      9  H11 CXS d   1      14.495  15.574  29.263  0.00  0.00     0.036 H 
ATOM     10  H12 CXS d   1      12.057  14.094  30.316  0.00  0.00     0.033 H 
ATOM     11  H13 CXS d   1      12.554  14.339  28.608  0.00  0.00     0.033 H 
ATOM     12  H14 CXS d   1      10.674  15.833  29.288  0.00  0.00     0.033 H 
ATOM     13  H15 CXS d   1      12.140  16.748  28.796  0.00  0.00     0.033 H 
ATOM     14  H16 CXS d   1      11.276  16.115  31.668  0.00  0.00     0.033 H 
ATOM     15  H17 CXS d   1      11.156  17.710  30.850  0.00  0.00     0.033 H 
ATOM     16  H18 CXS d   1      13.587  17.833  30.633  0.00  0.00     0.036 H 
ATOM     17  H19 CXS d   1      13.145  17.541  32.349  0.00  0.00     0.036 H 
ENDROOT
BRANCH   1  18
ATOM     18  N   CXS d   1      15.495  16.275  31.465  0.00  0.00    -0.071 N 
ATOM     19  H7  CXS d   1      16.064  15.449  31.561  0.00  0.00     0.277 HD
ATOM     20  H8  CXS d   1      15.737  16.753  30.611  0.00  0.00     0.277 HD
BRANCH  18  21
ATOM     21  C3  CXS d   1      15.803  17.173  32.591  0.00  0.00     0.083 C 
ATOM     22  H5  CXS d   1      15.971  18.195  32.220  0.00  0.00     0.075 H 
ATOM     23  H6  CXS d   1      14.968  17.176  33.307  0.00  0.00     0.075 H 
BRANCH  21  24
ATOM     24  C2  CXS d   1      17.063  16.652  33.265  0.00  0.00    -0.028 C 
ATOM     25  H3  CXS d   1      16.782  16.110  34.180  0.00  0.00     0.036 H 
ATOM     26  H4  CXS d   1      17.580  15.967  32.577  0.00  0.00     0.036 H 
BRANCH  24  27
ATOM     27  C1  CXS d   1      18.009  17.795  33.634  0.00  0.00     0.047 C 
ATOM     28  H1  CXS d   1      18.567  18.102  32.737  0.00  0.00     0.060 H 
ATOM     29  H2  CXS d   1      17.417  18.644  34.005  0.00  0.00     0.060 H 
BRANCH  27  30
ATOM     30  S   CXS d   1      19.196  17.283  34.930  0.00  0.00     0.101 S 
ATOM     31  O1  CXS d   1      20.398  18.163  34.812  0.00  0.00    -0.595 OA
ATOM     32  O2  CXS d   1      19.543  15.855  34.641  0.00  0.00    -0.595 OA
ATOM     33  O3  CXS d   1      18.580  17.427  36.223  0.00  0.00    -0.595 OA
ENDBRANCH  27  30
ENDBRANCH  24  27
ENDBRANCH  21  24
ENDBRANCH  18  21
ENDBRANCH   1  18
TORSDOF 5
