REMARK  11 active torsions:
REMARK  status: ('A' for Active; 'I' for Inactive)
REMARK    1  A    between atoms: N2_16  and  C11_1 
REMARK    2  A    between atoms: C11_1  and  C10_17 
REMARK    3  A    between atoms: C13_3  and  C12_2 
REMARK    4  A    between atoms: C12_2  and  N2_16 
REMARK    5  A    between atoms: C16_5  and  C19_8 
REMARK    6  A    between atoms: C10_17  and  C9_18 
REMARK       I    between atoms: C9_18  and  N1_20 
REMARK    7  A    between atoms: N1_20  and  C8_21 
REMARK    8  A    between atoms: C8_21  and  C7_22 
REMARK    9  A    between atoms: C7_22  and  C6_23 
REMARK       I    between atoms: C6_23  and  N_25 
REMARK   10  A    between atoms: N_25  and  C5_26 
REMARK   11  A    between atoms: C1_31  and  C_32 
ROOT
ATOM      1  C11 54S d   1    -143.272-172.127 361.279  0.00  0.00     0.090 C 
ATOM      2  H1  54S d   1    -143.092-172.111 360.194  0.00  0.00     0.076 H 
ATOM      3  H2  54S d   1    -143.685-171.158 361.597  0.00  0.00     0.076 H 
ENDROOT
BRANCH   1   4
ATOM      4  N2  54S d   1    -141.997-172.345 361.966  0.00  0.00    -0.071 N 
ATOM      5  H13 54S d   1    -141.536-173.139 361.550  0.00  0.00     0.277 HD
ATOM      6  H14 54S d   1    -142.182-172.536 362.938  0.00  0.00     0.277 HD
BRANCH   4   7
ATOM      7  C12 54S d   1    -141.109-171.186 361.875  0.00  0.00     0.105 C 
ATOM      8  H3  54S d   1    -141.035-170.885 360.820  0.00  0.00     0.083 H 
ATOM      9  H4  54S d   1    -141.546-170.364 362.461  0.00  0.00     0.083 H 
BRANCH   7  10
ATOM     10  C13 54S d   1    -139.719-171.459 362.395  0.00  0.00    -0.031 A 
ATOM     11  C14 54S d   1    -139.429-172.617 363.097  0.00  0.00    -0.074 A 
ATOM     12  C15 54S d   1    -138.157-172.862 363.579  0.00  0.00    -0.070 A 
ATOM     13  H5  54S d   1    -140.214-173.344 363.272  0.00  0.00     0.084 H 
ATOM     14  C16 54S d   1    -137.125-171.947 363.366  0.00  0.00    -0.004 A 
ATOM     15  H12 54S d   1    -137.959-173.775 364.129  0.00  0.00     0.084 H 
ATOM     16  C17 54S d   1    -137.430-170.787 362.665  0.00  0.00     0.045 A 
ATOM     17  C18 54S d   1    -138.699-170.543 362.181  0.00  0.00    -0.053 A 
ATOM     18 CL   54S d   1    -136.207-169.588 362.377  0.00  0.00    -0.083 Cl
ATOM     19  H6  54S d   1    -138.900-169.631 361.631  0.00  0.00     0.087 H 
BRANCH  14  20
ATOM     20  C19 54S d   1    -135.761-172.266 363.872  0.00  0.00    -0.024 A 
ATOM     21  C20 54S d   1    -134.716-172.543 362.991  0.00  0.00    -0.072 A 
ATOM     22  C21 54S d   1    -133.455-172.855 363.466  0.00  0.00    -0.082 A 
ATOM     23  H7  54S d   1    -134.894-172.513 361.922  0.00  0.00     0.084 H 
ATOM     24  C22 54S d   1    -133.212-172.899 364.821  0.00  0.00    -0.083 A 
ATOM     25  H8  54S d   1    -132.653-173.066 362.768  0.00  0.00     0.083 H 
ATOM     26  C23 54S d   1    -134.230-172.623 365.703  0.00  0.00    -0.082 A 
ATOM     27  H9  54S d   1    -132.224-173.150 365.190  0.00  0.00     0.083 H 
ATOM     28  C24 54S d   1    -135.494-172.308 365.239  0.00  0.00    -0.072 A 
ATOM     29  H10 54S d   1    -134.040-172.653 366.770  0.00  0.00     0.083 H 
ATOM     30  H11 54S d   1    -136.286-172.091 365.947  0.00  0.00     0.084 H 
ENDBRANCH  14  20
ENDBRANCH   7  10
ENDBRANCH   4   7
ENDBRANCH   1   4
BRANCH   1  31
ATOM     31  C10 54S d   1    -144.281-173.212 361.589  0.00  0.00     0.032 C 
ATOM     32  H15 54S d   1    -144.498-173.197 362.667  0.00  0.00     0.049 H 
ATOM     33  H16 54S d   1    -143.849-174.186 361.316  0.00  0.00     0.049 H 
BRANCH  31  34
ATOM     34  C9  54S d   1    -145.572-173.023 360.831  0.00  0.00     0.219 C 
ATOM     35  O3  54S d   1    -145.588-172.959 359.609  0.00  0.00    -0.274 OA
ATOM     36  N1  54S d   1    -146.673-172.943 361.571  0.00  0.00    -0.361 N 
ATOM     37  H17 54S d   1    -146.609-173.156 362.546  0.00  0.00     0.162 HD
BRANCH  36  38
ATOM     38  C8  54S d   1    -147.969-172.559 361.028  0.00  0.00     0.003 C 
ATOM     39  H18 54S d   1    -147.809-171.954 360.123  0.00  0.00     0.064 H 
ATOM     40  H19 54S d   1    -148.505-171.961 361.779  0.00  0.00     0.064 H 
BRANCH  38  41
ATOM     41  C7  54S d   1    -148.815-173.763 360.667  0.00  0.00     0.024 C 
ATOM     42  H20 54S d   1    -148.244-174.401 359.976  0.00  0.00     0.049 H 
ATOM     43  H21 54S d   1    -149.732-173.413 360.170  0.00  0.00     0.049 H 
BRANCH  41  44
ATOM     44  C6  54S d   1    -149.203-174.584 361.875  0.00  0.00     0.223 C 
ATOM     45  O2  54S d   1    -149.205-174.112 363.003  0.00  0.00    -0.273 OA
ATOM     46  N   54S d   1    -149.499-175.872 361.593  0.00  0.00    -0.327 N 
ATOM     47  H22 54S d   1    -149.396-176.141 360.635  0.00  0.00     0.169 HD
BRANCH  46  48
ATOM     48  C5  54S d   1    -149.936-176.893 362.474  0.00  0.00     0.035 A 
ATOM     49  C4  54S d   1    -150.243-176.677 363.810  0.00  0.00    -0.057 A 
ATOM     50  C3  54S d   1    -150.477-177.755 364.645  0.00  0.00    -0.080 A 
ATOM     51  H23 54S d   1    -150.299-175.667 364.198  0.00  0.00     0.086 H 
ATOM     52  C2  54S d   1    -150.403-179.047 364.157  0.00  0.00    -0.066 A 
ATOM     53  H24 54S d   1    -150.720-177.586 365.688  0.00  0.00     0.083 H 
ATOM     54  C1  54S d   1    -150.111-179.275 362.819  0.00  0.00     0.043 A 
ATOM     55  H25 54S d   1    -150.574-179.886 364.822  0.00  0.00     0.085 H 
ATOM     56  C25 54S d   1    -149.900-178.189 361.978  0.00  0.00    -0.041 A 
ATOM     57  H26 54S d   1    -149.706-178.356 360.925  0.00  0.00     0.088 H 
BRANCH  54  58
ATOM     58  C   54S d   1    -149.867-180.651 362.313  0.00  0.00     0.209 C 
ATOM     59  O1  54S d   1    -149.778-180.877 361.119  0.00  0.00    -0.644 OA
ATOM     60  O   54S d   1    -149.823-181.577 363.222  0.00  0.00    -0.644 OA
ENDBRANCH  54  58
ENDBRANCH  46  48
ENDBRANCH  41  44
ENDBRANCH  38  41
ENDBRANCH  36  38
ENDBRANCH  31  34
ENDBRANCH   1  31
TORSDOF 11
