REMARK  17 active torsions:
REMARK  status: ('A' for Active; 'I' for Inactive)
REMARK    1  A    between atoms: C42_2  and  C41_4 
REMARK    2  A    between atoms: C41_4  and  C40_5 
REMARK    3  A    between atoms: C40_5  and  C29_6 
REMARK    4  A    between atoms: C29_6  and  C37_7 
REMARK    5  A    between atoms: C29_6  and  N28_10 
REMARK       I    between atoms: C37_7  and  N39_8 
REMARK       I    between atoms: N28_10  and  C27_11 
REMARK    6  A    between atoms: C27_11  and  C26_13 
REMARK    7  A    between atoms: C26_13  and  C31_14 
REMARK    8  A    between atoms: C26_13  and  N25_19 
REMARK    9  A    between atoms: C31_14  and  C32_15 
REMARK   10  A    between atoms: C32_15  and  C33_16 
REMARK       I    between atoms: N25_19  and  C20_20 
REMARK   11  A    between atoms: C20_20  and  C19_22 
REMARK   12  A    between atoms: C19_22  and  C21_23 
REMARK   13  A    between atoms: C19_22  and  C71_27 
REMARK   14  A    between atoms: C21_23  and  C22_24 
REMARK   15  A    between atoms: C71_27  and  C9_28 
REMARK   16  A    between atoms: C7_32  and  C6_33 
REMARK   17  A    between atoms: C3_38  and  C12_39 
ROOT
ATOM      1  C19 55L d   1       8.387  25.632   2.749  0.00  0.00     0.038 C 
ATOM      2  H15 55L d   1       7.388  25.968   2.434  0.00  0.00     0.056 H 
ENDROOT
BRANCH   1   3
ATOM      3  C20 55L d   1       8.987  26.607   3.711  0.00  0.00     0.223 C 
ATOM      4  N25 55L d   1       8.306  27.709   3.976  0.00  0.00    -0.347 N 
ATOM      5  H14 55L d   1       7.364  27.815   3.658  0.00  0.00     0.163 HD
ATOM      6  O30 55L d   1      10.080  26.385   4.210  0.00  0.00    -0.273 OA
BRANCH   4   7
ATOM      7  C26 55L d   1       8.954  28.765   4.739  0.00  0.00     0.090 C 
ATOM      8  H9  55L d   1       9.861  28.325   5.179  0.00  0.00     0.087 H 
BRANCH   7   9
ATOM      9  C27 55L d   1       8.087  29.205   5.886  0.00  0.00     0.241 C 
ATOM     10  N28 55L d   1       8.712  29.844   6.868  0.00  0.00    -0.346 N 
ATOM     11  H8  55L d   1       9.712  29.844   6.877  0.00  0.00     0.163 HD
ATOM     12  O36 55L d   1       6.876  28.959   5.899  0.00  0.00    -0.271 OA
BRANCH  10  13
ATOM     13  C29 55L d   1       8.009  30.543   7.931  0.00  0.00     0.089 C 
ATOM     14  H5  55L d   1       7.478  29.800   8.543  0.00  0.00     0.087 H 
BRANCH  13  15
ATOM     15  C40 55L d   1       9.012  31.300   8.784  0.00  0.00    -0.029 C 
ATOM     16  H3  55L d   1       9.829  31.627   8.124  0.00  0.00     0.037 H 
ATOM     17  H4  55L d   1       8.498  32.181   9.196  0.00  0.00     0.037 H 
BRANCH  15  18
ATOM     18  C41 55L d   1       9.636  30.550   9.946  0.00  0.00     0.018 C 
ATOM     19  H1  55L d   1       8.851  30.023  10.507  0.00  0.00     0.049 H 
ATOM     20  H2  55L d   1      10.365  29.821   9.563  0.00  0.00     0.049 H 
BRANCH  18  21
ATOM     21  C42 55L d   1      10.331  31.527  10.852  0.00  0.00     0.172 C 
ATOM     22  O43 55L d   1      10.981  32.436  10.349  0.00  0.00    -0.648 OA
ATOM     23  O44 55L d   1      10.209  31.374  12.136  0.00  0.00    -0.648 OA
ENDBRANCH  18  21
ENDBRANCH  15  18
ENDBRANCH  13  15
BRANCH  13  24
ATOM     24  C37 55L d   1       7.027  31.572   7.444  0.00  0.00     0.238 C 
ATOM     25  N39 55L d   1       7.473  32.404   6.523  0.00  0.00    -0.368 N 
ATOM     26  H6  55L d   1       6.871  33.113   6.156  0.00  0.00     0.159 HD
ATOM     27  H7  55L d   1       8.413  32.326   6.192  0.00  0.00     0.159 HD
ATOM     28  O38 55L d   1       5.890  31.642   7.911  0.00  0.00    -0.271 OA
ENDBRANCH  13  24
ENDBRANCH  10  13
ENDBRANCH   7   9
BRANCH   7  29
ATOM     29  C31 55L d   1       9.426  29.938   3.862  0.00  0.00    -0.029 C 
ATOM     30  H10 55L d   1      10.135  29.551   3.116  0.00  0.00     0.037 H 
ATOM     31  H11 55L d   1       9.935  30.671   4.506  0.00  0.00     0.037 H 
BRANCH  29  32
ATOM     32  C32 55L d   1       8.291  30.647   3.127  0.00  0.00     0.018 C 
ATOM     33  H12 55L d   1       7.611  31.091   3.869  0.00  0.00     0.049 H 
ATOM     34  H13 55L d   1       7.743  29.908   2.524  0.00  0.00     0.049 H 
BRANCH  32  35
ATOM     35  C33 55L d   1       8.801  31.747   2.209  0.00  0.00     0.172 C 
ATOM     36  O35 55L d   1       9.682  32.606   2.635  0.00  0.00    -0.648 OA
ATOM     37  O34 55L d   1       8.333  31.804   1.052  0.00  0.00    -0.648 OA
ENDBRANCH  32  35
ENDBRANCH  29  32
ENDBRANCH   7  29
ENDBRANCH   4   7
ENDBRANCH   1   3
BRANCH   1  38
ATOM     38  C21 55L d   1       9.313  25.530   1.534  0.00  0.00     0.027 C 
ATOM     39  H16 55L d   1      10.245  25.033   1.843  0.00  0.00     0.050 H 
ATOM     40  H17 55L d   1       9.540  26.546   1.178  0.00  0.00     0.050 H 
BRANCH  38  41
ATOM     41  C22 55L d   1       8.701  24.745   0.396  0.00  0.00     0.173 C 
ATOM     42  O24 55L d   1       9.088  23.574   0.192  0.00  0.00    -0.648 OA
ATOM     43  O23 55L d   1       7.812  25.278  -0.305  0.00  0.00    -0.648 OA
ENDBRANCH  38  41
ENDBRANCH   1  38
BRANCH   1  44
ATOM     44  C71 55L d   1       8.287  24.277   3.451  0.00  0.00    -0.006 C 
ATOM     45  H18 55L d   1       9.149  24.207   4.131  0.00  0.00     0.044 H 
ATOM     46  H19 55L d   1       8.373  23.507   2.670  0.00  0.00     0.044 H 
BRANCH  44  47
ATOM     47  C9  55L d   1       7.072  23.942   4.257  0.00  0.00     0.082 A 
ATOM     48  C8  55L d   1       5.757  24.214   4.235  0.00  0.00    -0.021 A 
ATOM     49  C7  55L d   1       5.187  23.513   5.304  0.00  0.00     0.097 A 
ATOM     50  H20 55L d   1       5.236  24.854   3.525  0.00  0.00     0.091 H 
ATOM     51  N11 55L d   1       6.096  22.820   5.949  0.00  0.00    -0.128 NA
ATOM     52  O10 55L d   1       7.321  23.078   5.288  0.00  0.00    -0.217 OA
BRANCH  49  53
ATOM     53  C6  55L d   1       3.763  23.436   5.738  0.00  0.00    -0.005 A 
ATOM     54  C1  55L d   1       3.410  22.631   6.819  0.00  0.00    -0.070 A 
ATOM     55  C2  55L d   1       2.082  22.532   7.217  0.00  0.00    -0.071 A 
ATOM     56  H21 55L d   1       4.175  22.079   7.353  0.00  0.00     0.084 H 
ATOM     57  C3  55L d   1       1.087  23.221   6.531  0.00  0.00    -0.026 A 
ATOM     58  H22 55L d   1       1.820  21.914   8.068  0.00  0.00     0.084 H 
ATOM     59  C4  55L d   1       1.445  24.008   5.446  0.00  0.00    -0.071 A 
ATOM     60  C5  55L d   1       2.767  24.107   5.041  0.00  0.00    -0.070 A 
ATOM     61  H24 55L d   1       0.679  24.554   4.907  0.00  0.00     0.084 H 
ATOM     62  H23 55L d   1       3.024  24.710   4.178  0.00  0.00     0.084 H 
BRANCH  57  63
ATOM     63  C12 55L d   1      -0.334  23.133   6.936  0.00  0.00    -0.024 A 
ATOM     64  C17 55L d   1      -0.906  21.901   7.216  0.00  0.00    -0.051 A 
ATOM     65  C16 55L d   1      -2.243  21.848   7.585  0.00  0.00     0.034 A 
ATOM     66  H25 55L d   1      -0.318  20.993   7.148  0.00  0.00     0.087 H 
ATOM     67  C15 55L d   1      -3.010  22.989   7.670  0.00  0.00    -0.062 A 
ATOM     68 CL   55L d   1      -2.963  20.316   7.943  0.00  0.00    -0.084 Cl
ATOM     69  C14 55L d   1      -2.442  24.211   7.386  0.00  0.00    -0.081 A 
ATOM     70  H28 55L d   1      -4.053  22.925   7.958  0.00  0.00     0.086 H 
ATOM     71  C13 55L d   1      -1.106  24.282   7.013  0.00  0.00    -0.072 A 
ATOM     72  H27 55L d   1      -3.036  25.115   7.453  0.00  0.00     0.083 H 
ATOM     73  H26 55L d   1      -0.663  25.244   6.780  0.00  0.00     0.084 H 
ENDBRANCH  57  63
ENDBRANCH  49  53
ENDBRANCH  44  47
ENDBRANCH   1  44
TORSDOF 17
