REMARK  8 active torsions:
REMARK  status: ('A' for Active; 'I' for Inactive)
REMARK    1  A    between atoms: CAW_1  and  CAV_2 
REMARK    2  A    between atoms: CAV_2  and  CAS_3 
REMARK    3  A    between atoms: CAS_3  and  CAR_4 
REMARK    4  A    between atoms: CAR_4  and  SAQ_5 
REMARK    5  A    between atoms: SAQ_5  and  NAP_8 
REMARK    6  A    between atoms: NAP_8  and  CAC_9 
REMARK    7  A    between atoms: NAK_21  and  CAN_22 
REMARK    8  A    between atoms: CAN_22  and  CAO_23 
ROOT
ATOM      1  CAC E0A d   1      -5.311  20.730  -4.089  0.00  0.00     0.053 A 
ATOM      2  CAB E0A d   1      -5.732  19.387  -4.170  0.00  0.00    -0.054 A 
ATOM      3  CAA E0A d   1      -6.426  18.812  -3.086  0.00  0.00    -0.054 A 
ATOM      4  CAF E0A d   1      -6.667  19.548  -1.961  0.00  0.00     0.049 A 
ATOM      5  CAE E0A d   1      -6.249  20.807  -1.883  0.00  0.00     0.019 A 
ATOM      6  CAD E0A d   1      -5.591  21.450  -2.886  0.00  0.00     0.005 A 
ATOM      7  CAG E0A d   1      -5.207  22.786  -2.598  0.00  0.00    -0.070 A 
ATOM      8  CAH E0A d   1      -5.556  23.357  -1.360  0.00  0.00    -0.081 A 
ATOM      9  CAI E0A d   1      -6.230  22.598  -0.388  0.00  0.00    -0.067 A 
ATOM     10  CAJ E0A d   1      -6.593  21.332  -0.669  0.00  0.00     0.045 A 
ATOM     11  CAL E0A d   1      -7.240  20.356   0.003  0.00  0.00     0.259 A 
ATOM     12  OAM E0A d   1      -7.802  20.408   1.121  0.00  0.00    -0.267 OA
ATOM     13  NAK E0A d   1      -7.309  19.266  -0.798  0.00  0.00    -0.313 N 
ATOM     14  H11 E0A d   1      -5.524  18.802  -5.058  0.00  0.00     0.087 H 
ATOM     15  H12 E0A d   1      -6.769  17.785  -3.145  0.00  0.00     0.087 H 
ATOM     16  H13 E0A d   1      -4.649  23.362  -3.327  0.00  0.00     0.084 H 
ATOM     17  H14 E0A d   1      -5.303  24.391  -1.154  0.00  0.00     0.083 H 
ATOM     18  H15 E0A d   1      -6.456  23.029   0.581  0.00  0.00     0.085 H 
ENDROOT
BRANCH   1  19
ATOM     19  NAP E0A d   1      -4.616  21.376  -5.086  0.00  0.00    -0.284 N 
ATOM     20  H10 E0A d   1      -3.860  21.983  -4.840  0.00  0.00     0.178 HD
BRANCH  19  21
ATOM     21  SAQ E0A d   1      -4.990  21.178  -6.636  0.00  0.00     0.231 S 
ATOM     22  OAT E0A d   1      -4.647  19.779  -7.096  0.00  0.00    -0.206 OA
ATOM     23  OAU E0A d   1      -4.264  22.235  -7.458  0.00  0.00    -0.206 OA
BRANCH  21  24
ATOM     24  CAR E0A d   1      -6.772  21.380  -6.898  0.00  0.00     0.046 C 
ATOM     25  H8  E0A d   1      -7.031  21.164  -7.945  0.00  0.00     0.058 H 
ATOM     26  H9  E0A d   1      -7.334  20.706  -6.235  0.00  0.00     0.058 H 
BRANCH  24  27
ATOM     27  CAS E0A d   1      -7.085  22.826  -6.566  0.00  0.00    -0.052 C 
ATOM     28  H6  E0A d   1      -6.960  23.022  -5.491  0.00  0.00     0.034 H 
ATOM     29  H7  E0A d   1      -6.445  23.512  -7.141  0.00  0.00     0.034 H 
BRANCH  27  30
ATOM     30  CAV E0A d   1      -8.529  22.958  -6.977  0.00  0.00    -0.068 C 
ATOM     31  H4  E0A d   1      -8.640  22.884  -8.069  0.00  0.00     0.032 H 
ATOM     32  H5  E0A d   1      -9.152  22.192  -6.492  0.00  0.00     0.032 H 
BRANCH  30  33
ATOM     33  CAW E0A d   1      -8.875  24.316  -6.494  0.00  0.00    -0.076 C 
ATOM     34  H1  E0A d   1      -9.925  24.536  -6.739  0.00  0.00     0.027 H 
ATOM     35  H2  E0A d   1      -8.223  25.056  -6.981  0.00  0.00     0.027 H 
ATOM     36  H3  E0A d   1      -8.735  24.364  -5.404  0.00  0.00     0.027 H 
ENDBRANCH  30  33
ENDBRANCH  27  30
ENDBRANCH  24  27
ENDBRANCH  21  24
ENDBRANCH  19  21
ENDBRANCH   1  19
BRANCH  13  37
ATOM     37  CAN E0A d   1      -7.965  18.050  -0.394  0.00  0.00    -0.000 C 
ATOM     38  H16 E0A d   1      -8.016  17.996   0.704  0.00  0.00     0.064 H 
ATOM     39  H17 E0A d   1      -7.414  17.179  -0.779  0.00  0.00     0.064 H 
BRANCH  37  40
ATOM     40  CAO E0A d   1      -9.364  18.079  -0.978  0.00  0.00    -0.061 C 
ATOM     41  H18 E0A d   1      -9.900  17.163  -0.691  0.00  0.00     0.029 H 
ATOM     42  H19 E0A d   1      -9.302  18.139  -2.075  0.00  0.00     0.029 H 
ATOM     43  H20 E0A d   1      -9.904  18.956  -0.592  0.00  0.00     0.029 H 
ENDBRANCH  37  40
ENDBRANCH  13  37
TORSDOF 8
