REMARK  18 active torsions:
REMARK  status: ('A' for Active; 'I' for Inactive)
REMARK    1  A    between atoms: C17_5  and  C25_4 
REMARK       I    between atoms: C25_4  and  N2_34 
REMARK    2  A    between atoms: C16_6  and  C17_5 
REMARK    3  A    between atoms: C17_5  and  C18_23 
REMARK    4  A    between atoms: C15_15  and  C16_6 
REMARK    5  A    between atoms: C12_9  and  C13_8 
REMARK    6  A    between atoms: C6_22  and  C7_12 
REMARK    7  A    between atoms: C18_23  and  P1_24 
REMARK    8  A    between atoms: P1_24  and  C19_27 
REMARK    9  A    between atoms: N2_34  and  C26_35 
REMARK   10  A    between atoms: C26_35  and  C30_36 
REMARK   11  A    between atoms: C26_35  and  C27_38 
REMARK       I    between atoms: C30_36  and  N3_43 
REMARK   12  A    between atoms: C27_38  and  C28_39 
REMARK   13  A    between atoms: C28_39  and  C29_40 
REMARK   14  A    between atoms: N3_43  and  C31_44 
REMARK   15  A    between atoms: C31_44  and  C35_45 
REMARK   16  A    between atoms: C31_44  and  C32_47 
REMARK       I    between atoms: C35_45  and  N4_52 
REMARK   17  A    between atoms: C32_47  and  C33_48 
REMARK   18  A    between atoms: C33_48  and  C34_49 
ROOT
ATOM      1  C17 R47 d   1       8.564  25.685   2.453  0.00  0.00     0.038 C 
ATOM      2  H1  R47 d   1       7.538  25.850   2.092  0.00  0.00     0.056 H 
ENDROOT
BRANCH   1   3
ATOM      3  C25 R47 d   1       8.962  26.719   3.449  0.00  0.00     0.223 C 
ATOM      4  O4  R47 d   1       9.879  26.540   4.223  0.00  0.00    -0.273 OA
ATOM      5  N2  R47 d   1       8.262  27.841   3.404  0.00  0.00    -0.347 N 
ATOM      6  H19 R47 d   1       7.504  27.931   2.758  0.00  0.00     0.163 HD
BRANCH   5   7
ATOM      7  C26 R47 d   1       8.592  28.939   4.289  0.00  0.00     0.090 C 
ATOM      8  H20 R47 d   1       9.663  28.861   4.528  0.00  0.00     0.087 H 
BRANCH   7   9
ATOM      9  C30 R47 d   1       7.846  28.977   5.584  0.00  0.00     0.241 C 
ATOM     10  O7  R47 d   1       6.702  28.589   5.692  0.00  0.00    -0.271 OA
ATOM     11  N3  R47 d   1       8.505  29.504   6.600  0.00  0.00    -0.346 N 
ATOM     12  H25 R47 d   1       9.445  29.817   6.461  0.00  0.00     0.163 HD
BRANCH  11  13
ATOM     13  C31 R47 d   1       7.906  29.640   7.902  0.00  0.00     0.089 C 
ATOM     14  H26 R47 d   1       7.500  28.673   8.235  0.00  0.00     0.087 H 
BRANCH  13  15
ATOM     15  C35 R47 d   1       6.806  30.670   7.898  0.00  0.00     0.238 C 
ATOM     16  O10 R47 d   1       5.789  30.488   8.556  0.00  0.00    -0.271 OA
ATOM     17  N4  R47 d   1       7.000  31.763   7.158  0.00  0.00    -0.368 N 
ATOM     18  H31 R47 d   1       6.298  32.475   7.124  0.00  0.00     0.159 HD
ATOM     19  H32 R47 d   1       7.847  31.871   6.638  0.00  0.00     0.159 HD
ENDBRANCH  13  15
BRANCH  13  20
ATOM     20  C32 R47 d   1       9.020  30.095   8.824  0.00  0.00    -0.029 C 
ATOM     21  H27 R47 d   1       9.348  31.094   8.501  0.00  0.00     0.037 H 
ATOM     22  H28 R47 d   1       9.856  29.386   8.730  0.00  0.00     0.037 H 
BRANCH  20  23
ATOM     23  C33 R47 d   1       8.628  30.174  10.283  0.00  0.00     0.018 C 
ATOM     24  H29 R47 d   1       8.129  29.243  10.589  0.00  0.00     0.049 H 
ATOM     25  H30 R47 d   1       7.949  31.024  10.444  0.00  0.00     0.049 H 
BRANCH  23  26
ATOM     26  C34 R47 d   1       9.893  30.366  11.080  0.00  0.00     0.172 C 
ATOM     27  O8  R47 d   1      10.370  31.480  11.204  0.00  0.00    -0.648 OA
ATOM     28  O9  R47 d   1      10.505  29.309  11.617  0.00  0.00    -0.648 OA
ENDBRANCH  23  26
ENDBRANCH  20  23
ENDBRANCH  13  20
ENDBRANCH  11  13
ENDBRANCH   7   9
BRANCH   7  29
ATOM     29  C27 R47 d   1       8.345  30.250   3.545  0.00  0.00    -0.029 C 
ATOM     30  H21 R47 d   1       8.482  31.085   4.247  0.00  0.00     0.037 H 
ATOM     31  H22 R47 d   1       7.311  30.253   3.168  0.00  0.00     0.037 H 
BRANCH  29  32
ATOM     32  C28 R47 d   1       9.293  30.440   2.370  0.00  0.00     0.018 C 
ATOM     33  H23 R47 d   1       9.054  29.689   1.602  0.00  0.00     0.049 H 
ATOM     34  H24 R47 d   1      10.324  30.288   2.723  0.00  0.00     0.049 H 
BRANCH  32  35
ATOM     35  C29 R47 d   1       9.194  31.814   1.748  0.00  0.00     0.172 C 
ATOM     36  O5  R47 d   1       8.523  31.995   0.744  0.00  0.00    -0.648 OA
ATOM     37  O6  R47 d   1       9.880  32.757   2.388  0.00  0.00    -0.648 OA
ENDBRANCH  32  35
ENDBRANCH  29  32
ENDBRANCH   7  29
ENDBRANCH   5   7
ENDBRANCH   1   3
BRANCH   1  38
ATOM     38  C16 R47 d   1       8.700  24.306   3.073  0.00  0.00    -0.006 C 
ATOM     39  H2  R47 d   1       9.602  24.295   3.702  0.00  0.00     0.044 H 
ATOM     40  H3  R47 d   1       8.809  23.570   2.263  0.00  0.00     0.044 H 
BRANCH  38  41
ATOM     41  C15 R47 d   1       7.524  23.910   3.921  0.00  0.00     0.082 A 
ATOM     42  O1  R47 d   1       7.788  22.978   4.879  0.00  0.00    -0.217 OA
ATOM     43  N1  R47 d   1       6.589  22.706   5.578  0.00  0.00    -0.128 NA
ATOM     44  C13 R47 d   1       5.684  23.469   5.029  0.00  0.00     0.097 A 
ATOM     45  C14 R47 d   1       6.223  24.227   3.995  0.00  0.00    -0.021 A 
ATOM     46  H4  R47 d   1       5.691  24.940   3.367  0.00  0.00     0.091 H 
BRANCH  44  47
ATOM     47  C12 R47 d   1       4.286  23.406   5.516  0.00  0.00    -0.005 A 
ATOM     48  C11 R47 d   1       3.311  24.107   4.818  0.00  0.00    -0.070 A 
ATOM     49  C10 R47 d   1       1.991  24.055   5.228  0.00  0.00    -0.071 A 
ATOM     50  H5  R47 d   1       3.585  24.696   3.950  0.00  0.00     0.084 H 
ATOM     51  C7  R47 d   1       1.656  23.296   6.337  0.00  0.00    -0.026 A 
ATOM     52  H6  R47 d   1       1.227  24.602   4.687  0.00  0.00     0.084 H 
ATOM     53  C8  R47 d   1       2.621  22.569   7.035  0.00  0.00    -0.071 A 
ATOM     54  C9  R47 d   1       3.946  22.620   6.618  0.00  0.00    -0.070 A 
ATOM     55  H7  R47 d   1       2.340  21.970   7.894  0.00  0.00     0.084 H 
ATOM     56  H8  R47 d   1       4.707  22.055   7.143  0.00  0.00     0.084 H 
BRANCH  51  57
ATOM     57  C6  R47 d   1       0.241  23.248   6.748  0.00  0.00    -0.024 A 
ATOM     58  C2  R47 d   1      -0.305  22.085   7.248  0.00  0.00    -0.051 A 
ATOM     59  C1  R47 d   1      -1.643  22.074   7.606  0.00  0.00     0.034 A 
ATOM     60  H9  R47 d   1       0.303  21.194   7.359  0.00  0.00     0.087 H 
ATOM     61 CL1  R47 d   1      -2.320  20.616   8.237  0.00  0.00    -0.084 Cl
ATOM     62  C3  R47 d   1      -2.440  23.200   7.463  0.00  0.00    -0.062 A 
ATOM     63  C4  R47 d   1      -1.889  24.359   6.949  0.00  0.00    -0.081 A 
ATOM     64  H10 R47 d   1      -3.485  23.172   7.751  0.00  0.00     0.086 H 
ATOM     65  C5  R47 d   1      -0.548  24.375   6.588  0.00  0.00    -0.072 A 
ATOM     66  H11 R47 d   1      -2.498  25.247   6.829  0.00  0.00     0.083 H 
ATOM     67  H12 R47 d   1      -0.114  25.279   6.177  0.00  0.00     0.084 H 
ENDBRANCH  51  57
ENDBRANCH  44  47
ENDBRANCH  38  41
ENDBRANCH   1  38
BRANCH   1  68
ATOM     68  C18 R47 d   1       9.573  25.804   1.336  0.00  0.00     0.023 C 
ATOM     69  H13 R47 d   1      10.522  25.381   1.696  0.00  0.00     0.050 H 
ATOM     70  H14 R47 d   1       9.707  26.874   1.119  0.00  0.00     0.050 H 
BRANCH  68  71
ATOM     71  P1  R47 d   1       9.157  24.978  -0.215  0.00  0.00     0.141 P 
ATOM     72  O2  R47 d   1       9.458  23.482  -0.125  0.00  0.00    -0.664 OA
ATOM     73  O3  R47 d   1       7.717  25.261  -0.528  0.00  0.00    -0.664 OA
BRANCH  71  74
ATOM     74  C19 R47 d   1      10.228  25.747  -1.422  0.00  0.00     0.030 A 
ATOM     75  C20 R47 d   1       9.717  26.368  -2.555  0.00  0.00    -0.066 A 
ATOM     76  C21 R47 d   1      10.590  26.956  -3.467  0.00  0.00    -0.065 A 
ATOM     77  H15 R47 d   1       8.647  26.395  -2.728  0.00  0.00     0.085 H 
ATOM     78  C22 R47 d   1      11.958  26.914  -3.227  0.00  0.00     0.011 A 
ATOM     79  H16 R47 d   1      10.206  27.442  -4.356  0.00  0.00     0.085 H 
ATOM     80 BR1  R47 d   1      13.164  27.706  -4.445  0.00  0.00    -0.051 Br
ATOM     81  C23 R47 d   1      12.469  26.300  -2.097  0.00  0.00    -0.065 A 
ATOM     82  C24 R47 d   1      11.598  25.710  -1.195  0.00  0.00    -0.066 A 
ATOM     83  H17 R47 d   1      13.538  26.281  -1.919  0.00  0.00     0.085 H 
ATOM     84  H18 R47 d   1      11.987  25.218  -0.310  0.00  0.00     0.085 H 
ENDBRANCH  71  74
ENDBRANCH  68  71
ENDBRANCH   1  68
TORSDOF 18
