REMARK  7 active torsions:
REMARK  status: ('A' for Active; 'I' for Inactive)
REMARK       I    between atoms: NAX_3  and  CBA_4 
REMARK    1  A    between atoms: CBA_4  and  CBB_6 
REMARK    2  A    between atoms: CAU_9  and  CAT_10 
REMARK    3  A    between atoms: CAT_10  and  NAS_11 
REMARK    4  A    between atoms: NAS_11  and  SAP_12 
REMARK    5  A    between atoms: SAP_12  and  CAC_15 
REMARK    6  A    between atoms: NAK_27  and  CAN_28 
REMARK    7  A    between atoms: CAN_28  and  CAO_29 
ROOT
ATOM      1  SAP E0B d   1       5.554  11.418   0.608  0.00  0.00     0.259 S 
ATOM      2  OAQ E0B d   1       6.997  11.435   0.252  0.00  0.00    -0.201 OA
ATOM      3  OAR E0B d   1       4.876  12.733   0.827  0.00  0.00    -0.201 OA
ENDROOT
BRANCH   1   4
ATOM      4  NAS E0B d   1       4.726  10.711  -0.601  0.00  0.00    -0.315 N 
ATOM      5  H15 E0B d   1       4.017  11.198  -1.111  0.00  0.00     0.172 HD
BRANCH   4   6
ATOM      6  CAT E0B d   1       5.084   9.291  -0.907  0.00  0.00     0.006 C 
ATOM      7  H13 E0B d   1       6.156   9.141  -0.712  0.00  0.00     0.065 H 
ATOM      8  H14 E0B d   1       4.496   8.625  -0.259  0.00  0.00     0.065 H 
BRANCH   6   9
ATOM      9  CAU E0B d   1       4.791   8.953  -2.365  0.00  0.00    -0.035 C 
ATOM     10  CAV E0B d   1       5.732   9.690  -3.353  0.00  0.00    -0.045 C 
ATOM     11  CAW E0B d   1       5.380   9.322  -4.776  0.00  0.00    -0.002 C 
ATOM     12  H1  E0B d   1       5.621  10.776  -3.220  0.00  0.00     0.036 H 
ATOM     13  H2  E0B d   1       6.773   9.400  -3.149  0.00  0.00     0.036 H 
ATOM     14  NAX E0B d   1       5.636   7.851  -4.864  0.00  0.00    -0.352 N 
ATOM     15  H3  E0B d   1       6.017   9.869  -5.487  0.00  0.00     0.064 H 
ATOM     16  H4  E0B d   1       4.323   9.544  -4.984  0.00  0.00     0.064 H 
ATOM     17  CBA E0B d   1       6.685   7.303  -5.525  0.00  0.00     0.215 C 
ATOM     18  CAY E0B d   1       4.683   7.116  -3.977  0.00  0.00    -0.002 C 
ATOM     19  OBC E0B d   1       7.483   7.956  -6.200  0.00  0.00    -0.274 OA
ATOM     20  CAZ E0B d   1       4.969   7.435  -2.536  0.00  0.00    -0.045 C 
ATOM     21  H8  E0B d   1       4.795   6.034  -4.139  0.00  0.00     0.064 H 
ATOM     22  H9  E0B d   1       3.653   7.418  -4.219  0.00  0.00     0.064 H 
ATOM     23  H10 E0B d   1       5.999   7.145  -2.283  0.00  0.00     0.036 H 
ATOM     24  H11 E0B d   1       4.266   6.897  -1.884  0.00  0.00     0.036 H 
ATOM     25  H12 E0B d   1       3.752   9.232  -2.594  0.00  0.00     0.042 H 
BRANCH  17  26
ATOM     26  CBB E0B d   1       6.879   5.780  -5.529  0.00  0.00    -0.003 C 
ATOM     27  H5  E0B d   1       7.776   5.526  -6.112  0.00  0.00     0.040 H 
ATOM     28  H6  E0B d   1       5.999   5.300  -5.982  0.00  0.00     0.040 H 
ATOM     29  H7  E0B d   1       7.000   5.423  -4.496  0.00  0.00     0.040 H 
ENDBRANCH  17  26
ENDBRANCH   6   9
ENDBRANCH   4   6
ENDBRANCH   1   4
BRANCH   1  30
ATOM     30  CAC E0B d   1       5.326  10.415   2.071  0.00  0.00     0.090 A 
ATOM     31  CAB E0B d   1       6.446   9.857   2.648  0.00  0.00    -0.057 A 
ATOM     32  CAA E0B d   1       6.382   9.049   3.776  0.00  0.00    -0.054 A 
ATOM     33  H16 E0B d   1       7.415  10.056   2.204  0.00  0.00     0.086 H 
ATOM     34  CAF E0B d   1       5.168   8.802   4.332  0.00  0.00     0.049 A 
ATOM     35  H17 E0B d   1       7.283   8.624   4.204  0.00  0.00     0.087 H 
ATOM     36  CAE E0B d   1       4.072   9.332   3.742  0.00  0.00     0.018 A 
ATOM     37  NAK E0B d   1       4.767   8.039   5.364  0.00  0.00    -0.313 N 
ATOM     38  CAD E0B d   1       4.071  10.132   2.656  0.00  0.00     0.001 A 
ATOM     39  CAJ E0B d   1       2.979   8.942   4.427  0.00  0.00     0.045 A 
ATOM     40  CAG E0B d   1       2.814  10.606   2.178  0.00  0.00    -0.071 A 
ATOM     41  CAH E0B d   1       1.653  10.216   2.873  0.00  0.00    -0.081 A 
ATOM     42  H18 E0B d   1       2.754  11.247   1.306  0.00  0.00     0.084 H 
ATOM     43  CAI E0B d   1       1.762   9.367   3.987  0.00  0.00    -0.067 A 
ATOM     44  H19 E0B d   1       0.680  10.569   2.550  0.00  0.00     0.083 H 
ATOM     45  H20 E0B d   1       0.865   9.046   4.504  0.00  0.00     0.085 H 
ATOM     46  CAL E0B d   1       3.443   8.111   5.425  0.00  0.00     0.259 A 
ATOM     47  OAM E0B d   1       2.778   7.411   6.221  0.00  0.00    -0.267 OA
BRANCH  37  48
ATOM     48  CAN E0B d   1       5.645   7.248   6.237  0.00  0.00    -0.000 C 
ATOM     49  H21 E0B d   1       5.186   7.163   7.233  0.00  0.00     0.064 H 
ATOM     50  H22 E0B d   1       6.619   7.752   6.324  0.00  0.00     0.064 H 
BRANCH  48  51
ATOM     51  CAO E0B d   1       5.853   5.837   5.652  0.00  0.00    -0.061 C 
ATOM     52  H23 E0B d   1       6.512   5.258   6.316  0.00  0.00     0.029 H 
ATOM     53  H24 E0B d   1       6.315   5.917   4.657  0.00  0.00     0.029 H 
ATOM     54  H25 E0B d   1       4.881   5.329   5.566  0.00  0.00     0.029 H 
ENDBRANCH  48  51
ENDBRANCH  37  48
ENDBRANCH   1  30
TORSDOF 7
