REMARK  4 active torsions:
REMARK  status: ('A' for Active; 'I' for Inactive)
REMARK    1  A    between atoms: OAA_1  and  CAP_2 
REMARK    2  A    between atoms: CAR_9  and  SAK_10 
REMARK    3  A    between atoms: SAK_10  and  CAS_11 
REMARK    4  A    between atoms: CAQ_18  and  OAB_19 
ROOT
ATOM      1  SAK B1T d   1      15.981  25.741   0.073  0.00  0.00    -0.085 SA
ENDROOT
BRANCH   1   2
ATOM      2  CAR B1T d   1      16.110  24.399   1.088  0.00  0.00     0.042 A 
ATOM      3  CAP B1T d   1      16.862  23.149   0.777  0.00  0.00     0.104 A 
ATOM      4  CAN B1T d   1      16.862  22.037   1.789  0.00  0.00     0.070 A 
ATOM      5 CLAE B1T d   1      17.773  20.471   1.518  0.00  0.00    -0.081 Cl
ATOM      6  CAG B1T d   1      16.179  22.281   2.987  0.00  0.00    -0.038 A 
ATOM      7  CAL B1T d   1      15.504  23.491   3.231  0.00  0.00     0.037 A 
ATOM      8  H2  B1T d   1      16.170  21.512   3.751  0.00  0.00     0.088 H 
ATOM      9 CLAC B1T d   1      14.622  23.838   4.761  0.00  0.00    -0.084 Cl
ATOM     10  CAI B1T d   1      15.477  24.521   2.309  0.00  0.00    -0.043 A 
ATOM     11  H3  B1T d   1      14.951  25.438   2.548  0.00  0.00     0.088 H 
BRANCH   3  12
ATOM     12  OAA B1T d   1      17.529  23.001  -0.388  0.00  0.00    -0.358 OA
ATOM     13  H1  B1T d   1      17.430  23.788  -0.911  0.00  0.00     0.217 HD
ENDBRANCH   3  12
ENDBRANCH   1   2
BRANCH   1  14
ATOM     14  CAS B1T d   1      17.311  26.679   0.511  0.00  0.00     0.042 A 
ATOM     15  CAJ B1T d   1      18.291  26.288   1.428  0.00  0.00    -0.043 A 
ATOM     16  CAM B1T d   1      19.348  27.148   1.721  0.00  0.00     0.037 A 
ATOM     17  H4  B1T d   1      18.229  25.319   1.910  0.00  0.00     0.088 H 
ATOM     18 CLAD B1T d   1      20.594  26.679   2.910  0.00  0.00    -0.084 Cl
ATOM     19  CAH B1T d   1      19.498  28.381   1.117  0.00  0.00    -0.038 A 
ATOM     20  CAO B1T d   1      18.568  28.826   0.177  0.00  0.00     0.070 A 
ATOM     21  H5  B1T d   1      20.344  29.007   1.375  0.00  0.00     0.088 H 
ATOM     22 CLAF B1T d   1      18.795  30.436  -0.584  0.00  0.00    -0.081 Cl
ATOM     23  CAQ B1T d   1      17.411  27.973  -0.185  0.00  0.00     0.104 A 
BRANCH  23  24
ATOM     24  OAB B1T d   1      16.465  28.345  -1.105  0.00  0.00    -0.358 OA
ATOM     25  H6  B1T d   1      15.816  27.656  -1.186  0.00  0.00     0.217 HD
ENDBRANCH  23  24
ENDBRANCH   1  14
TORSDOF 4
