REMARK  15 active torsions:
REMARK  status: ('A' for Active; 'I' for Inactive)
REMARK    1  A    between atoms: C10_1  and  C09_12 
REMARK    2  A    between atoms: C11_13  and  C10_1 
REMARK    3  A    between atoms: C15_2  and  C17_3 
REMARK    4  A    between atoms: O14_16  and  C15_2 
REMARK    5  A    between atoms: C15_2  and  C16_17 
REMARK    6  A    between atoms: C02_5  and  C01_4 
REMARK    7  A    between atoms: C03_6  and  C02_5 
REMARK    8  A    between atoms: C04_7  and  C03_6 
REMARK    9  A    between atoms: C05_8  and  C04_7 
REMARK   10  A    between atoms: C06_9  and  C05_8 
REMARK   11  A    between atoms: C07_10  and  C06_9 
REMARK   12  A    between atoms: C08_11  and  C07_10 
REMARK   13  A    between atoms: C09_12  and  C08_11 
REMARK   14  A    between atoms: C12_14  and  C11_13 
REMARK   15  A    between atoms: C12_14  and  O14_16 
ROOT
ATOM      1  C08 56S d   1     -16.911  -7.801 158.208  0.00  0.00    -0.065 C 
ATOM      2  H22 56S d   1     -17.907  -7.583 157.796  0.00  0.00     0.033 H 
ATOM      3  H23 56S d   1     -16.230  -6.968 157.980  0.00  0.00     0.033 H 
ENDROOT
BRANCH   1   4
ATOM      4  C07 56S d   1     -16.377  -9.029 157.441  0.00  0.00    -0.065 C 
ATOM      5  H20 56S d   1     -15.321  -9.163 157.717  0.00  0.00     0.033 H 
ATOM      6  H21 56S d   1     -16.955  -9.906 157.768  0.00  0.00     0.033 H 
BRANCH   4   7
ATOM      7  C06 56S d   1     -16.455  -8.962 155.916  0.00  0.00    -0.065 C 
ATOM      8  H18 56S d   1     -17.527  -8.923 155.672  0.00  0.00     0.033 H 
ATOM      9  H19 56S d   1     -15.979  -8.011 155.633  0.00  0.00     0.033 H 
BRANCH   7  10
ATOM     10  C05 56S d   1     -15.856 -10.019 154.990  0.00  0.00    -0.065 C 
ATOM     11  H16 56S d   1     -15.948  -9.656 153.956  0.00  0.00     0.033 H 
ATOM     12  H17 56S d   1     -14.792 -10.131 155.246  0.00  0.00     0.033 H 
BRANCH  10  13
ATOM     13  C04 56S d   1     -16.497 -11.376 155.064  0.00  0.00    -0.065 C 
ATOM     14  H14 56S d   1     -15.698 -12.104 155.270  0.00  0.00     0.033 H 
ATOM     15  H15 56S d   1     -17.203 -11.358 155.907  0.00  0.00     0.033 H 
BRANCH  13  16
ATOM     16  C03 56S d   1     -17.242 -11.863 153.875  0.00  0.00    -0.065 C 
ATOM     17  H12 56S d   1     -17.635 -10.992 153.331  0.00  0.00     0.033 H 
ATOM     18  H13 56S d   1     -16.543 -12.414 153.229  0.00  0.00     0.033 H 
BRANCH  16  19
ATOM     19  C02 56S d   1     -18.382 -12.763 154.208  0.00  0.00    -0.069 C 
ATOM     20  H10 56S d   1     -17.982 -13.581 154.826  0.00  0.00     0.032 H 
ATOM     21  H11 56S d   1     -19.100 -12.175 154.798  0.00  0.00     0.032 H 
BRANCH  19  22
ATOM     22  C01 56S d   1     -19.131 -13.380 153.096  0.00  0.00    -0.077 C 
ATOM     23  H7  56S d   1     -19.935 -14.012 153.501  0.00  0.00     0.027 H 
ATOM     24  H8  56S d   1     -18.449 -13.997 152.493  0.00  0.00     0.027 H 
ATOM     25  H9  56S d   1     -19.567 -12.591 152.465  0.00  0.00     0.027 H 
ENDBRANCH  19  22
ENDBRANCH  16  19
ENDBRANCH  13  16
ENDBRANCH  10  13
ENDBRANCH   7  10
ENDBRANCH   4   7
ENDBRANCH   1   4
BRANCH   1  26
ATOM     26  C09 56S d   1     -17.067  -7.833 159.739  0.00  0.00    -0.065 C 
ATOM     27  H24 56S d   1     -17.940  -8.466 159.957  0.00  0.00     0.033 H 
ATOM     28  H25 56S d   1     -16.160  -8.308 160.141  0.00  0.00     0.033 H 
BRANCH  26  29
ATOM     29  C10 56S d   1     -17.265  -6.517 160.519  0.00  0.00    -0.057 C 
ATOM     30  H1  56S d   1     -18.191  -6.062 160.137  0.00  0.00     0.033 H 
ATOM     31  H2  56S d   1     -16.410  -5.872 160.269  0.00  0.00     0.033 H 
BRANCH  29  32
ATOM     32  C11 56S d   1     -17.377  -6.520 162.038  0.00  0.00     0.016 C 
ATOM     33  H26 56S d   1     -16.608  -7.218 162.402  0.00  0.00     0.048 H 
ATOM     34  H27 56S d   1     -18.375  -6.920 162.272  0.00  0.00     0.048 H 
BRANCH  32  35
ATOM     35  C12 56S d   1     -17.224  -5.256 162.859  0.00  0.00     0.259 C 
ATOM     36  O13 56S d   1     -18.050  -4.355 162.810  0.00  0.00    -0.265 OA
BRANCH  35  37
ATOM     37  O14 56S d   1     -16.386  -5.259 163.943  0.00  0.00    -0.317 OA
BRANCH  37  38
ATOM     38  C15 56S d   1     -15.802  -4.055 164.303  0.00  0.00     0.041 C 
ATOM     39  H3  56S d   1     -15.466  -3.590 163.364  0.00  0.00     0.083 H 
BRANCH  38  40
ATOM     40  C17 56S d   1     -16.773  -3.088 164.912  0.00  0.00    -0.052 C 
ATOM     41  H4  56S d   1     -16.248  -2.157 165.174  0.00  0.00     0.030 H 
ATOM     42  H5  56S d   1     -17.210  -3.530 165.819  0.00  0.00     0.030 H 
ATOM     43  H6  56S d   1     -17.573  -2.867 164.190  0.00  0.00     0.030 H 
ENDBRANCH  38  40
BRANCH  38  44
ATOM     44  C16 56S d   1     -14.568  -4.248 165.130  0.00  0.00    -0.052 C 
ATOM     45  H28 56S d   1     -13.900  -4.965 164.630  0.00  0.00     0.030 H 
ATOM     46  H29 56S d   1     -14.847  -4.636 166.121  0.00  0.00     0.030 H 
ATOM     47  H30 56S d   1     -14.050  -3.285 165.246  0.00  0.00     0.030 H 
ENDBRANCH  38  44
ENDBRANCH  37  38
ENDBRANCH  35  37
ENDBRANCH  32  35
ENDBRANCH  29  32
ENDBRANCH  26  29
ENDBRANCH   1  26
TORSDOF 15
