REMARK  7 active torsions:
REMARK  status: ('A' for Active; 'I' for Inactive)
REMARK    1  A    between atoms: C2_6  and  O2_1 
REMARK    2  A    between atoms: C3_7  and  O3_2 
REMARK    3  A    between atoms: C4_8  and  O4_3 
REMARK    4  A    between atoms: C1_5  and  O1'_12 
REMARK    5  A    between atoms: C5_9  and  C6_10 
REMARK    6  A    between atoms: C6_10  and  O6_11 
REMARK    7  A    between atoms: O1'_12  and  C1'_13 
ROOT
ATOM      1  O5  56N d   1      -1.196 -16.558 -49.546  0.00  0.00    -0.348 OA
ATOM      2  C1  56N d   1      -0.318 -16.563 -50.652  0.00  0.00     0.164 C 
ATOM      3  C2  56N d   1       1.080 -16.864 -50.148  0.00  0.00     0.110 C 
ATOM      4  C3  56N d   1       1.050 -18.225 -49.486  0.00  0.00     0.092 C 
ATOM      5  C4  56N d   1       0.026 -18.254 -48.371  0.00  0.00     0.090 C 
ATOM      6  C5  56N d   1      -1.333 -17.782 -48.866  0.00  0.00     0.089 C 
ATOM      7  H4  56N d   1      -0.633 -17.331 -51.373  0.00  0.00     0.134 H 
ATOM      8  H5  56N d   1       1.375 -16.108 -49.406  0.00  0.00     0.094 H 
ATOM      9  H6  56N d   1       0.791 -18.981 -50.241  0.00  0.00     0.091 H 
ATOM     10  H7  56N d   1      -0.090 -19.293 -48.029  0.00  0.00     0.091 H 
ATOM     11  H8  56N d   1      -1.724 -18.533 -49.569  0.00  0.00     0.090 H 
ENDROOT
BRANCH   2  12
ATOM     12  O1' 56N d   1      -0.310 -15.310 -51.272  0.00  0.00    -0.318 OA
BRANCH  12  13
ATOM     13  C1' 56N d   1      -1.344 -15.139 -52.210  0.00  0.00     0.072 A 
ATOM     14  C2' 56N d   1      -2.225 -16.163 -52.563  0.00  0.00    -0.051 A 
ATOM     15  C3' 56N d   1      -3.221 -15.919 -53.498  0.00  0.00    -0.080 A 
ATOM     16  H12 56N d   1      -2.131 -17.143 -52.109  0.00  0.00     0.087 H 
ATOM     17  C4' 56N d   1      -3.331 -14.655 -54.073  0.00  0.00    -0.083 A 
ATOM     18  H13 56N d   1      -3.909 -16.708 -53.779  0.00  0.00     0.083 H 
ATOM     19  C5' 56N d   1      -2.455 -13.642 -53.718  0.00  0.00    -0.080 A 
ATOM     20  H14 56N d   1      -4.108 -14.462 -54.804  0.00  0.00     0.083 H 
ATOM     21  C6' 56N d   1      -1.462 -13.885 -52.787  0.00  0.00    -0.051 A 
ATOM     22  H15 56N d   1      -2.548 -12.661 -54.169  0.00  0.00     0.083 H 
ATOM     23  H16 56N d   1      -0.775 -13.094 -52.508  0.00  0.00     0.087 H 
ENDBRANCH  12  13
ENDBRANCH   2  12
BRANCH   3  24
ATOM     24  O2  56N d   1       1.999 -16.825 -51.229  0.00  0.00    -0.388 OA
ATOM     25  H1  56N d   1       1.986 -15.961 -51.623  0.00  0.00     0.210 HD
ENDBRANCH   3  24
BRANCH   6  26
ATOM     26  C6  56N d   1      -2.324 -17.634 -47.732  0.00  0.00     0.043 C 
ATOM     27  H9  56N d   1      -1.987 -16.839 -47.050  0.00  0.00     0.078 H 
ATOM     28  H10 56N d   1      -2.397 -18.583 -47.181  0.00  0.00     0.078 H 
BRANCH  26  29
ATOM     29  O6  56N d   1      -3.592 -17.296 -48.263  0.00  0.00    -0.398 OA
ATOM     30  H11 56N d   1      -3.526 -16.476 -48.739  0.00  0.00     0.209 HD
ENDBRANCH  26  29
ENDBRANCH   6  26
BRANCH   4  31
ATOM     31  O3  56N d   1       2.308 -18.537 -48.921  0.00  0.00    -0.390 OA
ATOM     32  H2  56N d   1       2.532 -17.884 -48.269  0.00  0.00     0.210 HD
ENDBRANCH   4  31
BRANCH   5  33
ATOM     33  O4  56N d   1       0.535 -17.488 -47.286  0.00  0.00    -0.390 OA
ATOM     34  H3  56N d   1      -0.094 -17.493 -46.574  0.00  0.00     0.210 HD
ENDBRANCH   5  33
TORSDOF 7
