REMARK  10 active torsions:
REMARK  status: ('A' for Active; 'I' for Inactive)
REMARK    1  A    between atoms: C15_1  and  O1_20 
REMARK    2  A    between atoms: C4_4  and  C27_11 
REMARK    3  A    between atoms: C3_5  and  C2_15 
REMARK    4  A    between atoms: N10_17  and  C11_6 
REMARK    5  A    between atoms: C8_12  and  C7_9 
REMARK    6  A    between atoms: C5_10  and  C26_13 
REMARK    7  A    between atoms: C27_11  and  C29_14 
REMARK       I    between atoms: C8_12  and  N10_17 
REMARK    8  A    between atoms: C2_15  and  C6_21 
REMARK    9  A    between atoms: O1_20  and  C9_22 
REMARK   10  A    between atoms: C9_22  and  C10_23 
REMARK       I    between atoms: C10_23  and  N12_25 
ROOT
ATOM      1  C4  L26 d   1      12.695   5.067  -0.198  0.00  0.00     0.040 A 
ATOM      2  C3  L26 d   1      11.747   5.996   0.275  0.00  0.00    -0.010 A 
ATOM      3  C7  L26 d   1      10.514   5.621  -0.447  0.00  0.00     0.108 A 
ATOM      4  C5  L26 d   1      12.029   4.198  -1.214  0.00  0.00     0.020 A 
ATOM      5  N6  L26 d   1      10.741   4.589  -1.306  0.00  0.00    -0.354 N 
ATOM      6  H13 L26 d   1      10.037   4.171  -1.931  0.00  0.00     0.166 HD
ENDROOT
BRANCH   3   7
ATOM      7  C8  L26 d   1       9.205   6.324  -0.358  0.00  0.00     0.273 C 
ATOM      8  N10 L26 d   1       8.531   6.266  -1.566  0.00  0.00    -0.322 N 
ATOM      9  H14 L26 d   1       8.893   5.672  -2.284  0.00  0.00     0.169 HD
ATOM     10  O9  L26 d   1       8.780   6.927   0.619  0.00  0.00    -0.266 OA
BRANCH   8  11
ATOM     11  C11 L26 d   1       7.357   7.006  -1.833  0.00  0.00     0.037 A 
ATOM     12  C12 L26 d   1       7.047   8.281  -1.346  0.00  0.00    -0.057 A 
ATOM     13  C13 L26 d   1       5.858   8.922  -1.756  0.00  0.00    -0.078 A 
ATOM     14  H2  L26 d   1       7.719   8.776  -0.655  0.00  0.00     0.086 H 
ATOM     15  C14 L26 d   1       4.988   8.289  -2.639  0.00  0.00    -0.051 A 
ATOM     16  H4  L26 d   1       5.622   9.911  -1.382  0.00  0.00     0.083 H 
ATOM     17  C15 L26 d   1       5.334   7.024  -3.125  0.00  0.00     0.071 A 
ATOM     18  H1  L26 d   1       4.063   8.766  -2.943  0.00  0.00     0.087 H 
ATOM     19  C16 L26 d   1       6.511   6.401  -2.728  0.00  0.00    -0.025 A 
ATOM     20  H3  L26 d   1       6.764   5.426  -3.130  0.00  0.00     0.091 H 
BRANCH  17  21
ATOM     21  O1  L26 d   1       4.532   6.332  -3.987  0.00  0.00    -0.342 OA
BRANCH  21  22
ATOM     22  C9  L26 d   1       3.164   6.697  -4.131  0.00  0.00     0.099 C 
ATOM     23  H18 L26 d   1       3.084   7.654  -4.667  0.00  0.00     0.089 H 
ATOM     24  H19 L26 d   1       2.693   6.790  -3.141  0.00  0.00     0.089 H 
BRANCH  22  25
ATOM     25  C10 L26 d   1       2.491   5.609  -4.920  0.00  0.00     0.239 C 
ATOM     26  O11 L26 d   1       1.681   5.929  -5.767  0.00  0.00    -0.271 OA
ATOM     27  N12 L26 d   1       2.821   4.250  -4.650  0.00  0.00    -0.368 N 
ATOM     28  H20 L26 d   1       2.381   3.516  -5.168  0.00  0.00     0.159 HD
ATOM     29  H21 L26 d   1       3.493   4.030  -3.943  0.00  0.00     0.159 HD
ENDBRANCH  22  25
ENDBRANCH  21  22
ENDBRANCH  17  21
ENDBRANCH   8  11
ENDBRANCH   3   7
BRANCH   2  30
ATOM     30  C2  L26 d   1      11.844   7.108   1.317  0.00  0.00    -0.041 C 
ATOM     31  H11 L26 d   1      10.966   7.768   1.262  0.00  0.00     0.039 H 
ATOM     32  H12 L26 d   1      12.758   7.701   1.167  0.00  0.00     0.039 H 
BRANCH  30  33
ATOM     33  C6  L26 d   1      11.888   6.384   2.653  0.00  0.00    -0.073 C 
ATOM     34  H15 L26 d   1      11.959   7.120   3.467  0.00  0.00     0.028 H 
ATOM     35  H16 L26 d   1      12.765   5.720   2.682  0.00  0.00     0.028 H 
ATOM     36  H17 L26 d   1      10.972   5.787   2.777  0.00  0.00     0.028 H 
ENDBRANCH  30  33
ENDBRANCH   2  30
BRANCH   1  37
ATOM     37  C27 L26 d   1      14.145   4.966   0.134  0.00  0.00     0.158 C 
ATOM     38  O28 L26 d   1      14.790   3.950  -0.075  0.00  0.00    -0.293 OA
BRANCH  37  39
ATOM     39  C29 L26 d   1      14.813   6.233   0.597  0.00  0.00    -0.017 C 
ATOM     40  H8  L26 d   1      15.873   6.032   0.810  0.00  0.00     0.038 H 
ATOM     41  H9  L26 d   1      14.318   6.596   1.510  0.00  0.00     0.038 H 
ATOM     42  H10 L26 d   1      14.736   6.997  -0.190  0.00  0.00     0.038 H 
ENDBRANCH  37  39
ENDBRANCH   1  37
BRANCH   4  43
ATOM     43  C26 L26 d   1      12.609   3.042  -2.003  0.00  0.00    -0.037 C 
ATOM     44  H5  L26 d   1      11.835   2.625  -2.665  0.00  0.00     0.035 H 
ATOM     45  H6  L26 d   1      12.957   2.263  -1.309  0.00  0.00     0.035 H 
ATOM     46  H7  L26 d   1      13.456   3.399  -2.608  0.00  0.00     0.035 H 
ENDBRANCH   4  43
TORSDOF 10
