REMARK  13 active torsions:
REMARK  status: ('A' for Active; 'I' for Inactive)
REMARK    1  A    between atoms: C11_1  and  N10_21 
REMARK    2  A    between atoms: S18_28  and  C13_3 
REMARK    3  A    between atoms: C16_6  and  O17_27 
REMARK    4  A    between atoms: C4_7  and  C27_11 
REMARK    5  A    between atoms: C3_8  and  C2_17 
REMARK    6  A    between atoms: C8_12  and  C7_9 
REMARK    7  A    between atoms: C5_10  and  C26_13 
REMARK    8  A    between atoms: C27_11  and  C29_14 
REMARK       I    between atoms: N10_21  and  C8_12 
REMARK    9  A    between atoms: C22_18  and  C23_15 
REMARK   10  A    between atoms: C24_19  and  C25_16 
REMARK   11  A    between atoms: N21_22  and  C22_18 
REMARK   12  A    between atoms: N21_22  and  C24_19 
REMARK   13  A    between atoms: N21_22  and  S18_28 
ROOT
ATOM      1  C11 56M d   1       2.680  56.480  23.005  0.00  0.00     0.070 A 
ATOM      2  C12 56M d   1       2.272  55.499  22.092  0.00  0.00    -0.032 A 
ATOM      3  C13 56M d   1       1.372  54.488  22.489  0.00  0.00     0.082 A 
ATOM      4  C14 56M d   1       0.905  54.469  23.804  0.00  0.00    -0.058 A 
ATOM      5  C15 56M d   1       1.315  55.434  24.719  0.00  0.00    -0.047 A 
ATOM      6  C16 56M d   1       2.197  56.433  24.309  0.00  0.00     0.092 A 
ATOM      7  H1  56M d   1       2.650  55.517  21.076  0.00  0.00     0.089 H 
ATOM      8  H2  56M d   1       0.215  53.694  24.116  0.00  0.00     0.086 H 
ATOM      9  H3  56M d   1       0.952  55.409  25.740  0.00  0.00     0.087 H 
ENDROOT
BRANCH   1  10
ATOM     10  N10 56M d   1       3.537  57.498  22.716  0.00  0.00    -0.319 N 
ATOM     11  C8  56M d   1       4.206  57.666  21.576  0.00  0.00     0.273 C 
ATOM     12  O9  56M d   1       4.286  56.783  20.735  0.00  0.00    -0.266 OA
ATOM     13  H24 56M d   1       3.678  58.186  23.428  0.00  0.00     0.169 HD
BRANCH  11  14
ATOM     14  C7  56M d   1       4.918  58.942  21.274  0.00  0.00     0.108 A 
ATOM     15  C3  56M d   1       4.633  60.294  21.857  0.00  0.00    -0.014 A 
ATOM     16  C4  56M d   1       5.576  61.113  21.253  0.00  0.00     0.040 A 
ATOM     17  C5  56M d   1       6.394  60.287  20.341  0.00  0.00     0.020 A 
ATOM     18  N6  56M d   1       5.940  59.028  20.419  0.00  0.00    -0.354 N 
ATOM     19  H23 56M d   1       6.328  58.234  19.890  0.00  0.00     0.166 HD
BRANCH  15  20
ATOM     20  C2  56M d   1       3.573  60.686  22.862  0.00  0.00    -0.048 C 
ATOM     21  H16 56M d   1       3.646  61.764  23.070  0.00  0.00     0.033 H 
ATOM     22  H17 56M d   1       3.725  60.122  23.794  0.00  0.00     0.033 H 
ATOM     23  H18 56M d   1       2.578  60.458  22.453  0.00  0.00     0.033 H 
ENDBRANCH  15  20
BRANCH  16  24
ATOM     24  C27 56M d   1       5.773  62.590  21.408  0.00  0.00     0.158 C 
ATOM     25  O28 56M d   1       6.797  63.136  21.002  0.00  0.00    -0.293 OA
BRANCH  24  26
ATOM     26  C29 56M d   1       4.658  63.374  22.032  0.00  0.00    -0.017 C 
ATOM     27  H7  56M d   1       4.940  64.436  22.081  0.00  0.00     0.038 H 
ATOM     28  H8  56M d   1       4.469  62.997  23.048  0.00  0.00     0.038 H 
ATOM     29  H9  56M d   1       3.748  63.264  21.424  0.00  0.00     0.038 H 
ENDBRANCH  24  26
ENDBRANCH  16  24
BRANCH  17  30
ATOM     30  C26 56M d   1       7.542  60.716  19.460  0.00  0.00    -0.037 C 
ATOM     31  H4  56M d   1       7.927  59.845  18.910  0.00  0.00     0.035 H 
ATOM     32  H5  56M d   1       8.344  61.140  20.083  0.00  0.00     0.035 H 
ATOM     33  H6  56M d   1       7.192  61.476  18.746  0.00  0.00     0.035 H 
ENDBRANCH  17  30
ENDBRANCH  11  14
ENDBRANCH   1  10
BRANCH   6  34
ATOM     34  O17 56M d   1       2.598  57.392  25.186  0.00  0.00    -0.358 OA
ATOM     35  H25 56M d   1       3.041  56.983  25.920  0.00  0.00     0.217 HD
ENDBRANCH   6  34
BRANCH   3  36
ATOM     36  S18 56M d   1       0.841  53.344  21.474  0.00  0.00     0.260 S 
ATOM     37  O19 56M d   1       0.715  53.931  20.169  0.00  0.00    -0.200 OA
ATOM     38  O20 56M d   1      -0.447  52.887  21.926  0.00  0.00    -0.200 OA
BRANCH  36  39
ATOM     39  N21 56M d   1       1.793  52.142  21.436  0.00  0.00    -0.307 N 
BRANCH  39  40
ATOM     40  C22 56M d   1       3.051  52.211  20.694  0.00  0.00     0.002 C 
ATOM     41  H19 56M d   1       3.094  53.150  20.122  0.00  0.00     0.064 H 
ATOM     42  H20 56M d   1       3.898  52.170  21.395  0.00  0.00     0.064 H 
BRANCH  40  43
ATOM     43  C23 56M d   1       3.113  51.033  19.748  0.00  0.00    -0.060 C 
ATOM     44  H10 56M d   1       4.054  51.068  19.180  0.00  0.00     0.029 H 
ATOM     45  H11 56M d   1       2.263  51.077  19.052  0.00  0.00     0.029 H 
ATOM     46  H12 56M d   1       3.067  50.097  20.324  0.00  0.00     0.029 H 
ENDBRANCH  40  43
ENDBRANCH  39  40
BRANCH  39  47
ATOM     47  C24 56M d   1       1.428  50.909  22.134  0.00  0.00     0.002 C 
ATOM     48  H21 56M d   1       0.338  50.884  22.280  0.00  0.00     0.064 H 
ATOM     49  H22 56M d   1       1.736  50.045  21.528  0.00  0.00     0.064 H 
BRANCH  47  50
ATOM     50  C25 56M d   1       2.109  50.843  23.474  0.00  0.00    -0.060 C 
ATOM     51  H13 56M d   1       1.824  49.911  23.985  0.00  0.00     0.029 H 
ATOM     52  H14 56M d   1       1.801  51.705  24.085  0.00  0.00     0.029 H 
ATOM     53  H15 56M d   1       3.200  50.865  23.332  0.00  0.00     0.029 H 
ENDBRANCH  47  50
ENDBRANCH  39  47
ENDBRANCH  36  39
ENDBRANCH   3  36
TORSDOF 13
