REMARK  13 active torsions:
REMARK  status: ('A' for Active; 'I' for Inactive)
REMARK    1  A    between atoms: C4_4  and  C27_11 
REMARK    2  A    between atoms: C3_5  and  C2_17 
REMARK    3  A    between atoms: C11_6  and  N10_21 
REMARK    4  A    between atoms: C16_7  and  O17_27 
REMARK    5  A    between atoms: S18_28  and  C13_8 
REMARK    6  A    between atoms: C8_12  and  C7_9 
REMARK    7  A    between atoms: C5_10  and  C26_13 
REMARK       I    between atoms: C27_11  and  N1_29 
REMARK       I    between atoms: N10_21  and  C8_12 
REMARK    8  A    between atoms: C2_17  and  C1_14 
REMARK    9  A    between atoms: C22_18  and  C23_15 
REMARK   10  A    between atoms: C24_19  and  C25_16 
REMARK   11  A    between atoms: N21_22  and  C22_18 
REMARK   12  A    between atoms: N21_22  and  C24_19 
REMARK   13  A    between atoms: N21_22  and  S18_28 
ROOT
ATOM      1  C15 L28 d   1       1.268  55.001  24.749  0.00  0.00    -0.047 A 
ATOM      2  C14 L28 d   1       0.805  54.084  23.815  0.00  0.00    -0.058 A 
ATOM      3  C12 L28 d   1       2.221  55.102  22.144  0.00  0.00    -0.032 A 
ATOM      4  C11 L28 d   1       2.698  56.037  23.084  0.00  0.00     0.070 A 
ATOM      5  C16 L28 d   1       2.197  55.973  24.379  0.00  0.00     0.092 A 
ATOM      6  C13 L28 d   1       1.280  54.107  22.505  0.00  0.00     0.082 A 
ATOM      7  H1  L28 d   1       0.906  54.961  25.770  0.00  0.00     0.087 H 
ATOM      8  H2  L28 d   1       0.068  53.344  24.107  0.00  0.00     0.086 H 
ATOM      9  H3  L28 d   1       2.582  55.145  21.123  0.00  0.00     0.089 H 
ENDROOT
BRANCH   4  10
ATOM     10  N10 L28 d   1       3.608  57.048  22.871  0.00  0.00    -0.319 N 
ATOM     11  C8  L28 d   1       4.140  57.393  21.697  0.00  0.00     0.273 C 
ATOM     12  O9  L28 d   1       4.027  56.698  20.711  0.00  0.00    -0.266 OA
ATOM     13  H23 L28 d   1       3.897  57.573  23.671  0.00  0.00     0.169 HD
BRANCH  11  14
ATOM     14  C7  L28 d   1       4.867  58.681  21.477  0.00  0.00     0.108 A 
ATOM     15  C3  L28 d   1       4.622  59.968  22.205  0.00  0.00    -0.009 A 
ATOM     16  C4  L28 d   1       5.520  60.854  21.595  0.00  0.00     0.062 A 
ATOM     17  C5  L28 d   1       6.251  60.115  20.537  0.00  0.00     0.022 A 
ATOM     18  N6  L28 d   1       5.794  58.861  20.530  0.00  0.00    -0.354 N 
ATOM     19  H22 L28 d   1       6.113  58.128  19.881  0.00  0.00     0.166 HD
BRANCH  15  20
ATOM     20  C2  L28 d   1       3.649  60.225  23.339  0.00  0.00    -0.041 C 
ATOM     21  H16 L28 d   1       2.796  59.537  23.247  0.00  0.00     0.039 H 
ATOM     22  H17 L28 d   1       3.291  61.264  23.281  0.00  0.00     0.039 H 
BRANCH  20  23
ATOM     23  C1  L28 d   1       4.327  60.004  24.682  0.00  0.00    -0.073 C 
ATOM     24  H7  L28 d   1       3.607  60.195  25.492  0.00  0.00     0.028 H 
ATOM     25  H8  L28 d   1       5.180  60.692  24.780  0.00  0.00     0.028 H 
ATOM     26  H9  L28 d   1       4.684  58.966  24.746  0.00  0.00     0.028 H 
ENDBRANCH  20  23
ENDBRANCH  15  20
BRANCH  16  27
ATOM     27  C27 L28 d   1       5.782  62.303  21.882  0.00  0.00     0.252 C 
ATOM     28  O28 L28 d   1       6.580  62.926  21.196  0.00  0.00    -0.268 OA
ATOM     29  N1  L28 d   1       5.145  62.982  22.943  0.00  0.00    -0.366 N 
ATOM     30  H25 L28 d   1       5.342  63.949  23.108  0.00  0.00     0.159 HD
ATOM     31  H26 L28 d   1       4.497  62.496  23.530  0.00  0.00     0.159 HD
ENDBRANCH  16  27
BRANCH  17  32
ATOM     32  C26 L28 d   1       7.316  60.631  19.604  0.00  0.00    -0.036 C 
ATOM     33  H4  L28 d   1       7.648  59.818  18.941  0.00  0.00     0.035 H 
ATOM     34  H5  L28 d   1       8.171  60.998  20.191  0.00  0.00     0.035 H 
ATOM     35  H6  L28 d   1       6.906  61.453  18.999  0.00  0.00     0.035 H 
ENDBRANCH  17  32
ENDBRANCH  11  14
ENDBRANCH   4  10
BRANCH   5  36
ATOM     36  O17 L28 d   1       2.637  56.873  25.299  0.00  0.00    -0.358 OA
ATOM     37  H24 L28 d   1       2.210  56.708  26.131  0.00  0.00     0.217 HD
ENDBRANCH   5  36
BRANCH   6  38
ATOM     38  S18 L28 d   1       0.708  53.024  21.443  0.00  0.00     0.260 S 
ATOM     39  O19 L28 d   1       0.697  53.680  20.167  0.00  0.00    -0.200 OA
ATOM     40  O20 L28 d   1      -0.635  52.690  21.805  0.00  0.00    -0.200 OA
BRANCH  38  41
ATOM     41  N21 L28 d   1       1.588  51.765  21.421  0.00  0.00    -0.307 N 
BRANCH  41  42
ATOM     42  C22 L28 d   1       2.821  51.731  20.631  0.00  0.00     0.002 C 
ATOM     43  H18 L28 d   1       2.959  52.710  20.149  0.00  0.00     0.064 H 
ATOM     44  H19 L28 d   1       3.667  51.532  21.305  0.00  0.00     0.064 H 
BRANCH  42  45
ATOM     45  C23 L28 d   1       2.790  50.660  19.558  0.00  0.00    -0.060 C 
ATOM     46  H10 L28 d   1       3.735  50.677  18.996  0.00  0.00     0.029 H 
ATOM     47  H11 L28 d   1       1.952  50.852  18.872  0.00  0.00     0.029 H 
ATOM     48  H12 L28 d   1       2.660  49.674  20.028  0.00  0.00     0.029 H 
ENDBRANCH  42  45
ENDBRANCH  41  42
BRANCH  41  49
ATOM     49  C24 L28 d   1       1.242  50.603  22.240  0.00  0.00     0.002 C 
ATOM     50  H20 L28 d   1       0.198  50.688  22.575  0.00  0.00     0.064 H 
ATOM     51  H21 L28 d   1       1.363  49.686  21.645  0.00  0.00     0.064 H 
BRANCH  49  52
ATOM     52  C25 L28 d   1       2.157  50.547  23.447  0.00  0.00    -0.060 C 
ATOM     53  H13 L28 d   1       1.898  49.674  24.064  0.00  0.00     0.029 H 
ATOM     54  H14 L28 d   1       2.036  51.464  24.042  0.00  0.00     0.029 H 
ATOM     55  H15 L28 d   1       3.201  50.462  23.112  0.00  0.00     0.029 H 
ENDBRANCH  49  52
ENDBRANCH  41  49
ENDBRANCH  38  41
ENDBRANCH   6  38
TORSDOF 13
