REMARK  18 active torsions:
REMARK  status: ('A' for Active; 'I' for Inactive)
REMARK    1  A    between atoms: C7_37  and  C6_5 
REMARK    2  A    between atoms: C41_9  and  C42_7 
REMARK    3  A    between atoms: C40_10  and  C41_9 
REMARK    4  A    between atoms: C29_11  and  C40_10 
REMARK    5  A    between atoms: C29_11  and  C37_12 
REMARK    6  A    between atoms: N28_15  and  C29_11 
REMARK       I    between atoms: C37_12  and  N39_13 
REMARK       I    between atoms: C27_16  and  N28_15 
REMARK    7  A    between atoms: C26_18  and  C27_16 
REMARK    8  A    between atoms: C26_18  and  C31_19 
REMARK    9  A    between atoms: N25_24  and  C26_18 
REMARK   10  A    between atoms: C31_19  and  C32_20 
REMARK   11  A    between atoms: C32_20  and  C33_21 
REMARK       I    between atoms: C20_25  and  N25_24 
REMARK   12  A    between atoms: C19_27  and  C20_25 
REMARK   13  A    between atoms: C19_27  and  C21_28 
REMARK   14  A    between atoms: C71_33  and  C19_27 
REMARK   15  A    between atoms: C21_28  and  C22_29 
REMARK       I    between atoms: C22_29  and  N24_30 
REMARK   16  A    between atoms: N24_30  and  O24_31 
REMARK   17  A    between atoms: C71_33  and  C9_34 
REMARK   18  A    between atoms: C3_39  and  C12_40 
ROOT
ATOM      1  C19 56O d   1       8.071  25.914   3.322  0.00  0.00     0.037 C 
ATOM      2  H19 56O d   1       7.035  26.139   3.027  0.00  0.00     0.056 H 
ENDROOT
BRANCH   1   3
ATOM      3  C20 56O d   1       8.587  26.923   4.280  0.00  0.00     0.223 C 
ATOM      4  N25 56O d   1       7.922  28.061   4.313  0.00  0.00    -0.347 N 
ATOM      5  H18 56O d   1       7.106  28.185   3.748  0.00  0.00     0.163 HD
ATOM      6  O30 56O d   1       9.586  26.710   4.934  0.00  0.00    -0.273 OA
BRANCH   4   7
ATOM      7  C26 56O d   1       8.384  29.128   5.174  0.00  0.00     0.090 C 
ATOM      8  H13 56O d   1       9.437  28.921   5.415  0.00  0.00     0.087 H 
BRANCH   7   9
ATOM      9  C27 56O d   1       7.653  29.230   6.470  0.00  0.00     0.241 C 
ATOM     10  N28 56O d   1       8.393  29.684   7.469  0.00  0.00    -0.346 N 
ATOM     11  H12 56O d   1       9.354  29.912   7.309  0.00  0.00     0.163 HD
ATOM     12  O36 56O d   1       6.482  28.919   6.576  0.00  0.00    -0.271 OA
BRANCH  10  13
ATOM     13  C29 56O d   1       7.828  29.854   8.788  0.00  0.00     0.089 C 
ATOM     14  H9  56O d   1       7.460  28.884   9.152  0.00  0.00     0.087 H 
BRANCH  13  15
ATOM     15  C40 56O d   1       8.899  30.367   9.740  0.00  0.00    -0.029 C 
ATOM     16  H7  56O d   1       9.887  30.066   9.363  0.00  0.00     0.037 H 
ATOM     17  H8  56O d   1       8.842  31.465   9.785  0.00  0.00     0.037 H 
BRANCH  15  18
ATOM     18  C41 56O d   1       8.710  29.803  11.141  0.00  0.00     0.018 C 
ATOM     19  H5  56O d   1       7.933  30.376  11.668  0.00  0.00     0.049 H 
ATOM     20  H6  56O d   1       8.407  28.748  11.076  0.00  0.00     0.049 H 
BRANCH  18  21
ATOM     21  C42 56O d   1      10.013  29.909  11.893  0.00  0.00     0.172 C 
ATOM     22  O44 56O d   1      10.608  28.857  12.206  0.00  0.00    -0.648 OA
ATOM     23  O43 56O d   1      10.442  31.049  12.175  0.00  0.00    -0.648 OA
ENDBRANCH  18  21
ENDBRANCH  15  18
ENDBRANCH  13  15
BRANCH  13  24
ATOM     24  C37 56O d   1       6.682  30.815   8.717  0.00  0.00     0.238 C 
ATOM     25  N39 56O d   1       6.871  31.910   7.987  0.00  0.00    -0.368 N 
ATOM     26  H10 56O d   1       6.140  32.587   7.903  0.00  0.00     0.159 HD
ATOM     27  H11 56O d   1       7.744  32.056   7.521  0.00  0.00     0.159 HD
ATOM     28  O38 56O d   1       5.637  30.571   9.290  0.00  0.00    -0.271 OA
ENDBRANCH  13  24
ENDBRANCH  10  13
ENDBRANCH   7   9
BRANCH   7  29
ATOM     29  C31 56O d   1       8.326  30.448   4.415  0.00  0.00    -0.029 C 
ATOM     30  H14 56O d   1       8.488  31.274   5.123  0.00  0.00     0.037 H 
ATOM     31  H15 56O d   1       7.333  30.551   3.953  0.00  0.00     0.037 H 
BRANCH  29  32
ATOM     32  C32 56O d   1       9.389  30.516   3.323  0.00  0.00     0.018 C 
ATOM     33  H16 56O d   1       9.430  29.549   2.800  0.00  0.00     0.049 H 
ATOM     34  H17 56O d   1      10.366  30.725   3.784  0.00  0.00     0.049 H 
BRANCH  32  35
ATOM     35  C33 56O d   1       9.072  31.604   2.325  0.00  0.00     0.172 C 
ATOM     36  O35 56O d   1       9.749  32.647   2.349  0.00  0.00    -0.648 OA
ATOM     37  O34 56O d   1       8.151  31.416   1.509  0.00  0.00    -0.648 OA
ENDBRANCH  32  35
ENDBRANCH  29  32
ENDBRANCH   7  29
ENDBRANCH   4   7
ENDBRANCH   1   3
BRANCH   1  38
ATOM     38  C21 56O d   1       9.033  26.087   2.144  0.00  0.00     0.023 C 
ATOM     39  H20 56O d   1      10.051  25.816   2.459  0.00  0.00     0.048 H 
ATOM     40  H21 56O d   1       9.020  27.135   1.811  0.00  0.00     0.048 H 
BRANCH  38  41
ATOM     41  C22 56O d   1       8.603  25.192   1.007  0.00  0.00     0.241 C 
ATOM     42  N24 56O d   1       9.302  24.079   0.855  0.00  0.00    -0.237 N 
ATOM     43  H22 56O d   1      10.073  23.867   1.455  0.00  0.00     0.197 HD
ATOM     44  O23 56O d   1       7.658  25.476   0.303  0.00  0.00    -0.271 OA
BRANCH  42  45
ATOM     45  O24 56O d   1       8.929  23.216  -0.165  0.00  0.00    -0.287 OA
ATOM     46  H23 56O d   1       9.506  22.461  -0.167  0.00  0.00     0.244 HD
ENDBRANCH  42  45
ENDBRANCH  38  41
ENDBRANCH   1  38
BRANCH   1  47
ATOM     47  C71 56O d   1       8.134  24.500   3.899  0.00  0.00    -0.006 C 
ATOM     48  H24 56O d   1       8.964  24.475   4.620  0.00  0.00     0.044 H 
ATOM     49  H25 56O d   1       8.350  23.814   3.067  0.00  0.00     0.044 H 
BRANCH  47  50
ATOM     50  C9  56O d   1       6.909  23.983   4.603  0.00  0.00     0.082 A 
ATOM     51  C8  56O d   1       5.592  24.227   4.565  0.00  0.00    -0.021 A 
ATOM     52  C7  56O d   1       5.008  23.356   5.493  0.00  0.00     0.097 A 
ATOM     53  H3  56O d   1       5.079  24.956   3.939  0.00  0.00     0.091 H 
ATOM     54  N11 56O d   1       5.943  22.631   6.048  0.00  0.00    -0.128 NA
ATOM     55  O10 56O d   1       7.171  23.013   5.466  0.00  0.00    -0.217 OA
BRANCH  52  56
ATOM     56  C6  56O d   1       3.566  23.225   5.855  0.00  0.00    -0.005 A 
ATOM     57  C5  56O d   1       2.593  23.851   5.099  0.00  0.00    -0.070 A 
ATOM     58  C4  56O d   1       1.259  23.748   5.421  0.00  0.00    -0.071 A 
ATOM     59  H2  56O d   1       2.887  24.435   4.234  0.00  0.00     0.084 H 
ATOM     60  C3  56O d   1       0.879  23.002   6.518  0.00  0.00    -0.026 A 
ATOM     61  H1  56O d   1       0.512  24.250   4.817  0.00  0.00     0.084 H 
ATOM     62  C2  56O d   1       1.833  22.359   7.295  0.00  0.00    -0.071 A 
ATOM     63  C1  56O d   1       3.181  22.471   6.960  0.00  0.00    -0.070 A 
ATOM     64  H4  56O d   1       1.531  21.774   8.156  0.00  0.00     0.084 H 
ATOM     65  H26 56O d   1       3.931  21.970   7.561  0.00  0.00     0.084 H 
BRANCH  60  66
ATOM     66  C12 56O d   1      -0.570  22.932   6.808  0.00  0.00    -0.024 A 
ATOM     67  C17 56O d   1      -1.146  21.743   7.202  0.00  0.00    -0.051 A 
ATOM     68  C16 56O d   1      -2.506  21.710   7.456  0.00  0.00     0.034 A 
ATOM     69  H27 56O d   1      -0.543  20.849   7.311  0.00  0.00     0.087 H 
ATOM     70  C15 56O d   1      -3.292  22.841   7.317  0.00  0.00    -0.062 A 
ATOM     71 CL   56O d   1      -3.218  20.219   7.951  0.00  0.00    -0.084 Cl
ATOM     72  C14 56O d   1      -2.712  24.032   6.917  0.00  0.00    -0.081 A 
ATOM     73  H30 56O d   1      -4.356  22.794   7.520  0.00  0.00     0.086 H 
ATOM     74  C13 56O d   1      -1.351  24.070   6.660  0.00  0.00    -0.072 A 
ATOM     75  H29 56O d   1      -3.316  24.925   6.806  0.00  0.00     0.083 H 
ATOM     76  H28 56O d   1      -0.891  24.998   6.340  0.00  0.00     0.084 H 
ENDBRANCH  60  66
ENDBRANCH  52  56
ENDBRANCH  47  50
ENDBRANCH   1  47
TORSDOF 18
