REMARK  15 active torsions:
REMARK  status: ('A' for Active; 'I' for Inactive)
REMARK    1  A    between atoms: C11_1  and  N10_23 
REMARK    2  A    between atoms: C8_9  and  C7_3 
REMARK    3  A    between atoms: C2_5  and  C1_4 
REMARK    4  A    between atoms: C3_6  and  C2_5 
REMARK    5  A    between atoms: C4_7  and  C27_12 
REMARK    6  A    between atoms: C5_8  and  C26_19 
REMARK       I    between atoms: N10_23  and  C8_9 
REMARK    7  A    between atoms: C24_10  and  C25_11 
REMARK    8  A    between atoms: N21_24  and  C24_10 
REMARK    9  A    between atoms: C27_12  and  C29_14 
REMARK   10  A    between atoms: C29_14  and  O1_30 
REMARK   11  A    between atoms: C16_17  and  O17_28 
REMARK   12  A    between atoms: S18_29  and  C13_18 
REMARK   13  A    between atoms: C22_21  and  C23_20 
REMARK   14  A    between atoms: N21_24  and  C22_21 
REMARK   15  A    between atoms: N21_24  and  S18_29 
ROOT
ATOM      1  C11 57G d   1       2.867  55.551  23.107  0.00  0.00     0.070 A 
ATOM      2  C12 57G d   1       2.365  54.608  22.187  0.00  0.00    -0.032 A 
ATOM      3  C15 57G d   1       1.497  54.558  24.837  0.00  0.00    -0.047 A 
ATOM      4  C14 57G d   1       1.007  53.629  23.918  0.00  0.00    -0.058 A 
ATOM      5  C16 57G d   1       2.417  55.519  24.428  0.00  0.00     0.092 A 
ATOM      6  C13 57G d   1       1.430  53.629  22.584  0.00  0.00     0.082 A 
ATOM      7  H1  57G d   1       2.703  54.636  21.157  0.00  0.00     0.089 H 
ATOM      8  H14 57G d   1       1.162  54.531  25.867  0.00  0.00     0.087 H 
ATOM      9  H15 57G d   1       0.283  52.891  24.245  0.00  0.00     0.086 H 
ENDROOT
BRANCH   1  10
ATOM     10  N10 57G d   1       3.792  56.529  22.848  0.00  0.00    -0.319 N 
ATOM     11  C8  57G d   1       4.379  56.764  21.674  0.00  0.00     0.273 C 
ATOM     12  O9  57G d   1       4.295  55.969  20.753  0.00  0.00    -0.266 OA
ATOM     13  H25 57G d   1       4.051  57.122  23.611  0.00  0.00     0.169 HD
BRANCH  11  14
ATOM     14  C7  57G d   1       5.113  58.028  21.354  0.00  0.00     0.108 A 
ATOM     15  C3  57G d   1       4.864  59.376  21.966  0.00  0.00    -0.010 A 
ATOM     16  C4  57G d   1       5.772  60.200  21.306  0.00  0.00     0.043 A 
ATOM     17  C5  57G d   1       6.539  59.373  20.329  0.00  0.00     0.020 A 
ATOM     18  N6  57G d   1       6.069  58.122  20.423  0.00  0.00    -0.354 N 
ATOM     19  H24 57G d   1       6.402  57.333  19.851  0.00  0.00     0.166 HD
BRANCH  15  20
ATOM     20  C2  57G d   1       3.864  59.752  23.044  0.00  0.00    -0.041 C 
ATOM     21  H5  57G d   1       3.522  60.783  22.869  0.00  0.00     0.039 H 
ATOM     22  H6  57G d   1       3.006  59.066  22.989  0.00  0.00     0.039 H 
BRANCH  20  23
ATOM     23  C1  57G d   1       4.480  59.664  24.437  0.00  0.00    -0.073 C 
ATOM     24  H2  57G d   1       3.727  59.943  25.189  0.00  0.00     0.028 H 
ATOM     25  H3  57G d   1       5.337  60.351  24.503  0.00  0.00     0.028 H 
ATOM     26  H4  57G d   1       4.820  58.635  24.623  0.00  0.00     0.028 H 
ENDBRANCH  20  23
ENDBRANCH  15  20
BRANCH  16  27
ATOM     27  C27 57G d   1       5.953  61.674  21.528  0.00  0.00     0.185 C 
ATOM     28  O28 57G d   1       5.293  62.291  22.346  0.00  0.00    -0.290 OA
BRANCH  27  29
ATOM     29  C29 57G d   1       6.988  62.353  20.683  0.00  0.00     0.076 C 
ATOM     30  H12 57G d   1       6.860  62.010  19.646  0.00  0.00     0.086 H 
ATOM     31  H13 57G d   1       7.980  62.051  21.050  0.00  0.00     0.086 H 
BRANCH  29  32
ATOM     32  O1  57G d   1       6.930  63.770  20.688  0.00  0.00    -0.393 OA
ATOM     33  H27 57G d   1       7.051  64.088  21.575  0.00  0.00     0.209 HD
ENDBRANCH  29  32
ENDBRANCH  27  29
ENDBRANCH  16  27
BRANCH  17  34
ATOM     34  C26 57G d   1       7.639  59.716  19.354  0.00  0.00    -0.037 C 
ATOM     35  H16 57G d   1       7.941  58.810  18.808  0.00  0.00     0.035 H 
ATOM     36  H17 57G d   1       8.503  60.118  19.903  0.00  0.00     0.035 H 
ATOM     37  H18 57G d   1       7.275  60.470  18.641  0.00  0.00     0.035 H 
ENDBRANCH  17  34
ENDBRANCH  11  14
ENDBRANCH   1  10
BRANCH   5  38
ATOM     38  O17 57G d   1       2.882  56.449  25.313  0.00  0.00    -0.358 OA
ATOM     39  H26 57G d   1       3.318  56.009  26.033  0.00  0.00     0.217 HD
ENDBRANCH   5  38
BRANCH   6  40
ATOM     40  S18 57G d   1       0.850  52.529  21.532  0.00  0.00     0.260 S 
ATOM     41  O19 57G d   1      -0.480  52.047  21.887  0.00  0.00    -0.200 OA
ATOM     42  O20 57G d   1       0.732  53.111  20.234  0.00  0.00    -0.200 OA
BRANCH  40  43
ATOM     43  N21 57G d   1       1.807  51.346  21.481  0.00  0.00    -0.307 N 
BRANCH  43  44
ATOM     44  C24 57G d   1       3.022  51.450  20.667  0.00  0.00     0.002 C 
ATOM     45  H7  57G d   1       2.965  52.369  20.065  0.00  0.00     0.064 H 
ATOM     46  H8  57G d   1       3.892  51.505  21.338  0.00  0.00     0.064 H 
BRANCH  44  47
ATOM     47  C25 57G d   1       3.203  50.275  19.738  0.00  0.00    -0.060 C 
ATOM     48  H9  57G d   1       4.127  50.407  19.155  0.00  0.00     0.029 H 
ATOM     49  H10 57G d   1       2.344  50.212  19.054  0.00  0.00     0.029 H 
ATOM     50  H11 57G d   1       3.271  49.349  20.327  0.00  0.00     0.029 H 
ENDBRANCH  44  47
ENDBRANCH  43  44
BRANCH  43  51
ATOM     51  C22 57G d   1       1.541  50.156  22.280  0.00  0.00     0.002 C 
ATOM     52  H22 57G d   1       0.500  50.166  22.636  0.00  0.00     0.064 H 
ATOM     53  H23 57G d   1       1.714  49.252  21.678  0.00  0.00     0.064 H 
BRANCH  51  54
ATOM     54  C23 57G d   1       2.485  50.184  23.450  0.00  0.00    -0.060 C 
ATOM     55  H19 57G d   1       2.315  49.298  24.080  0.00  0.00     0.029 H 
ATOM     56  H20 57G d   1       2.308  51.094  24.042  0.00  0.00     0.029 H 
ATOM     57  H21 57G d   1       3.522  50.180  23.084  0.00  0.00     0.029 H 
ENDBRANCH  51  54
ENDBRANCH  43  51
ENDBRANCH  40  43
ENDBRANCH   6  40
TORSDOF 15
