REMARK  13 active torsions:
REMARK  status: ('A' for Active; 'I' for Inactive)
REMARK    1  A    between atoms: C4_4  and  C27_11 
REMARK    2  A    between atoms: C3_5  and  C2_18 
REMARK    3  A    between atoms: C11_6  and  N10_22 
REMARK    4  A    between atoms: S18_28  and  C13_8 
REMARK    5  A    between atoms: C8_12  and  C7_9 
REMARK    6  A    between atoms: C5_10  and  C26_13 
REMARK    7  A    between atoms: C27_11  and  C29_14 
REMARK       I    between atoms: N10_22  and  C8_12 
REMARK    8  A    between atoms: C2_18  and  C1_15 
REMARK    9  A    between atoms: C22_19  and  C23_16 
REMARK   10  A    between atoms: C24_20  and  C25_17 
REMARK   11  A    between atoms: N21_23  and  C22_19 
REMARK   12  A    between atoms: N21_23  and  C24_20 
REMARK   13  A    between atoms: N21_23  and  S18_28 
ROOT
ATOM      1  C15 L33 d   1       1.528  54.949  24.999  0.00  0.00    -0.079 A 
ATOM      2  C14 L33 d   1       0.980  54.126  24.014  0.00  0.00    -0.060 A 
ATOM      3  C12 L33 d   1       2.289  55.291  22.347  0.00  0.00    -0.035 A 
ATOM      4  C11 L33 d   1       2.853  56.121  23.349  0.00  0.00     0.036 A 
ATOM      5  C16 L33 d   1       2.453  55.939  24.676  0.00  0.00    -0.057 A 
ATOM      6  C13 L33 d   1       1.348  54.302  22.683  0.00  0.00     0.081 A 
ATOM      7  H1  L33 d   1       1.229  54.816  26.032  0.00  0.00     0.083 H 
ATOM      8  H2  L33 d   1       0.270  53.352  24.284  0.00  0.00     0.085 H 
ATOM      9  H3  L33 d   1       2.586  55.420  21.313  0.00  0.00     0.089 H 
ATOM     10  H4  L33 d   1       2.864  56.570  25.456  0.00  0.00     0.086 H 
ENDROOT
BRANCH   4  11
ATOM     11  N10 L33 d   1       3.752  57.134  23.121  0.00  0.00    -0.322 N 
ATOM     12  C8  L33 d   1       4.343  57.342  21.941  0.00  0.00     0.273 C 
ATOM     13  O9  L33 d   1       4.362  56.469  21.084  0.00  0.00    -0.266 OA
ATOM     14  H27 L33 d   1       3.976  57.748  23.878  0.00  0.00     0.169 HD
BRANCH  12  15
ATOM     15  C7  L33 d   1       5.009  58.631  21.558  0.00  0.00     0.108 A 
ATOM     16  C3  L33 d   1       4.720  59.995  22.082  0.00  0.00    -0.010 A 
ATOM     17  C4  L33 d   1       5.601  60.816  21.384  0.00  0.00     0.040 A 
ATOM     18  C5  L33 d   1       6.401  59.974  20.475  0.00  0.00     0.020 A 
ATOM     19  N6  L33 d   1       5.986  58.703  20.635  0.00  0.00    -0.354 N 
ATOM     20  H26 L33 d   1       6.365  57.895  20.121  0.00  0.00     0.166 HD
BRANCH  16  21
ATOM     21  C2  L33 d   1       3.719  60.402  23.135  0.00  0.00    -0.041 C 
ATOM     22  H20 L33 d   1       3.127  59.527  23.443  0.00  0.00     0.039 H 
ATOM     23  H21 L33 d   1       3.048  61.175  22.731  0.00  0.00     0.039 H 
BRANCH  21  24
ATOM     24  C1  L33 d   1       4.472  60.952  24.324  0.00  0.00    -0.073 C 
ATOM     25  H11 L33 d   1       3.757  61.254  25.103  0.00  0.00     0.028 H 
ATOM     26  H12 L33 d   1       5.064  61.825  24.011  0.00  0.00     0.028 H 
ATOM     27  H13 L33 d   1       5.143  60.177  24.723  0.00  0.00     0.028 H 
ENDBRANCH  21  24
ENDBRANCH  16  21
BRANCH  17  28
ATOM     28  C27 L33 d   1       5.758  62.298  21.440  0.00  0.00     0.158 C 
ATOM     29  O28 L33 d   1       6.780  62.861  21.052  0.00  0.00    -0.293 OA
BRANCH  28  30
ATOM     30  C29 L33 d   1       4.552  63.077  21.898  0.00  0.00    -0.017 C 
ATOM     31  H8  L33 d   1       4.788  64.151  21.898  0.00  0.00     0.038 H 
ATOM     32  H9  L33 d   1       4.277  62.762  22.915  0.00  0.00     0.038 H 
ATOM     33  H10 L33 d   1       3.711  62.886  21.215  0.00  0.00     0.038 H 
ENDBRANCH  28  30
ENDBRANCH  17  28
BRANCH  18  34
ATOM     34  C26 L33 d   1       7.464  60.442  19.512  0.00  0.00    -0.037 C 
ATOM     35  H5  L33 d   1       7.879  59.576  18.975  0.00  0.00     0.035 H 
ATOM     36  H6  L33 d   1       8.267  60.947  20.069  0.00  0.00     0.035 H 
ATOM     37  H7  L33 d   1       7.021  61.144  18.790  0.00  0.00     0.035 H 
ENDBRANCH  18  34
ENDBRANCH  12  15
ENDBRANCH   4  11
BRANCH   6  38
ATOM     38  S18 L33 d   1       0.690  53.330  21.571  0.00  0.00     0.260 S 
ATOM     39  O19 L33 d   1       0.560  54.028  20.335  0.00  0.00    -0.200 OA
ATOM     40  O20 L33 d   1      -0.619  52.880  21.995  0.00  0.00    -0.200 OA
BRANCH  38  41
ATOM     41  N21 L33 d   1       1.580  52.076  21.480  0.00  0.00    -0.307 N 
BRANCH  41  42
ATOM     42  C22 L33 d   1       2.698  52.031  20.545  0.00  0.00     0.002 C 
ATOM     43  H22 L33 d   1       2.622  52.873  19.842  0.00  0.00     0.064 H 
ATOM     44  H23 L33 d   1       3.644  52.103  21.101  0.00  0.00     0.064 H 
BRANCH  42  45
ATOM     45  C23 L33 d   1       2.662  50.726  19.776  0.00  0.00    -0.060 C 
ATOM     46  H14 L33 d   1       3.506  50.693  19.071  0.00  0.00     0.029 H 
ATOM     47  H15 L33 d   1       1.716  50.654  19.220  0.00  0.00     0.029 H 
ATOM     48  H16 L33 d   1       2.739  49.884  20.479  0.00  0.00     0.029 H 
ENDBRANCH  42  45
ENDBRANCH  41  42
BRANCH  41  49
ATOM     49  C24 L33 d   1       1.298  50.925  22.340  0.00  0.00     0.002 C 
ATOM     50  H24 L33 d   1       0.325  51.067  22.832  0.00  0.00     0.064 H 
ATOM     51  H25 L33 d   1       1.270  50.011  21.729  0.00  0.00     0.064 H 
BRANCH  49  52
ATOM     52  C25 L33 d   1       2.376  50.795  23.389  0.00  0.00    -0.060 C 
ATOM     53  H17 L33 d   1       2.159  49.929  24.032  0.00  0.00     0.029 H 
ATOM     54  H18 L33 d   1       2.404  51.709  24.001  0.00  0.00     0.029 H 
ATOM     55  H19 L33 d   1       3.350  50.653  22.898  0.00  0.00     0.029 H 
ENDBRANCH  49  52
ENDBRANCH  41  49
ENDBRANCH  38  41
ENDBRANCH   6  38
TORSDOF 13
