REMARK  15 active torsions:
REMARK  status: ('A' for Active; 'I' for Inactive)
REMARK    1  A    between atoms: C2_2  and  C1_1 
REMARK    2  A    between atoms: C3_3  and  C2_2 
REMARK    3  A    between atoms: C4_4  and  C27_15 
REMARK    4  A    between atoms: C5_5  and  C26_16 
REMARK    5  A    between atoms: C14_12  and  C6_6 
REMARK    6  A    between atoms: C8_8  and  C7_7 
REMARK       I    between atoms: N10_23  and  C8_8 
REMARK    7  A    between atoms: C11_9  and  N10_23 
REMARK    8  A    between atoms: S18_30  and  C13_11 
REMARK    9  A    between atoms: C16_14  and  O17_29 
REMARK   10  A    between atoms: C27_15  and  C29_17 
REMARK   11  A    between atoms: C22_20  and  C23_18 
REMARK   12  A    between atoms: C24_21  and  C25_19 
REMARK   13  A    between atoms: N21_24  and  C22_20 
REMARK   14  A    between atoms: N21_24  and  C24_21 
REMARK   15  A    between atoms: N21_24  and  S18_30 
ROOT
ATOM      1  C11 57F d   1      16.910  -5.724  -6.026  0.00  0.00     0.070 A 
ATOM      2  C12 57F d   1      17.225  -4.615  -6.831  0.00  0.00    -0.031 A 
ATOM      3  C13 57F d   1      17.954  -3.519  -6.305  0.00  0.00     0.087 A 
ATOM      4  C14 57F d   1      18.373  -3.566  -4.978  0.00  0.00    -0.036 A 
ATOM      5  C15 57F d   1      18.068  -4.660  -4.194  0.00  0.00    -0.042 A 
ATOM      6  C16 57F d   1      17.337  -5.728  -4.708  0.00  0.00     0.093 A 
ATOM      7  H9  57F d   1      16.906  -4.598  -7.867  0.00  0.00     0.089 H 
ATOM      8  H10 57F d   1      18.402  -4.688  -3.163  0.00  0.00     0.088 H 
ENDROOT
BRANCH   1   9
ATOM      9  N10 57F d   1      16.177  -6.828  -6.396  0.00  0.00    -0.319 N 
ATOM     10  C8  57F d   1      15.536  -7.017  -7.554  0.00  0.00     0.273 C 
ATOM     11  O9  57F d   1      15.446  -6.172  -8.429  0.00  0.00    -0.266 OA
ATOM     12  H28 57F d   1      16.117  -7.569  -5.727  0.00  0.00     0.169 HD
BRANCH  10  13
ATOM     13  C7  57F d   1      14.908  -8.325  -7.899  0.00  0.00     0.108 A 
ATOM     14  C3  57F d   1      15.324  -9.676  -7.424  0.00  0.00    -0.010 A 
ATOM     15  C4  57F d   1      14.438 -10.541  -8.088  0.00  0.00     0.040 A 
ATOM     16  C5  57F d   1      13.546  -9.708  -8.939  0.00  0.00     0.020 A 
ATOM     17  N6  57F d   1      13.907  -8.440  -8.782  0.00  0.00    -0.354 N 
ATOM     18  H27 57F d   1      13.473  -7.647  -9.276  0.00  0.00     0.166 HD
BRANCH  14  19
ATOM     19  C2  57F d   1      16.412 -10.018  -6.423  0.00  0.00    -0.041 C 
ATOM     20  H4  57F d   1      16.955 -10.915  -6.756  0.00  0.00     0.039 H 
ATOM     21  H5  57F d   1      17.114  -9.176  -6.334  0.00  0.00     0.039 H 
BRANCH  19  22
ATOM     22  C1  57F d   1      15.759 -10.283  -5.085  0.00  0.00    -0.073 C 
ATOM     23  H1  57F d   1      16.532 -10.533  -4.343  0.00  0.00     0.028 H 
ATOM     24  H2  57F d   1      15.056 -11.124  -5.180  0.00  0.00     0.028 H 
ATOM     25  H3  57F d   1      15.214  -9.385  -4.758  0.00  0.00     0.028 H 
ENDBRANCH  19  22
ENDBRANCH  14  19
BRANCH  15  26
ATOM     26  C27 57F d   1      14.316 -12.037  -8.054  0.00  0.00     0.158 C 
ATOM     27  O28 57F d   1      13.229 -12.570  -8.304  0.00  0.00    -0.293 OA
BRANCH  26  28
ATOM     28  C29 57F d   1      15.548 -12.831  -7.756  0.00  0.00    -0.017 C 
ATOM     29  H14 57F d   1      15.304 -13.904  -7.765  0.00  0.00     0.038 H 
ATOM     30  H15 57F d   1      15.934 -12.551  -6.764  0.00  0.00     0.038 H 
ATOM     31  H16 57F d   1      16.312 -12.622  -8.519  0.00  0.00     0.038 H 
ENDBRANCH  26  28
ENDBRANCH  15  26
BRANCH  16  32
ATOM     32  C26 57F d   1      12.438 -10.147  -9.859  0.00  0.00    -0.037 C 
ATOM     33  H11 57F d   1      11.985  -9.264 -10.334  0.00  0.00     0.035 H 
ATOM     34  H12 57F d   1      11.673 -10.686  -9.281  0.00  0.00     0.035 H 
ATOM     35  H13 57F d   1      12.847 -10.812 -10.634  0.00  0.00     0.035 H 
ENDBRANCH  16  32
ENDBRANCH  10  13
ENDBRANCH   1   9
BRANCH   6  36
ATOM     36  O17 57F d   1      17.053  -6.791  -3.912  0.00  0.00    -0.358 OA
ATOM     37  H29 57F d   1      16.552  -7.430  -4.406  0.00  0.00     0.217 HD
ENDBRANCH   6  36
BRANCH   3  38
ATOM     38  S18 57F d   1      18.297  -2.257  -7.242  0.00  0.00     0.261 S 
ATOM     39  O19 57F d   1      17.962  -1.033  -6.557  0.00  0.00    -0.200 OA
ATOM     40  O20 57F d   1      17.620  -2.399  -8.487  0.00  0.00    -0.200 OA
BRANCH  38  41
ATOM     41  N21 57F d   1      19.771  -2.271  -7.669  0.00  0.00    -0.307 N 
BRANCH  41  42
ATOM     42  C22 57F d   1      20.600  -1.085  -7.459  0.00  0.00     0.002 C 
ATOM     43  H23 57F d   1      20.200  -0.473  -6.637  0.00  0.00     0.064 H 
ATOM     44  H24 57F d   1      21.637  -1.372  -7.231  0.00  0.00     0.064 H 
BRANCH  42  45
ATOM     45  C23 57F d   1      20.531  -0.335  -8.762  0.00  0.00    -0.060 C 
ATOM     46  H17 57F d   1      21.135   0.582  -8.690  0.00  0.00     0.029 H 
ATOM     47  H18 57F d   1      19.485  -0.070  -8.977  0.00  0.00     0.029 H 
ATOM     48  H19 57F d   1      20.923  -0.969  -9.571  0.00  0.00     0.029 H 
ENDBRANCH  42  45
ENDBRANCH  41  42
BRANCH  41  49
ATOM     49  C24 57F d   1      20.295  -3.414  -8.437  0.00  0.00     0.002 C 
ATOM     50  H25 57F d   1      19.670  -4.292  -8.218  0.00  0.00     0.064 H 
ATOM     51  H26 57F d   1      20.224  -3.171  -9.508  0.00  0.00     0.064 H 
BRANCH  49  52
ATOM     52  C25 57F d   1      21.731  -3.765  -8.125  0.00  0.00    -0.060 C 
ATOM     53  H20 57F d   1      22.040  -4.624  -8.739  0.00  0.00     0.029 H 
ATOM     54  H21 57F d   1      21.822  -4.024  -7.060  0.00  0.00     0.029 H 
ATOM     55  H22 57F d   1      22.376  -2.903  -8.350  0.00  0.00     0.029 H 
ENDBRANCH  49  52
ENDBRANCH  41  49
ENDBRANCH  38  41
ENDBRANCH   3  38
BRANCH   4  56
ATOM     56  C6  57F d   1      19.153  -2.458  -4.313  0.00  0.00    -0.050 C 
ATOM     57  H6  57F d   1      19.363  -2.733  -3.269  0.00  0.00     0.033 H 
ATOM     58  H7  57F d   1      18.564  -1.530  -4.336  0.00  0.00     0.033 H 
ATOM     59  H8  57F d   1      20.101  -2.304  -4.849  0.00  0.00     0.033 H 
ENDBRANCH   4  56
TORSDOF 15
