REMARK  11 active torsions:
REMARK  status: ('A' for Active; 'I' for Inactive)
REMARK    1  A    between atoms: C4_4  and  C27_11 
REMARK    2  A    between atoms: C3_5  and  C2_16 
REMARK    3  A    between atoms: C11_6  and  N10_19 
REMARK    4  A    between atoms: C16_7  and  C17_25 
REMARK    5  A    between atoms: S18_26  and  C13_8 
REMARK    6  A    between atoms: C8_12  and  C7_9 
REMARK    7  A    between atoms: C5_10  and  C26_13 
REMARK    8  A    between atoms: C27_11  and  C29_14 
REMARK       I    between atoms: N10_19  and  C8_12 
REMARK    9  A    between atoms: C2_16  and  C1_15 
REMARK   10  A    between atoms: N21_20  and  C22_17 
REMARK   11  A    between atoms: N21_20  and  S18_26 
ROOT
ATOM      1  C8  L40 d   1      -8.910   6.743   0.913  0.00  0.00     0.273 C 
ATOM      2  N10 L40 d   1      -8.466   7.365  -0.171  0.00  0.00    -0.321 N 
ATOM      3  O9  L40 d   1      -8.313   6.796   1.966  0.00  0.00    -0.266 OA
ATOM      4  H19 L40 d   1      -8.881   7.104  -1.043  0.00  0.00     0.169 HD
ENDROOT
BRANCH   1   5
ATOM      5  C7  L40 d   1     -10.248   6.077   0.943  0.00  0.00     0.108 A 
ATOM      6  C3  L40 d   1     -11.445   6.585   0.216  0.00  0.00    -0.010 A 
ATOM      7  C4  L40 d   1     -12.441   5.673   0.555  0.00  0.00     0.040 A 
ATOM      8  C5  L40 d   1     -11.886   4.680   1.480  0.00  0.00     0.020 A 
ATOM      9  N6  L40 d   1     -10.594   4.996   1.655  0.00  0.00    -0.354 N 
ATOM     10  H18 L40 d   1      -9.947   4.472   2.262  0.00  0.00     0.166 HD
BRANCH   6  11
ATOM     11  C2  L40 d   1     -11.519   7.782  -0.725  0.00  0.00    -0.041 C 
ATOM     12  H13 L40 d   1     -10.642   8.432  -0.591  0.00  0.00     0.039 H 
ATOM     13  H14 L40 d   1     -12.436   8.361  -0.541  0.00  0.00     0.039 H 
BRANCH  11  14
ATOM     14  C1  L40 d   1     -11.535   7.190  -2.128  0.00  0.00    -0.073 C 
ATOM     15  H10 L40 d   1     -11.588   8.002  -2.868  0.00  0.00     0.028 H 
ATOM     16  H11 L40 d   1     -12.411   6.535  -2.240  0.00  0.00     0.028 H 
ATOM     17  H12 L40 d   1     -10.617   6.606  -2.290  0.00  0.00     0.028 H 
ENDBRANCH  11  14
ENDBRANCH   6  11
BRANCH   7  18
ATOM     18  C27 L40 d   1     -13.865   5.670   0.157  0.00  0.00     0.158 C 
ATOM     19  O28 L40 d   1     -14.499   4.646   0.034  0.00  0.00    -0.293 OA
BRANCH  18  20
ATOM     20  C29 L40 d   1     -14.489   7.013   0.013  0.00  0.00    -0.017 C 
ATOM     21  H7  L40 d   1     -15.542   6.898  -0.284  0.00  0.00     0.038 H 
ATOM     22  H8  L40 d   1     -13.952   7.586  -0.757  0.00  0.00     0.038 H 
ATOM     23  H9  L40 d   1     -14.435   7.547   0.973  0.00  0.00     0.038 H 
ENDBRANCH  18  20
ENDBRANCH   7  18
BRANCH   8  24
ATOM     24  C26 L40 d   1     -12.566   3.515   2.134  0.00  0.00    -0.037 C 
ATOM     25  H4  L40 d   1     -11.845   2.979   2.769  0.00  0.00     0.035 H 
ATOM     26  H5  L40 d   1     -12.950   2.833   1.361  0.00  0.00     0.035 H 
ATOM     27  H6  L40 d   1     -13.401   3.877   2.752  0.00  0.00     0.035 H 
ENDBRANCH   8  24
ENDBRANCH   1   5
BRANCH   2  28
ATOM     28  C11 L40 d   1      -7.489   8.335  -0.212  0.00  0.00     0.042 A 
ATOM     29  C12 L40 d   1      -6.894   8.835   0.959  0.00  0.00    -0.034 A 
ATOM     30  C13 L40 d   1      -5.855   9.763   0.915  0.00  0.00     0.081 A 
ATOM     31  H3  L40 d   1      -7.253   8.490   1.922  0.00  0.00     0.089 H 
ATOM     32  C14 L40 d   1      -5.359  10.201  -0.323  0.00  0.00    -0.060 A 
ATOM     33  C15 L40 d   1      -5.920   9.710  -1.497  0.00  0.00    -0.074 A 
ATOM     34  H2  L40 d   1      -4.545  10.916  -0.364  0.00  0.00     0.085 H 
ATOM     35  C16 L40 d   1      -6.988   8.788  -1.457  0.00  0.00    -0.035 A 
ATOM     36  H1  L40 d   1      -5.532  10.039  -2.454  0.00  0.00     0.084 H 
BRANCH  30  37
ATOM     37  S18 L40 d   1      -5.215  10.320   2.274  0.00  0.00     0.258 S 
ATOM     38  O19 L40 d   1      -4.590  11.584   1.971  0.00  0.00    -0.201 OA
ATOM     39  O20 L40 d   1      -6.245  10.558   3.243  0.00  0.00    -0.201 OA
BRANCH  37  40
ATOM     40  N21 L40 d   1      -4.099   9.290   2.850  0.00  0.00    -0.320 N 
ATOM     41  H20 L40 d   1      -3.136   9.559   2.846  0.00  0.00     0.171 HD
BRANCH  40  42
ATOM     42  C22 L40 d   1      -4.472   7.985   3.372  0.00  0.00    -0.011 C 
ATOM     43  H15 L40 d   1      -3.570   7.453   3.708  0.00  0.00     0.057 H 
ATOM     44  H16 L40 d   1      -4.969   7.402   2.582  0.00  0.00     0.057 H 
ATOM     45  H17 L40 d   1      -5.160   8.113   4.221  0.00  0.00     0.057 H 
ENDBRANCH  40  42
ENDBRANCH  37  40
ENDBRANCH  30  37
BRANCH  35  46
ATOM     46  C17 L40 d   1      -7.527   8.334  -2.792  0.00  0.00    -0.049 C 
ATOM     47  H21 L40 d   1      -6.970   8.830  -3.600  0.00  0.00     0.033 H 
ATOM     48  H22 L40 d   1      -8.593   8.597  -2.866  0.00  0.00     0.033 H 
ATOM     49  H23 L40 d   1      -7.411   7.244  -2.883  0.00  0.00     0.033 H 
ENDBRANCH  35  46
ENDBRANCH   2  28
TORSDOF 11
