REMARK  9 active torsions:
REMARK  status: ('A' for Active; 'I' for Inactive)
REMARK    1  A    between atoms: C2_2  and  C1_1 
REMARK    2  A    between atoms: C3_3  and  C2_2 
REMARK    3  A    between atoms: C4_4  and  C27_15 
REMARK    4  A    between atoms: C5_5  and  C26_14 
REMARK    5  A    between atoms: C8_17  and  C7_6 
REMARK    6  A    between atoms: S18_24  and  C13_9 
REMARK    7  A    between atoms: N21_27  and  C22_13 
REMARK    8  A    between atoms: C27_15  and  C29_18 
REMARK       I    between atoms: N10_20  and  C8_17 
REMARK    9  A    between atoms: S18_24  and  N21_27 
ROOT
ATOM      1  C11 57E d   1      -6.319   8.516   0.230  0.00  0.00     0.053 A 
ATOM      2  C12 57E d   1      -5.724   9.019   1.409  0.00  0.00    -0.033 A 
ATOM      3  C13 57E d   1      -4.675   9.949   1.313  0.00  0.00     0.081 A 
ATOM      4  C14 57E d   1      -4.226  10.327   0.044  0.00  0.00    -0.059 A 
ATOM      5  C15 57E d   1      -4.811   9.809  -1.125  0.00  0.00    -0.069 A 
ATOM      6  C17 57E d   1      -6.625   8.222  -2.103  0.00  0.00    -0.055 C 
ATOM      7  C8  57E d   1      -7.975   7.015   1.112  0.00  0.00     0.279 C 
ATOM      8  N10 57E d   1      -7.349   7.570   0.068  0.00  0.00    -0.287 N 
ATOM      9  O9  57E d   1      -7.433   6.927   2.215  0.00  0.00    -0.265 OA
ATOM     10  C6  57E d   1      -7.491   7.206  -1.347  0.00  0.00    -0.011 C 
ATOM     11  C16 57E d   1      -5.862   8.906  -1.001  0.00  0.00    -0.007 A 
ATOM     12  H6  57E d   1      -6.074   8.690   2.381  0.00  0.00     0.089 H 
ATOM     13  H7  57E d   1      -3.409  11.035  -0.041  0.00  0.00     0.085 H 
ATOM     14  H8  57E d   1      -4.450  10.107  -2.103  0.00  0.00     0.085 H 
ATOM     15  H9  57E d   1      -6.575   8.404  -3.175  0.00  0.00     0.087 H 
ATOM     16  H20 57E d   1      -8.081   6.393  -1.768  0.00  0.00     0.112 H 
ENDROOT
BRANCH   7  17
ATOM     17  C7  57E d   1      -9.350   6.435   1.125  0.00  0.00     0.109 A 
ATOM     18  C3  57E d   1     -10.552   6.939   0.403  0.00  0.00    -0.010 A 
ATOM     19  C4  57E d   1     -11.557   6.066   0.827  0.00  0.00     0.040 A 
ATOM     20  C5  57E d   1     -10.973   5.089   1.778  0.00  0.00     0.020 A 
ATOM     21  N6  57E d   1      -9.679   5.385   1.888  0.00  0.00    -0.354 N 
ATOM     22  H19 57E d   1      -9.015   4.871   2.485  0.00  0.00     0.166 HD
BRANCH  18  23
ATOM     23  C2  57E d   1     -10.662   8.105  -0.544  0.00  0.00    -0.041 C 
ATOM     24  H4  57E d   1     -11.449   8.788  -0.193  0.00  0.00     0.039 H 
ATOM     25  H5  57E d   1      -9.701   8.640  -0.579  0.00  0.00     0.039 H 
BRANCH  23  26
ATOM     26  C1  57E d   1     -11.010   7.605  -1.927  0.00  0.00    -0.073 C 
ATOM     27  H1  57E d   1     -11.090   8.459  -2.616  0.00  0.00     0.028 H 
ATOM     28  H2  57E d   1     -11.971   7.071  -1.893  0.00  0.00     0.028 H 
ATOM     29  H3  57E d   1     -10.223   6.922  -2.279  0.00  0.00     0.028 H 
ENDBRANCH  23  26
ENDBRANCH  18  23
BRANCH  19  30
ATOM     30  C27 57E d   1     -13.012   6.063   0.491  0.00  0.00     0.158 C 
ATOM     31  O28 57E d   1     -13.639   5.020   0.462  0.00  0.00    -0.293 OA
BRANCH  30  32
ATOM     32  C29 57E d   1     -13.719   7.372   0.298  0.00  0.00    -0.017 C 
ATOM     33  H16 57E d   1     -14.776   7.186   0.058  0.00  0.00     0.038 H 
ATOM     34  H17 57E d   1     -13.248   7.925  -0.528  0.00  0.00     0.038 H 
ATOM     35  H18 57E d   1     -13.652   7.965   1.222  0.00  0.00     0.038 H 
ENDBRANCH  30  32
ENDBRANCH  19  30
BRANCH  20  36
ATOM     36  C26 57E d   1     -11.650   3.950   2.490  0.00  0.00    -0.037 C 
ATOM     37  H13 57E d   1     -10.918   3.426   3.122  0.00  0.00     0.035 H 
ATOM     38  H14 57E d   1     -12.064   3.249   1.750  0.00  0.00     0.035 H 
ATOM     39  H15 57E d   1     -12.463   4.342   3.118  0.00  0.00     0.035 H 
ENDBRANCH  20  36
ENDBRANCH   7  17
BRANCH   3  40
ATOM     40  S18 57E d   1      -3.993  10.545   2.657  0.00  0.00     0.258 S 
ATOM     41  O19 57E d   1      -4.992  10.850   3.623  0.00  0.00    -0.201 OA
ATOM     42  O20 57E d   1      -3.209  11.725   2.340  0.00  0.00    -0.201 OA
BRANCH  40  43
ATOM     43  N21 57E d   1      -3.015   9.436   3.260  0.00  0.00    -0.320 N 
ATOM     44  H21 57E d   1      -2.026   9.571   3.202  0.00  0.00     0.171 HD
BRANCH  43  45
ATOM     45  C22 57E d   1      -3.534   8.234   3.891  0.00  0.00    -0.011 C 
ATOM     46  H10 57E d   1      -2.696   7.609   4.235  0.00  0.00     0.057 H 
ATOM     47  H11 57E d   1      -4.138   7.670   3.165  0.00  0.00     0.057 H 
ATOM     48  H12 57E d   1      -4.160   8.513   4.751  0.00  0.00     0.057 H 
ENDBRANCH  43  45
ENDBRANCH  40  43
ENDBRANCH   3  40
TORSDOF 9
