REMARK  10 active torsions:
REMARK  status: ('A' for Active; 'I' for Inactive)
REMARK    1  A    between atoms: C1_1  and  O1_2 
REMARK    2  A    between atoms: O1_2  and  P1_13 
REMARK    3  A    between atoms: C2_3  and  O2_4 
REMARK    4  A    between atoms: C3_5  and  O3_6 
REMARK    5  A    between atoms: O3_6  and  P3_17 
REMARK    6  A    between atoms: C4_7  and  O4_8 
REMARK    7  A    between atoms: O4_8  and  P4_21 
REMARK    8  A    between atoms: C5_9  and  O5_10 
REMARK    9  A    between atoms: O5_10  and  P5_25 
REMARK   10  A    between atoms: C6_11  and  O6_12 
ROOT
ATOM      1  C1  4IP d   1       4.550   8.732   4.897  0.00  0.00     0.106 C 
ATOM      2  C2  4IP d   1       4.416   7.433   4.121  0.00  0.00     0.091 C 
ATOM      3  C3  4IP d   1       5.710   7.144   3.359  0.00  0.00     0.106 C 
ATOM      4  C4  4IP d   1       7.024   7.675   4.003  0.00  0.00     0.107 C 
ATOM      5  C5  4IP d   1       6.941   8.392   5.382  0.00  0.00     0.106 C 
ATOM      6  C6  4IP d   1       5.565   8.537   6.001  0.00  0.00     0.091 C 
ATOM      7  H1  4IP d   1       4.917   9.514   4.215  0.00  0.00     0.092 H 
ATOM      8  H2  4IP d   1       3.602   7.547   3.390  0.00  0.00     0.091 H 
ATOM      9  H4  4IP d   1       5.626   7.782   2.467  0.00  0.00     0.092 H 
ATOM     10  H5  4IP d   1       7.185   8.532   3.332  0.00  0.00     0.092 H 
ATOM     11  H6  4IP d   1       7.268   9.421   5.173  0.00  0.00     0.092 H 
ATOM     12  H7  4IP d   1       5.311   7.653   6.605  0.00  0.00     0.091 H 
ENDROOT
BRANCH   1  13
ATOM     13  O1  4IP d   1       3.301   9.149   5.417  0.00  0.00    -0.272 OA
BRANCH  13  14
ATOM     14  P1  4IP d   1       2.421  10.174   4.584  0.00  0.00     0.422 P 
ATOM     15  O1P 4IP d   1       1.685   9.449   3.475  0.00  0.00    -0.617 OA
ATOM     16  O2P 4IP d   1       3.303  11.248   3.986  0.00  0.00    -0.617 OA
ATOM     17  O3P 4IP d   1       1.415  10.810   5.518  0.00  0.00    -0.617 OA
ENDBRANCH  13  14
ENDBRANCH   1  13
BRANCH   2  18
ATOM     18  O2  4IP d   1       4.088   6.363   4.984  0.00  0.00    -0.390 OA
ATOM     19  H3  4IP d   1       4.009   5.563   4.478  0.00  0.00     0.210 HD
ENDBRANCH   2  18
BRANCH   6  20
ATOM     20  O6  4IP d   1       5.604   9.703   6.804  0.00  0.00    -0.390 OA
ATOM     21  H8  4IP d   1       4.757   9.833   7.213  0.00  0.00     0.210 HD
ENDBRANCH   6  20
BRANCH   3  22
ATOM     22  O3  4IP d   1       5.687   5.830   2.808  0.00  0.00    -0.272 OA
BRANCH  22  23
ATOM     23  P3  4IP d   1       5.669   5.810   1.200  0.00  0.00     0.422 P 
ATOM     24  O4P 4IP d   1       4.544   6.640   0.625  0.00  0.00    -0.617 OA
ATOM     25  O5P 4IP d   1       5.543   4.364   0.810  0.00  0.00    -0.617 OA
ATOM     26  O6P 4IP d   1       7.002   6.360   0.735  0.00  0.00    -0.617 OA
ENDBRANCH  22  23
ENDBRANCH   3  22
BRANCH   5  27
ATOM     27  O5  4IP d   1       7.859   7.885   6.342  0.00  0.00    -0.272 OA
BRANCH  27  28
ATOM     28  P5  4IP d   1       9.252   8.631   6.498  0.00  0.00     0.422 P 
ATOM     29  OPF 4IP d   1      10.372   7.654   6.242  0.00  0.00    -0.617 OA
ATOM     30  OPG 4IP d   1       9.328   9.760   5.497  0.00  0.00    -0.617 OA
ATOM     31  OPH 4IP d   1       9.395   9.139   7.910  0.00  0.00    -0.617 OA
ENDBRANCH  27  28
ENDBRANCH   5  27
BRANCH   4  32
ATOM     32  O4  4IP d   1       8.308   7.036   3.892  0.00  0.00    -0.272 OA
BRANCH  32  33
ATOM     33  P4  4IP d   1       8.968   5.635   3.509  0.00  0.00     0.422 P 
ATOM     34  O7P 4IP d   1       8.308   4.489   4.259  0.00  0.00    -0.617 OA
ATOM     35  O8P 4IP d   1      10.385   5.831   4.024  0.00  0.00    -0.617 OA
ATOM     36  O9P 4IP d   1       9.013   5.457   2.002  0.00  0.00    -0.617 OA
ENDBRANCH  32  33
ENDBRANCH   4  32
TORSDOF 10
