REMARK  6 active torsions:
REMARK  status: ('A' for Active; 'I' for Inactive)
REMARK    1  A    between atoms: C7_23  and  C4_3 
REMARK    2  A    between atoms: C21_8  and  C22_9 
REMARK    3  A    between atoms: N_15  and  C21_8 
REMARK    4  A    between atoms: C22_9  and  C23_13 
REMARK    5  A    between atoms: C10_27  and  C24_10 
REMARK    6  A    between atoms: C14_16  and  C15_17 
ROOT
ATOM      1  C8  57P d   1     -11.565  -7.422 -19.097  0.00  0.00     0.005 A 
ATOM      2  C11 57P d   1      -9.396  -7.859 -20.731  0.00  0.00    -0.074 A 
ATOM      3  N   57P d   1     -10.491  -8.182 -17.212  0.00  0.00    -0.344 N 
ATOM      4  C14 57P d   1     -11.751  -7.843 -16.845  0.00  0.00     0.057 A 
ATOM      5  C7  57P d   1     -12.496  -7.339 -17.980  0.00  0.00     0.014 A 
ATOM      6  C13 57P d   1     -10.298  -7.991 -18.539  0.00  0.00     0.046 A 
ATOM      7  C9  57P d   1     -11.707  -7.160 -20.435  0.00  0.00    -0.064 A 
ATOM      8  C10 57P d   1     -10.620  -7.355 -21.259  0.00  0.00    -0.053 A 
ATOM      9  C12 57P d   1      -9.203  -8.176 -19.382  0.00  0.00    -0.056 A 
ATOM     10  H4  57P d   1      -8.567  -8.005 -21.414  0.00  0.00     0.084 H 
ATOM     11  H19 57P d   1     -12.651  -6.808 -20.835  0.00  0.00     0.085 H 
ATOM     12  H20 57P d   1      -8.253  -8.546 -19.012  0.00  0.00     0.087 H 
ENDROOT
BRANCH   4  13
ATOM     13  C15 57P d   1     -12.291  -7.980 -15.469  0.00  0.00    -0.008 A 
ATOM     14  C16 57P d   1     -12.306  -9.311 -15.029  0.00  0.00    -0.071 A 
ATOM     15  C17 57P d   1     -12.785  -9.622 -13.733  0.00  0.00    -0.082 A 
ATOM     16  H13 57P d   1     -11.951 -10.102 -15.680  0.00  0.00     0.084 H 
ATOM     17  C18 57P d   1     -13.190  -8.567 -12.892  0.00  0.00    -0.083 A 
ATOM     18  H14 57P d   1     -12.839 -10.651 -13.395  0.00  0.00     0.083 H 
ATOM     19  C19 57P d   1     -13.204  -7.223 -13.389  0.00  0.00    -0.082 A 
ATOM     20  H15 57P d   1     -13.491  -8.771 -11.871  0.00  0.00     0.083 H 
ATOM     21  C20 57P d   1     -12.716  -6.926 -14.684  0.00  0.00    -0.071 A 
ATOM     22  H16 57P d   1     -13.592  -6.425 -12.766  0.00  0.00     0.083 H 
ATOM     23  H17 57P d   1     -12.677  -5.905 -15.047  0.00  0.00     0.084 H 
ENDBRANCH   4  13
BRANCH   3  24
ATOM     24  C21 57P d   1      -9.359  -8.595 -16.332  0.00  0.00     0.009 C 
ATOM     25  H6  57P d   1      -9.716  -8.910 -15.340  0.00  0.00     0.065 H 
ATOM     26  H7  57P d   1      -8.773  -9.408 -16.786  0.00  0.00     0.065 H 
BRANCH  24  27
ATOM     27  C22 57P d   1      -8.539  -7.287 -16.248  0.00  0.00     0.031 C 
ATOM     28  H8  57P d   1      -8.257  -7.001 -17.272  0.00  0.00     0.051 H 
ATOM     29  H9  57P d   1      -7.632  -7.497 -15.662  0.00  0.00     0.051 H 
BRANCH  27  30
ATOM     30  C23 57P d   1      -9.245  -6.085 -15.604  0.00  0.00     0.174 C 
ATOM     31  O1  57P d   1      -9.894  -5.181 -16.214  0.00  0.00    -0.648 OA
ATOM     32  O2  57P d   1      -9.378  -6.080 -14.320  0.00  0.00    -0.648 OA
ENDBRANCH  27  30
ENDBRANCH  24  27
ENDBRANCH   3  24
BRANCH   5  33
ATOM     33  C4  57P d   1     -13.904  -6.828 -18.043  0.00  0.00    -0.023 A 
ATOM     34  C5  57P d   1     -14.985  -7.451 -17.402  0.00  0.00    -0.072 A 
ATOM     35  C6  57P d   1     -16.260  -6.897 -17.534  0.00  0.00    -0.082 A 
ATOM     36  H2  57P d   1     -14.833  -8.348 -16.813  0.00  0.00     0.084 H 
ATOM     37  C1  57P d   1     -16.436  -5.655 -18.209  0.00  0.00    -0.083 A 
ATOM     38  H3  57P d   1     -17.119  -7.414 -17.121  0.00  0.00     0.083 H 
ATOM     39  C2  57P d   1     -15.326  -5.006 -18.805  0.00  0.00    -0.082 A 
ATOM     40  H5  57P d   1     -17.421  -5.205 -18.267  0.00  0.00     0.083 H 
ATOM     41  C3  57P d   1     -14.028  -5.598 -18.715  0.00  0.00    -0.072 A 
ATOM     42  H1  57P d   1     -15.461  -4.065 -19.326  0.00  0.00     0.083 H 
ATOM     43  H18 57P d   1     -13.163  -5.113 -19.152  0.00  0.00     0.084 H 
ENDBRANCH   5  33
BRANCH   8  44
ATOM     44  C24 57P d   1     -10.872  -6.989 -22.728  0.00  0.00    -0.029 A 
ATOM     45  C25 57P d   1     -10.719  -8.391 -23.166  0.00  0.00    -0.057 A 
ATOM     46  C26 57P d   1      -9.674  -7.378 -23.598  0.00  0.00    -0.057 A 
ATOM     47  H11 57P d   1     -11.414  -8.810 -23.909  0.00  0.00     0.034 H 
ATOM     48  H12 57P d   1     -10.456  -9.167 -22.432  0.00  0.00     0.034 H 
ATOM     49  H21 57P d   1      -8.662  -7.407 -23.169  0.00  0.00     0.034 H 
ATOM     50  H22 57P d   1      -9.619  -7.050 -24.646  0.00  0.00     0.034 H 
ATOM     51  H10 57P d   1     -11.618  -6.222 -22.982  0.00  0.00     0.047 H 
ENDBRANCH   8  44
TORSDOF 6
