REMARK  8 active torsions:
REMARK  status: ('A' for Active; 'I' for Inactive)
REMARK    1  A    between atoms: C22_2  and  C21_4 
REMARK    2  A    between atoms: C21_4  and  C20_5 
REMARK    3  A    between atoms: C20_5  and  N1_6 
REMARK    4  A    between atoms: C13_7  and  C14_8 
REMARK    5  A    between atoms: C6_14  and  C5_24 
REMARK    6  A    between atoms: C9_17  and  C23_18 
REMARK    7  A    between atoms: C1_29  and  O_30 
REMARK    8  A    between atoms: O_30  and  C_31 
ROOT
ATOM      1  N1  L19 d   1       5.563   7.949  17.316  0.00  0.00    -0.344 N 
ATOM      2  C13 L19 d   1       4.269   7.732  16.828  0.00  0.00     0.057 A 
ATOM      3  C6  L19 d   1       3.383   7.304  17.923  0.00  0.00     0.017 A 
ATOM      4  C7  L19 d   1       4.303   7.225  19.102  0.00  0.00     0.005 A 
ATOM      5  C8  L19 d   1       4.048   6.875  20.440  0.00  0.00    -0.064 A 
ATOM      6  C9  L19 d   1       5.143   6.969  21.310  0.00  0.00    -0.053 A 
ATOM      7  C10 L19 d   1       6.444   7.358  20.876  0.00  0.00    -0.074 A 
ATOM      8  C11 L19 d   1       6.739   7.702  19.554  0.00  0.00    -0.056 A 
ATOM      9  C12 L19 d   1       5.676   7.646  18.632  0.00  0.00     0.046 A 
ATOM     10  H10 L19 d   1       3.069   6.554  20.776  0.00  0.00     0.085 H 
ATOM     11  H16 L19 d   1       7.244   7.388  21.607  0.00  0.00     0.084 H 
ATOM     12  H17 L19 d   1       7.737   7.998  19.253  0.00  0.00     0.087 H 
ENDROOT
BRANCH   3  13
ATOM     13  C5  L19 d   1       1.933   6.954  17.854  0.00  0.00     0.013 A 
ATOM     14  C4  L19 d   1       0.923   7.791  17.341  0.00  0.00    -0.052 A 
ATOM     15  C3  L19 d   1      -0.423   7.319  17.298  0.00  0.00     0.003 A 
ATOM     16  H18 L19 d   1       1.166   8.785  16.982  0.00  0.00     0.087 H 
ATOM     17  N   L19 d   1      -0.686   6.089  17.800  0.00  0.00    -0.270 NA
ATOM     18  H19 L19 d   1      -1.213   7.928  16.875  0.00  0.00     0.114 H 
ATOM     19  C2  L19 d   1       0.214   5.226  18.336  0.00  0.00     0.035 A 
ATOM     20  C1  L19 d   1       1.573   5.611  18.375  0.00  0.00     0.096 A 
ATOM     21  H20 L19 d   1      -0.102   4.265  18.725  0.00  0.00     0.119 H 
BRANCH  20  22
ATOM     22  O   L19 d   1       2.573   4.803  18.902  0.00  0.00    -0.354 OA
BRANCH  22  23
ATOM     23  C   L19 d   1       2.064   3.762  19.728  0.00  0.00     0.010 C 
ATOM     24  H21 L19 d   1       2.899   3.159  20.114  0.00  0.00     0.066 H 
ATOM     25  H22 L19 d   1       1.391   3.122  19.138  0.00  0.00     0.066 H 
ATOM     26  H23 L19 d   1       1.508   4.200  20.570  0.00  0.00     0.066 H 
ENDBRANCH  22  23
ENDBRANCH  20  22
ENDBRANCH   3  13
BRANCH   2  27
ATOM     27  C14 L19 d   1       3.799   7.956  15.414  0.00  0.00    -0.008 A 
ATOM     28  C15 L19 d   1       4.077   9.228  14.893  0.00  0.00    -0.071 A 
ATOM     29  C16 L19 d   1       3.717   9.542  13.577  0.00  0.00    -0.082 A 
ATOM     30  H5  L19 d   1       4.572   9.969  15.510  0.00  0.00     0.084 H 
ATOM     31  C17 L19 d   1       3.025   8.546  12.820  0.00  0.00    -0.083 A 
ATOM     32  H6  L19 d   1       3.955  10.508  13.146  0.00  0.00     0.083 H 
ATOM     33  C18 L19 d   1       2.735   7.225  13.326  0.00  0.00    -0.082 A 
ATOM     34  H7  L19 d   1       2.702   8.795  11.816  0.00  0.00     0.083 H 
ATOM     35  C19 L19 d   1       3.143   6.945  14.619  0.00  0.00    -0.071 A 
ATOM     36  H8  L19 d   1       2.221   6.486  12.721  0.00  0.00     0.083 H 
ATOM     37  H9  L19 d   1       2.969   5.960  15.037  0.00  0.00     0.084 H 
ENDBRANCH   2  27
BRANCH   1  38
ATOM     38  C20 L19 d   1       6.724   8.306  16.486  0.00  0.00     0.009 C 
ATOM     39  H3  L19 d   1       6.396   8.726  15.524  0.00  0.00     0.065 H 
ATOM     40  H4  L19 d   1       7.361   9.036  17.007  0.00  0.00     0.065 H 
BRANCH  38  41
ATOM     41  C21 L19 d   1       7.482   6.988  16.269  0.00  0.00     0.031 C 
ATOM     42  H1  L19 d   1       8.394   7.210  15.696  0.00  0.00     0.051 H 
ATOM     43  H2  L19 d   1       7.757   6.587  17.256  0.00  0.00     0.051 H 
BRANCH  41  44
ATOM     44  C22 L19 d   1       6.697   5.899  15.513  0.00  0.00     0.174 C 
ATOM     45  O1  L19 d   1       6.561   5.880  14.327  0.00  0.00    -0.648 OA
ATOM     46  O2  L19 d   1       6.088   4.887  16.092  0.00  0.00    -0.648 OA
ENDBRANCH  41  44
ENDBRANCH  38  41
ENDBRANCH   1  38
BRANCH   6  47
ATOM     47  C23 L19 d   1       4.996   6.546  22.717  0.00  0.00    -0.029 A 
ATOM     48  C24 L19 d   1       5.358   7.757  23.535  0.00  0.00    -0.057 A 
ATOM     49  C25 L19 d   1       3.902   7.222  23.531  0.00  0.00    -0.057 A 
ATOM     50  H12 L19 d   1       5.597   8.708  23.036  0.00  0.00     0.034 H 
ATOM     51  H13 L19 d   1       5.982   7.648  24.434  0.00  0.00     0.034 H 
ATOM     52  H14 L19 d   1       3.491   6.728  24.424  0.00  0.00     0.034 H 
ATOM     53  H15 L19 d   1       3.106   7.788  23.026  0.00  0.00     0.034 H 
ATOM     54  H11 L19 d   1       5.318   5.514  22.919  0.00  0.00     0.047 H 
ENDBRANCH   6  47
TORSDOF 8
