REMARK  12 active torsions:
REMARK  status: ('A' for Active; 'I' for Inactive)
REMARK    1  A    between atoms: C24_2  and  C23_4 
REMARK    2  A    between atoms: C23_4  and  C22_5 
REMARK    3  A    between atoms: C22_5  and  N2_6 
REMARK    4  A    between atoms: C12_7  and  C13_25 
REMARK    5  A    between atoms: C5_8  and  C2_9 
REMARK    6  A    between atoms: C1_10  and  C_11 
REMARK    7  A    between atoms: C3_14  and  C4_15 
REMARK    8  A    between atoms: C8_18  and  C25_19 
REMARK    9  A    between atoms: C17_29  and  O_31 
REMARK   10  A    between atoms: O_31  and  C19_32 
REMARK   11  A    between atoms: C19_32  and  C20_33 
REMARK   12  A    between atoms: C19_32  and  C21_34 
ROOT
ATOM      1  N2  L96 d   1       5.269   7.525  17.537  0.00  0.00    -0.344 N 
ATOM      2  C12 L96 d   1       3.953   7.423  17.102  0.00  0.00     0.057 A 
ATOM      3  C5  L96 d   1       3.137   6.964  18.197  0.00  0.00     0.018 A 
ATOM      4  C6  L96 d   1       4.006   6.811  19.358  0.00  0.00     0.005 A 
ATOM      5  C7  L96 d   1       3.754   6.507  20.694  0.00  0.00    -0.064 A 
ATOM      6  C8  L96 d   1       4.775   6.542  21.603  0.00  0.00    -0.053 A 
ATOM      7  C9  L96 d   1       6.091   6.861  21.173  0.00  0.00    -0.074 A 
ATOM      8  C10 L96 d   1       6.360   7.244  19.849  0.00  0.00    -0.056 A 
ATOM      9  C11 L96 d   1       5.355   7.242  18.871  0.00  0.00     0.046 A 
ATOM     10  H12 L96 d   1       2.752   6.244  21.012  0.00  0.00     0.085 H 
ATOM     11  H18 L96 d   1       6.907   6.807  21.884  0.00  0.00     0.084 H 
ATOM     12  H19 L96 d   1       7.365   7.547  19.578  0.00  0.00     0.087 H 
ENDROOT
BRANCH   2  13
ATOM     13  C13 L96 d   1       3.492   7.697  15.712  0.00  0.00    -0.006 A 
ATOM     14  C14 L96 d   1       3.182   6.721  14.764  0.00  0.00    -0.071 A 
ATOM     15  C15 L96 d   1       2.707   7.119  13.477  0.00  0.00    -0.080 A 
ATOM     16  H20 L96 d   1       3.301   5.670  15.002  0.00  0.00     0.084 H 
ATOM     17  C16 L96 d   1       2.631   8.497  13.150  0.00  0.00    -0.051 A 
ATOM     18  H21 L96 d   1       2.406   6.371  12.753  0.00  0.00     0.083 H 
ATOM     19  C17 L96 d   1       2.953   9.460  14.129  0.00  0.00     0.070 A 
ATOM     20  H22 L96 d   1       2.328   8.807  12.156  0.00  0.00     0.087 H 
ATOM     21  C18 L96 d   1       3.410   9.089  15.397  0.00  0.00    -0.039 A 
ATOM     22  H23 L96 d   1       3.696   9.840  16.125  0.00  0.00     0.089 H 
BRANCH  19  23
ATOM     23  O   L96 d   1       2.767  10.801  13.778  0.00  0.00    -0.347 OA
BRANCH  23  24
ATOM     24  C19 L96 d   1       2.846  11.874  14.717  0.00  0.00     0.038 C 
ATOM     25  H24 L96 d   1       2.684  11.515  15.744  0.00  0.00     0.082 H 
BRANCH  24  26
ATOM     26  C20 L96 d   1       4.240  12.489  14.619  0.00  0.00    -0.052 C 
ATOM     27  H25 L96 d   1       4.325  13.320  15.335  0.00  0.00     0.030 H 
ATOM     28  H26 L96 d   1       4.404  12.866  13.599  0.00  0.00     0.030 H 
ATOM     29  H27 L96 d   1       4.995  11.724  14.853  0.00  0.00     0.030 H 
ENDBRANCH  24  26
BRANCH  24  30
ATOM     30  C21 L96 d   1       1.695  12.818  14.305  0.00  0.00    -0.052 C 
ATOM     31  H28 L96 d   1       1.674  13.687  14.979  0.00  0.00     0.030 H 
ATOM     32  H29 L96 d   1       0.738  12.280  14.371  0.00  0.00     0.030 H 
ATOM     33  H30 L96 d   1       1.853  13.160  13.271  0.00  0.00     0.030 H 
ENDBRANCH  24  30
ENDBRANCH  23  24
ENDBRANCH  19  23
ENDBRANCH   2  13
BRANCH   1  34
ATOM     34  C22 L96 d   1       6.392   7.900  16.672  0.00  0.00     0.009 C 
ATOM     35  H3  L96 d   1       6.000   8.289  15.721  0.00  0.00     0.065 H 
ATOM     36  H4  L96 d   1       6.985   8.681  17.170  0.00  0.00     0.065 H 
BRANCH  34  37
ATOM     37  C23 L96 d   1       7.294   6.687  16.387  0.00  0.00     0.031 C 
ATOM     38  H1  L96 d   1       8.174   7.010  15.811  0.00  0.00     0.051 H 
ATOM     39  H2  L96 d   1       7.622   6.241  17.338  0.00  0.00     0.051 H 
BRANCH  37  40
ATOM     40  C24 L96 d   1       6.511   5.658  15.586  0.00  0.00     0.174 C 
ATOM     41  O1  L96 d   1       6.340   5.786  14.366  0.00  0.00    -0.648 OA
ATOM     42  O2  L96 d   1       5.908   4.634  16.214  0.00  0.00    -0.648 OA
ENDBRANCH  37  40
ENDBRANCH  34  37
ENDBRANCH   1  34
BRANCH   3  43
ATOM     43  C2  L96 d   1       1.630   6.703  18.139  0.00  0.00     0.027 A 
ATOM     44  C1  L96 d   1       0.606   7.704  17.918  0.00  0.00     0.037 A 
ATOM     45  N1  L96 d   1      -0.593   7.015  17.845  0.00  0.00    -0.282 N 
ATOM     46  N   L96 d   1      -0.333   5.644  17.997  0.00  0.00    -0.179 NA
ATOM     47  H8  L96 d   1      -1.521   7.438  17.703  0.00  0.00     0.189 HD
ATOM     48  C3  L96 d   1       1.001   5.380  18.153  0.00  0.00     0.064 A 
BRANCH  44  49
ATOM     49  C   L96 d   1       0.834   9.192  17.813  0.00  0.00    -0.035 C 
ATOM     50  H5  L96 d   1      -0.127   9.699  17.645  0.00  0.00     0.035 H 
ATOM     51  H6  L96 d   1       1.511   9.401  16.972  0.00  0.00     0.035 H 
ATOM     52  H7  L96 d   1       1.284   9.561  18.746  0.00  0.00     0.035 H 
ENDBRANCH  44  49
BRANCH  48  53
ATOM     53  C4  L96 d   1       1.646   4.042  18.377  0.00  0.00    -0.033 C 
ATOM     54  H9  L96 d   1       0.882   3.253  18.322  0.00  0.00     0.035 H 
ATOM     55  H10 L96 d   1       2.120   4.025  19.370  0.00  0.00     0.035 H 
ATOM     56  H11 L96 d   1       2.409   3.869  17.604  0.00  0.00     0.035 H 
ENDBRANCH  48  53
ENDBRANCH   3  43
BRANCH   6  57
ATOM     57  C25 L96 d   1       4.530   6.079  23.013  0.00  0.00    -0.029 A 
ATOM     58  C26 L96 d   1       3.390   6.733  23.785  0.00  0.00    -0.057 A 
ATOM     59  C27 L96 d   1       4.877   7.120  24.064  0.00  0.00    -0.057 A 
ATOM     60  H14 L96 d   1       2.821   6.154  24.527  0.00  0.00     0.034 H 
ATOM     61  H15 L96 d   1       2.719   7.445  23.282  0.00  0.00     0.034 H 
ATOM     62  H16 L96 d   1       5.257   8.106  23.760  0.00  0.00     0.034 H 
ATOM     63  H17 L96 d   1       5.359   6.815  25.004  0.00  0.00     0.034 H 
ATOM     64  H13 L96 d   1       4.764   5.012  23.142  0.00  0.00     0.047 H 
ENDBRANCH   6  57
TORSDOF 12
