REMARK  10 active torsions:
REMARK  status: ('A' for Active; 'I' for Inactive)
REMARK    1  A    between atoms: O3B_8  and  PG_1 
REMARK    2  A    between atoms: PB_5  and  O3B_8 
REMARK    3  A    between atoms: O3A_12  and  PB_5 
REMARK    4  A    between atoms: PA_9  and  O3A_12 
REMARK    5  A    between atoms: PA_9  and  O5'_13 
REMARK    6  A    between atoms: O5'_13  and  C5'_14 
REMARK    7  A    between atoms: C5'_14  and  C4'_15 
REMARK    8  A    between atoms: C3'_17  and  O3'_18 
REMARK    9  A    between atoms: C2'_19  and  O2'_20 
REMARK   10  A    between atoms: C1'_21  and  N9_22 
ROOT
ATOM      1  C4' ATP d   1     -31.727   6.554  11.663  0.00  0.00     0.089 C 
ATOM      2  O4' ATP d   1     -30.380   6.255  11.272  0.00  0.00    -0.353 OA
ATOM      3  C3' ATP d   1     -31.754   8.073  11.780  0.00  0.00     0.091 C 
ATOM      4  C2' ATP d   1     -30.388   8.345  12.368  0.00  0.00     0.105 C 
ATOM      5  C1' ATP d   1     -29.500   7.286  11.738  0.00  0.00     0.139 C 
ATOM      6  H3  ATP d   1     -31.941   6.111  12.647  0.00  0.00     0.090 H 
ATOM      7  H4  ATP d   1     -31.857   8.539  10.789  0.00  0.00     0.091 H 
ATOM      8  H6  ATP d   1     -30.041   9.366  12.152  0.00  0.00     0.093 H 
ATOM      9  H8  ATP d   1     -28.763   6.884  12.449  0.00  0.00     0.122 H 
ENDROOT
BRANCH   1  10
ATOM     10  C5' ATP d   1     -32.725   5.977  10.657  0.00  0.00     0.058 C 
ATOM     11  H1  ATP d   1     -33.711   6.446  10.791  0.00  0.00     0.079 H 
ATOM     12  H2  ATP d   1     -32.371   6.153   9.630  0.00  0.00     0.079 H 
BRANCH  10  13
ATOM     13  O5' ATP d   1     -32.810   4.578  10.912  0.00  0.00    -0.287 OA
BRANCH  13  14
ATOM     14  PA  ATP d   1     -34.183   3.759  10.778  0.00  0.00     0.417 P 
ATOM     15  O1A ATP d   1     -33.888   2.545   9.936  0.00  0.00    -0.624 OA
ATOM     16  O2A ATP d   1     -35.298   4.692  10.367  0.00  0.00    -0.624 OA
BRANCH  14  17
ATOM     17  O3A ATP d   1     -34.516   3.267  12.287  0.00  0.00    -0.180 OA
BRANCH  17  18
ATOM     18  PB  ATP d   1     -33.751   3.708  13.647  0.00  0.00     0.428 P 
ATOM     19  O1B ATP d   1     -32.327   3.229  13.540  0.00  0.00    -0.624 OA
ATOM     20  O2B ATP d   1     -34.037   5.151  13.970  0.00  0.00    -0.624 OA
BRANCH  18  21
ATOM     21  O3B ATP d   1     -34.545   2.767  14.704  0.00  0.00    -0.173 OA
BRANCH  21  22
ATOM     22  PG  ATP d   1     -35.724   3.263  15.701  0.00  0.00     0.431 P 
ATOM     23  O1G ATP d   1     -36.462   4.362  14.972  0.00  0.00    -0.616 OA
ATOM     24  O2G ATP d   1     -34.971   3.685  16.942  0.00  0.00    -0.616 OA
ATOM     25  O3G ATP d   1     -36.604   2.051  15.905  0.00  0.00    -0.616 OA
ENDBRANCH  21  22
ENDBRANCH  18  21
ENDBRANCH  17  18
ENDBRANCH  14  17
ENDBRANCH  13  14
ENDBRANCH  10  13
ENDBRANCH   1  10
BRANCH   3  26
ATOM     26  O3' ATP d   1     -32.806   8.555  12.625  0.00  0.00    -0.390 OA
ATOM     27  H5  ATP d   1     -32.773   9.504  12.660  0.00  0.00     0.210 HD
ENDBRANCH   3  26
BRANCH   5  28
ATOM     28  N9  ATP d   1     -28.836   7.964  10.608  0.00  0.00    -0.294 N 
ATOM     29  C8  ATP d   1     -29.236   7.941   9.319  0.00  0.00     0.071 A 
ATOM     30  N7  ATP d   1     -28.414   8.693   8.546  0.00  0.00    -0.236 NA
ATOM     31  H9  ATP d   1     -30.102   7.393   8.950  0.00  0.00     0.144 H 
ATOM     32  C5  ATP d   1     -27.469   9.220   9.351  0.00  0.00     0.149 A 
ATOM     33  C6  ATP d   1     -26.303  10.116   9.188  0.00  0.00     0.155 A 
ATOM     34  C4  ATP d   1     -27.758   8.744  10.713  0.00  0.00     0.167 A 
ATOM     35  N6  ATP d   1     -25.958  10.608   7.974  0.00  0.00    -0.382 N 
ATOM     36  N1  ATP d   1     -25.589  10.418  10.292  0.00  0.00    -0.222 NA
ATOM     37  H10 ATP d   1     -25.142  11.230   7.883  0.00  0.00     0.157 HD
ATOM     38  H11 ATP d   1     -26.511  10.360   7.141  0.00  0.00     0.157 HD
ATOM     39  C2  ATP d   1     -25.916   9.949  11.512  0.00  0.00     0.091 A 
ATOM     40  N3  ATP d   1     -26.961   9.140  11.738  0.00  0.00    -0.222 NA
ATOM     41  H12 ATP d   1     -25.302  10.241  12.356  0.00  0.00     0.146 H 
ENDBRANCH   5  28
BRANCH   4  42
ATOM     42  O2' ATP d   1     -30.426   8.095  13.773  0.00  0.00    -0.388 OA
ATOM     43  H7  ATP d   1     -31.068   8.666  14.178  0.00  0.00     0.210 HD
ENDBRANCH   4  42
TORSDOF 10
