REMARK  6 active torsions:
REMARK  status: ('A' for Active; 'I' for Inactive)
REMARK    1  A    between atoms: CAT_1  and  CAS_2 
REMARK    2  A    between atoms: CAS_2  and  CAU_3 
REMARK    3  A    between atoms: CAS_2  and  CAV_4 
REMARK    4  A    between atoms: CAS_2  and  NAQ_5 
REMARK    5  A    between atoms: CAN_9  and  CAJ_10 
REMARK    6  A    between atoms: CAC_13  and  CAH_14 
ROOT
ATOM      1  CAJ 58N d   1       4.158  57.027  49.920  0.00  0.00     0.006 A 
ATOM      2  CAE 58N d   1       4.246  58.427  50.180  0.00  0.00     0.066 A 
ATOM      3  NAD 58N d   1       5.305  59.104  49.568  0.00  0.00    -0.383 N 
ATOM      4  CAC 58N d   1       5.155  60.288  48.693  0.00  0.00     0.014 C 
ATOM      5  CAB 58N d   1       3.878  61.030  48.947  0.00  0.00     0.028 C 
ATOM      6  CAA 58N d   1       3.842  61.358  50.360  0.00  0.00     0.224 C 
ATOM      7  OAI 58N d   1       4.104  62.523  50.815  0.00  0.00    -0.273 OA
ATOM      8  NAG 58N d   1       3.437  60.416  51.270  0.00  0.00    -0.325 N 
ATOM      9  CAF 58N d   1       3.308  59.041  50.962  0.00  0.00     0.062 A 
ATOM     10  CAM 58N d   1       2.277  58.368  51.594  0.00  0.00    -0.055 A 
ATOM     11  CAL 58N d   1       2.150  56.972  51.346  0.00  0.00    -0.080 A 
ATOM     12  CAK 58N d   1       3.096  56.379  50.538  0.00  0.00    -0.070 A 
ATOM     13  H12 58N d   1       6.258  58.753  49.738  0.00  0.00     0.160 HD
ATOM     14  H13 58N d   1       5.094  59.926  47.656  0.00  0.00     0.072 H 
ATOM     15  H17 58N d   1       3.017  60.397  48.686  0.00  0.00     0.050 H 
ATOM     16  H18 58N d   1       3.852  61.951  48.346  0.00  0.00     0.050 H 
ATOM     17  H19 58N d   1       3.222  60.716  52.199  0.00  0.00     0.169 HD
ATOM     18  H20 58N d   1       1.591  58.886  52.254  0.00  0.00     0.087 H 
ATOM     19  H21 58N d   1       1.339  56.396  51.777  0.00  0.00     0.083 H 
ATOM     20  H22 58N d   1       3.003  55.312  50.370  0.00  0.00     0.084 H 
ENDROOT
BRANCH   1  21
ATOM     21  CAN 58N d   1       4.981  56.314  49.117  0.00  0.00     0.013 A 
ATOM     22  CAR 58N d   1       5.358  55.003  49.378  0.00  0.00     0.011 A 
ATOM     23  NAQ 58N d   1       6.130  54.614  48.347  0.00  0.00    -0.272 N 
ATOM     24  H10 58N d   1       5.083  54.407  50.247  0.00  0.00     0.115 H 
ATOM     25  NAP 58N d   1       6.195  55.596  47.395  0.00  0.00    -0.184 NA
ATOM     26  CAO 58N d   1       5.467  56.649  47.878  0.00  0.00     0.034 A 
ATOM     27  H11 58N d   1       5.301  57.595  47.365  0.00  0.00     0.118 H 
BRANCH  23  28
ATOM     28  CAS 58N d   1       6.744  53.269  48.042  0.00  0.00     0.044 C 
BRANCH  28  29
ATOM     29  CAT 58N d   1       6.507  52.296  49.222  0.00  0.00    -0.052 C 
ATOM     30  H1  58N d   1       6.958  51.320  48.989  0.00  0.00     0.030 H 
ATOM     31  H2  58N d   1       5.426  52.171  49.383  0.00  0.00     0.030 H 
ATOM     32  H3  58N d   1       6.968  52.705  50.133  0.00  0.00     0.030 H 
ENDBRANCH  28  29
BRANCH  28  33
ATOM     33  CAU 58N d   1       6.049  52.664  46.825  0.00  0.00    -0.052 C 
ATOM     34  H4  58N d   1       6.191  53.324  45.956  0.00  0.00     0.030 H 
ATOM     35  H5  58N d   1       4.974  52.556  47.032  0.00  0.00     0.030 H 
ATOM     36  H6  58N d   1       6.482  51.676  46.609  0.00  0.00     0.030 H 
ENDBRANCH  28  33
BRANCH  28  37
ATOM     37  CAV 58N d   1       8.185  53.381  47.811  0.00  0.00    -0.052 C 
ATOM     38  H7  58N d   1       8.666  53.818  48.699  0.00  0.00     0.030 H 
ATOM     39  H8  58N d   1       8.368  54.027  46.939  0.00  0.00     0.030 H 
ATOM     40  H9  58N d   1       8.605  52.382  47.622  0.00  0.00     0.030 H 
ENDBRANCH  28  37
ENDBRANCH  23  28
ENDBRANCH   1  21
BRANCH   4  41
ATOM     41  CAH 58N d   1       6.397  61.100  48.793  0.00  0.00    -0.057 C 
ATOM     42  H14 58N d   1       6.308  61.987  48.149  0.00  0.00     0.030 H 
ATOM     43  H15 58N d   1       7.257  60.496  48.468  0.00  0.00     0.030 H 
ATOM     44  H16 58N d   1       6.545  61.417  49.836  0.00  0.00     0.030 H 
ENDBRANCH   4  41
TORSDOF 6
