REMARK  6 active torsions:
REMARK  status: ('A' for Active; 'I' for Inactive)
REMARK    1  A    between atoms: C06_10  and  C15_4 
REMARK    2  A    between atoms: C02_6  and  N01_5 
REMARK    3  A    between atoms: C03_7  and  C02_6 
REMARK    4  A    between atoms: C02_6  and  C18_18 
REMARK    5  A    between atoms: C04_8  and  C03_7 
REMARK    6  A    between atoms: N08_12  and  C09_13 
ROOT
ATOM      1  C04 5E0 d   1     -20.590  19.062 -11.625  0.00  0.00     0.045 C 
ATOM      2  C05 5E0 d   1     -21.126  19.642 -10.287  0.00  0.00    -0.006 C 
ATOM      3  C06 5E0 d   1     -20.266  20.669 -10.047  0.00  0.00     0.207 C 
ATOM      4  N07 5E0 d   1     -19.873  21.205 -11.330  0.00  0.00     0.021 N 
ATOM      5  N08 5E0 d   1     -19.671  20.172 -12.111  0.00  0.00    -0.207 N 
ATOM      6  H10 5E0 d   1     -21.407  18.841 -12.328  0.00  0.00     0.076 H 
ATOM      7  H11 5E0 d   1     -21.084  18.892  -9.483  0.00  0.00     0.040 H 
ATOM      8  H12 5E0 d   1     -22.159  20.005 -10.396  0.00  0.00     0.040 H 
ATOM      9  H13 5E0 d   1     -19.363  20.162  -9.675  0.00  0.00     0.105 H 
ATOM     10  H14 5E0 d   1     -19.027  21.745 -11.239  0.00  0.00     0.307 HD
ATOM     11  H15 5E0 d   1     -20.605  21.788 -11.704  0.00  0.00     0.307 HD
ENDROOT
BRANCH   1  12
ATOM     12  C03 5E0 d   1     -19.759  17.910 -11.429  0.00  0.00    -0.008 C 
ATOM     13  H8  5E0 d   1     -19.252  17.669 -12.375  0.00  0.00     0.040 H 
ATOM     14  H9  5E0 d   1     -19.008  18.137 -10.658  0.00  0.00     0.040 H 
BRANCH  12  15
ATOM     15  C02 5E0 d   1     -20.569  16.722 -10.990  0.00  0.00     0.184 C 
ATOM     16  H7  5E0 d   1     -21.445  17.015 -10.393  0.00  0.00     0.101 H 
BRANCH  15  17
ATOM     17  N01 5E0 d   1     -20.968  15.953 -12.110  0.00  0.00    -0.065 N 
ATOM     18  H4  5E0 d   1     -21.646  16.469 -12.648  0.00  0.00     0.275 HD
ATOM     19  H5  5E0 d   1     -21.377  15.088 -11.795  0.00  0.00     0.275 HD
ATOM     20  H6  5E0 d   1     -20.164  15.755 -12.685  0.00  0.00     0.275 HD
ENDBRANCH  15  17
BRANCH  15  21
ATOM     21  C18 5E0 d   1     -19.541  15.947 -10.170  0.00  0.00     0.204 C 
ATOM     22  O19 5E0 d   1     -19.238  14.749 -10.424  0.00  0.00    -0.646 OA
ATOM     23  O20 5E0 d   1     -18.985  16.574  -9.240  0.00  0.00    -0.646 OA
ENDBRANCH  15  21
ENDBRANCH  12  15
ENDBRANCH   1  12
BRANCH   5  24
ATOM     24  C09 5E0 d   1     -18.697  20.070 -13.192  0.00  0.00     0.058 A 
ATOM     25  C10 5E0 d   1     -17.366  20.734 -13.023  0.00  0.00    -0.056 A 
ATOM     26  C11 5E0 d   1     -16.357  20.603 -14.126  0.00  0.00    -0.081 A 
ATOM     27  H1  5E0 d   1     -17.137  21.296 -12.125  0.00  0.00     0.087 H 
ATOM     28  C12 5E0 d   1     -16.680  19.802 -15.343  0.00  0.00    -0.083 A 
ATOM     29  H16 5E0 d   1     -15.393  21.091 -14.039  0.00  0.00     0.083 H 
ATOM     30  C13 5E0 d   1     -18.048  19.172 -15.510  0.00  0.00    -0.081 A 
ATOM     31  H17 5E0 d   1     -15.930  19.670 -16.114  0.00  0.00     0.083 H 
ATOM     32  C14 5E0 d   1     -19.050  19.294 -14.428  0.00  0.00    -0.056 A 
ATOM     33  H2  5E0 d   1     -18.292  18.634 -16.419  0.00  0.00     0.083 H 
ATOM     34  H3  5E0 d   1     -20.025  18.830 -14.526  0.00  0.00     0.087 H 
ENDBRANCH   5  24
BRANCH   3  35
ATOM     35  C15 5E0 d   1     -20.526  21.692  -8.932  0.00  0.00     0.207 C 
ATOM     36  O16 5E0 d   1     -19.801  22.722  -8.847  0.00  0.00    -0.646 OA
ATOM     37  O17 5E0 d   1     -21.475  21.507  -8.117  0.00  0.00    -0.646 OA
ENDBRANCH   3  35
TORSDOF 6
