REMARK  8 active torsions:
REMARK  status: ('A' for Active; 'I' for Inactive)
REMARK    1  A    between atoms: C8_6  and  C4_2 
REMARK    2  A    between atoms: C20_10  and  N25_27 
REMARK    3  A    between atoms: N25_27  and  C26_13 
REMARK    4  A    between atoms: C27_28  and  C28_14 
REMARK    5  A    between atoms: C2_16  and  C1_15 
REMARK    6  A    between atoms: C14_20  and  C11_18 
REMARK    7  A    between atoms: N17_22  and  C27_28 
REMARK    8  A    between atoms: C32_31  and  N36_34 
ROOT
ATOM      1  C15 59T d   1      17.268 -15.391  13.054  0.00  0.00     0.260 A 
ATOM      2  C20 59T d   1      15.389 -16.204  17.240  0.00  0.00     0.723 A 
ATOM      3  C22 59T d   1      17.471 -17.127  16.858  0.00  0.00     0.035 A 
ATOM      4  C24 59T d   1      18.547 -16.716  14.668  0.00  0.00    -0.052 A 
ATOM      5  C14 59T d   1      18.476 -16.137  13.421  0.00  0.00     0.045 A 
ATOM      6  O16 59T d   1      17.193 -14.909  11.940  0.00  0.00    -0.267 OA
ATOM      7  N17 59T d   1      16.258 -15.221  13.939  0.00  0.00    -0.292 N 
ATOM      8  C18 59T d   1      16.333 -15.791  15.185  0.00  0.00     0.163 A 
ATOM      9  N19 59T d   1      15.329 -15.655  16.043  0.00  0.00    -0.044 NA
ATOM     10  N21 59T d   1      16.428 -16.925  17.655  0.00  0.00    -0.074 NA
ATOM     11  C23 59T d   1      17.459 -16.561  15.567  0.00  0.00     0.030 A 
ATOM     12  H5  59T d   1      18.316 -17.716  17.194  0.00  0.00     0.117 H 
ATOM     13  H6  59T d   1      19.427 -17.286  14.961  0.00  0.00     0.086 H 
ENDROOT
BRANCH   5  14
ATOM     14  C11 59T d   1      19.594 -16.201  12.427  0.00  0.00     0.001 A 
ATOM     15  C10 59T d   1      19.531 -17.047  11.318  0.00  0.00     0.046 A 
ATOM     16  C9  59T d   1      20.565 -17.067  10.402  0.00  0.00    -0.049 A 
ATOM     17 CL1  59T d   1      18.170 -18.089  11.076  0.00  0.00    -0.083 Cl
ATOM     18  C8  59T d   1      21.677 -16.244  10.561  0.00  0.00    -0.006 A 
ATOM     19  H14 59T d   1      20.510 -17.732   9.548  0.00  0.00     0.087 H 
ATOM     20  C13 59T d   1      21.744 -15.389  11.665  0.00  0.00    -0.070 A 
ATOM     21  C12 59T d   1      20.710 -15.370  12.582  0.00  0.00    -0.070 A 
ATOM     22  H4  59T d   1      22.604 -14.743  11.801  0.00  0.00     0.084 H 
ATOM     23  H15 59T d   1      20.764 -14.702  13.434  0.00  0.00     0.085 H 
BRANCH  18  24
ATOM     24  C4  59T d   1      22.761 -16.318   9.541  0.00  0.00     0.067 A 
ATOM     25  N3  59T d   1      22.432 -16.258   8.257  0.00  0.00    -0.253 NA
ATOM     26  C2  59T d   1      23.326 -16.324   7.295  0.00  0.00     0.031 A 
ATOM     27  C7  59T d   1      24.665 -16.471   7.585  0.00  0.00    -0.059 A 
ATOM     28  C6  59T d   1      25.057 -16.546   8.917  0.00  0.00    -0.079 A 
ATOM     29  H3  59T d   1      25.399 -16.527   6.790  0.00  0.00     0.086 H 
ATOM     30  C5  59T d   1      24.095 -16.468   9.913  0.00  0.00    -0.054 A 
ATOM     31  H2  59T d   1      26.103 -16.664   9.174  0.00  0.00     0.083 H 
ATOM     32  H1  59T d   1      24.375 -16.523  10.959  0.00  0.00     0.087 H 
BRANCH  26  33
ATOM     33  C1  59T d   1      22.874 -16.240   5.864  0.00  0.00    -0.035 C 
ATOM     34  H11 59T d   1      23.747 -16.312   5.199  0.00  0.00     0.035 H 
ATOM     35  H12 59T d   1      22.363 -15.280   5.697  0.00  0.00     0.035 H 
ATOM     36  H13 59T d   1      22.181 -17.067   5.649  0.00  0.00     0.035 H 
ENDBRANCH  26  33
ENDBRANCH  18  24
ENDBRANCH   5  14
BRANCH   7  37
ATOM     37  C27 59T d   1      15.062 -14.464  13.563  0.00  0.00     0.050 C 
ATOM     38  H17 59T d   1      14.666 -14.842  12.609  0.00  0.00     0.072 H 
ATOM     39  H18 59T d   1      14.295 -14.566  14.345  0.00  0.00     0.072 H 
BRANCH  37  40
ATOM     40  C28 59T d   1      15.462 -12.989  13.414  0.00  0.00     0.146 C 
ATOM     41  O30 59T d   1      14.341 -12.172  13.075  0.00  0.00    -0.357 OA
ATOM     42  C31 59T d   1      14.687 -10.809  12.821  0.00  0.00     0.051 C 
ATOM     43  C32 59T d   1      15.372 -10.226  14.057  0.00  0.00     0.140 C 
ATOM     44  H19 59T d   1      13.776 -10.233  12.599  0.00  0.00     0.077 H 
ATOM     45  H20 59T d   1      15.372 -10.757  11.962  0.00  0.00     0.077 H 
ATOM     46  C34 59T d   1      16.528 -11.152  14.465  0.00  0.00     0.051 C 
ATOM     47  H21 59T d   1      14.649 -10.152  14.883  0.00  0.00     0.090 H 
ATOM     48  O35 59T d   1      16.038 -12.492  14.624  0.00  0.00    -0.357 OA
ATOM     49  H22 59T d   1      16.958 -10.804  15.416  0.00  0.00     0.077 H 
ATOM     50  H23 59T d   1      17.303 -11.136  13.685  0.00  0.00     0.077 H 
ATOM     51  H10 59T d   1      16.208 -12.915  12.609  0.00  0.00     0.131 H 
BRANCH  43  52
ATOM     52  N36 59T d   1      15.888  -8.889  13.736  0.00  0.00    -0.071 N 
ATOM     53  H24 59T d   1      15.123  -8.289  13.470  0.00  0.00     0.274 HD
ATOM     54  H25 59T d   1      16.544  -8.956  12.973  0.00  0.00     0.274 HD
ATOM     55  H26 59T d   1      16.351  -8.505  14.545  0.00  0.00     0.274 HD
ENDBRANCH  43  52
ENDBRANCH  37  40
ENDBRANCH   7  37
BRANCH   2  56
ATOM     56  N25 59T d   1      14.309 -15.998  18.066  0.00  0.00    -0.227 N 
ATOM     57  H16 59T d   1      14.285 -16.392  19.017  0.00  0.00     0.177 HD
BRANCH  56  58
ATOM     58  C26 59T d   1      13.193 -15.199  17.550  0.00  0.00    -0.005 C 
ATOM     59  H7  59T d   1      12.410 -15.123  18.319  0.00  0.00     0.057 H 
ATOM     60  H8  59T d   1      12.780 -15.683  16.653  0.00  0.00     0.057 H 
ATOM     61  H9  59T d   1      13.552 -14.192  17.291  0.00  0.00     0.057 H 
ENDBRANCH  56  58
ENDBRANCH   2  56
TORSDOF 8
