REMARK  11 active torsions:
REMARK  status: ('A' for Active; 'I' for Inactive)
REMARK    1  A    between atoms: C06_19  and  C10_1 
REMARK    2  A    between atoms: C13_2  and  C16_28 
REMARK    3  A    between atoms: C19_31  and  C20_5 
REMARK    4  A    between atoms: C22_7  and  C21_6 
REMARK    5  A    between atoms: C21_6  and  N01_10 
REMARK    6  A    between atoms: C23_33  and  C22_7 
REMARK    7  A    between atoms: N01_10  and  C01_12 
REMARK    8  A    between atoms: N04_17  and  C08_21 
REMARK    9  A    between atoms: C05_18  and  O_23 
REMARK   10  A    between atoms: C08_21  and  C09_22 
REMARK   11  A    between atoms: N_35  and  C_37 
ROOT
ATOM      1  N02 59U d   1      16.804  34.666 -12.710  0.00  0.00    -0.075 NA
ATOM      2  C01 59U d   1      16.866  34.802 -14.073  0.00  0.00     0.724 A 
ATOM      3  N03 59U d   1      15.822  34.950 -14.921  0.00  0.00    -0.044 NA
ATOM      4  C02 59U d   1      14.606  34.942 -14.359  0.00  0.00     0.159 A 
ATOM      5  C03 59U d   1      14.381  34.780 -12.958  0.00  0.00     0.011 A 
ATOM      6  C04 59U d   1      15.540  34.652 -12.173  0.00  0.00     0.031 A 
ATOM      7  N04 59U d   1      13.475  35.093 -15.319  0.00  0.00    -0.311 N 
ATOM      8  C05 59U d   1      12.120  35.079 -14.840  0.00  0.00     0.151 A 
ATOM      9  C06 59U d   1      11.848  34.945 -13.430  0.00  0.00     0.009 A 
ATOM     10  C07 59U d   1      12.935  34.790 -12.488  0.00  0.00    -0.007 A 
ATOM     11  H14 59U d   1      15.432  34.538 -11.101  0.00  0.00     0.116 H 
ATOM     12  H15 59U d   1      12.845  35.617 -11.768  0.00  0.00     0.047 H 
ATOM     13  H16 59U d   1      12.767  33.834 -11.971  0.00  0.00     0.047 H 
ENDROOT
BRANCH   2  14
ATOM     14  N01 59U d   1      18.160  34.839 -14.749  0.00  0.00    -0.222 N 
ATOM     15  H13 59U d   1      18.831  35.587 -14.520  0.00  0.00     0.177 HD
BRANCH  14  16
ATOM     16  C21 59U d   1      18.520  33.824 -15.752  0.00  0.00     0.010 C 
ATOM     17  H5  59U d   1      19.602  33.888 -15.941  0.00  0.00     0.064 H 
ATOM     18  H6  59U d   1      18.277  32.831 -15.346  0.00  0.00     0.064 H 
BRANCH  16  19
ATOM     19  C22 59U d   1      17.784  33.999 -17.080  0.00  0.00    -0.046 C 
ATOM     20  H7  59U d   1      17.694  35.070 -17.315  0.00  0.00     0.035 H 
ATOM     21  H8  59U d   1      16.781  33.553 -17.009  0.00  0.00     0.035 H 
BRANCH  19  22
ATOM     22  C23 59U d   1      18.578  33.301 -18.170  0.00  0.00    -0.050 C 
ATOM     23  C24 59U d   1      19.576  34.302 -18.756  0.00  0.00    -0.039 C 
ATOM     24  C25 59U d   1      20.142  33.933 -20.107  0.00  0.00     0.083 C 
ATOM     25  H9  59U d   1      20.415  34.398 -18.051  0.00  0.00     0.035 H 
ATOM     26  H10 59U d   1      19.067  35.272 -18.854  0.00  0.00     0.035 H 
ATOM     27  N   59U d   1      19.365  33.017 -20.925  0.00  0.00    -0.075 N 
ATOM     28  H28 59U d   1      21.127  33.472 -19.939  0.00  0.00     0.075 H 
ATOM     29  H29 59U d   1      20.266  34.864 -20.680  0.00  0.00     0.075 H 
ATOM     30  C26 59U d   1      17.944  32.978 -20.635  0.00  0.00     0.083 C 
ATOM     31  H30 59U d   1      19.664  32.131 -20.549  0.00  0.00     0.279 HD
ATOM     32  C27 59U d   1      17.673  32.636 -19.192  0.00  0.00    -0.039 C 
ATOM     33  H11 59U d   1      17.471  32.218 -21.275  0.00  0.00     0.075 H 
ATOM     34  H12 59U d   1      17.509  33.964 -20.854  0.00  0.00     0.075 H 
ATOM     35  H31 59U d   1      17.780  31.547 -19.078  0.00  0.00     0.035 H 
ATOM     36  H32 59U d   1      16.637  32.929 -18.965  0.00  0.00     0.035 H 
ATOM     37  H27 59U d   1      19.162  32.497 -17.698  0.00  0.00     0.040 H 
BRANCH  27  38
ATOM     38  C   59U d   1      19.746  32.852 -22.334  0.00  0.00     0.066 C 
ATOM     39  H33 59U d   1      19.068  32.132 -22.815  0.00  0.00     0.068 H 
ATOM     40  H34 59U d   1      20.779  32.479 -22.393  0.00  0.00     0.068 H 
ATOM     41  H35 59U d   1      19.676  33.822 -22.849  0.00  0.00     0.068 H 
ENDBRANCH  27  38
ENDBRANCH  19  22
ENDBRANCH  16  19
ENDBRANCH  14  16
ENDBRANCH   2  14
BRANCH   7  42
ATOM     42  C08 59U d   1      13.703  35.232 -16.753  0.00  0.00     0.000 C 
ATOM     43  H17 59U d   1      14.586  35.864 -16.925  0.00  0.00     0.064 H 
ATOM     44  H18 59U d   1      12.823  35.696 -17.222  0.00  0.00     0.064 H 
BRANCH  42  45
ATOM     45  C09 59U d   1      13.935  33.863 -17.355  0.00  0.00    -0.061 C 
ATOM     46  H19 59U d   1      14.107  33.963 -18.437  0.00  0.00     0.029 H 
ATOM     47  H20 59U d   1      13.051  33.231 -17.181  0.00  0.00     0.029 H 
ATOM     48  H21 59U d   1      14.815  33.400 -16.885  0.00  0.00     0.029 H 
ENDBRANCH  42  45
ENDBRANCH   7  42
BRANCH   8  49
ATOM     49  O   59U d   1      11.065  35.214 -15.683  0.00  0.00    -0.345 OA
ATOM     50  H22 59U d   1      11.076  34.508 -16.319  0.00  0.00     0.219 HD
ENDBRANCH   8  49
BRANCH   9  51
ATOM     51  C10 59U d   1      10.420  34.929 -12.924  0.00  0.00    -0.004 A 
ATOM     52  C15 59U d   1       9.647  36.100 -12.953  0.00  0.00     0.045 A 
ATOM     53  C14 59U d   1       8.328  36.095 -12.506  0.00  0.00    -0.049 A 
ATOM     54 CL   59U d   1      10.333  37.557 -13.548  0.00  0.00    -0.083 Cl
ATOM     55  C13 59U d   1       7.788  34.903 -12.023  0.00  0.00    -0.004 A 
ATOM     56  H25 59U d   1       7.732  37.000 -12.533  0.00  0.00     0.087 H 
ATOM     57  C12 59U d   1       8.542  33.725 -12.007  0.00  0.00    -0.070 A 
ATOM     58  C11 59U d   1       9.868  33.737 -12.457  0.00  0.00    -0.070 A 
ATOM     59  H24 59U d   1       8.100  32.803 -11.646  0.00  0.00     0.084 H 
ATOM     60  H23 59U d   1      10.459  32.829 -12.442  0.00  0.00     0.084 H 
BRANCH  55  61
ATOM     61  C16 59U d   1       6.371  34.836 -11.535  0.00  0.00     0.085 A 
ATOM     62  C17 59U d   1       6.112  34.215 -10.314  0.00  0.00     0.030 A 
ATOM     63  N05 59U d   1       4.854  34.092  -9.834  0.00  0.00    -0.269 NA
ATOM     64  H1  59U d   1       6.940  33.821  -9.735  0.00  0.00     0.118 H 
ATOM     65  C18 59U d   1       3.889  34.603 -10.616  0.00  0.00     0.025 A 
ATOM     66  C19 59U d   1       4.153  35.207 -11.836  0.00  0.00     0.049 A 
ATOM     67  H26 59U d   1       2.861  34.541 -10.279  0.00  0.00     0.117 H 
ATOM     68  N06 59U d   1       5.406  35.342 -12.319  0.00  0.00    -0.250 NA
BRANCH  66  69
ATOM     69  C20 59U d   1       3.012  35.745 -12.646  0.00  0.00    -0.034 C 
ATOM     70  H2  59U d   1       2.066  35.556 -12.117  0.00  0.00     0.035 H 
ATOM     71  H3  59U d   1       2.990  35.246 -13.626  0.00  0.00     0.035 H 
ATOM     72  H4  59U d   1       3.142  36.828 -12.789  0.00  0.00     0.035 H 
ENDBRANCH  66  69
ENDBRANCH  55  61
ENDBRANCH   9  51
TORSDOF 11
