REMARK  19 active torsions:
REMARK  status: ('A' for Active; 'I' for Inactive)
REMARK    1  A    between atoms: C2_1  and  O39_38 
REMARK    2  A    between atoms: S8_7  and  C5_4 
REMARK    3  A    between atoms: N11_10  and  S8_7 
REMARK    4  A    between atoms: N11_10  and  C12_11 
REMARK    5  A    between atoms: C16_15  and  N11_10 
REMARK    6  A    between atoms: C12_11  and  C13_12 
REMARK    7  A    between atoms: C13_12  and  C14_13 
REMARK    8  A    between atoms: C13_12  and  C15_14 
REMARK    9  A    between atoms: C17_16  and  C16_15 
REMARK   10  A    between atoms: C17_16  and  O18_17 
REMARK   11  A    between atoms: C19_18  and  C17_16 
REMARK   12  A    between atoms: C19_18  and  N20_19 
REMARK   13  A    between atoms: C32_31  and  C19_18 
REMARK       I    between atoms: N20_19  and  C21_20 
REMARK   14  A    between atoms: C21_20  and  O23_22 
REMARK   15  A    between atoms: O23_22  and  C24_23 
REMARK   16  A    between atoms: C30_29  and  O41_40 
REMARK   17  A    between atoms: C38_37  and  C32_31 
REMARK   18  A    between atoms: O39_38  and  C40_39 
REMARK   19  A    between atoms: O41_40  and  C42_41 
ROOT
ATOM      1  C19 5B7 d   1      15.059  22.994  16.927  0.00  0.00     0.044 C 
ATOM      2  H18 5B7 d   1      15.982  22.495  16.595  0.00  0.00     0.077 H 
ENDROOT
BRANCH   1   3
ATOM      3  C17 5B7 d   1      15.448  24.082  17.926  0.00  0.00     0.071 C 
ATOM      4  H16 5B7 d   1      15.828  23.594  18.836  0.00  0.00     0.088 H 
BRANCH   3   5
ATOM      5  C16 5B7 d   1      16.542  25.017  17.399  0.00  0.00     0.031 C 
ATOM      6  H14 5B7 d   1      16.283  25.347  16.382  0.00  0.00     0.069 H 
ATOM      7  H15 5B7 d   1      16.624  25.893  18.059  0.00  0.00     0.069 H 
BRANCH   5   8
ATOM      8  N11 5B7 d   1      17.814  24.311  17.370  0.00  0.00    -0.304 N 
BRANCH   8   9
ATOM      9  S8  5B7 d   1      18.524  24.065  15.891  0.00  0.00     0.260 S 
ATOM     10  O9  5B7 d   1      17.448  24.007  14.884  0.00  0.00    -0.200 OA
ATOM     11  O10 5B7 d   1      19.451  22.913  16.077  0.00  0.00    -0.200 OA
BRANCH   9  12
ATOM     12  C5  5B7 d   1      19.517  25.480  15.518  0.00  0.00     0.079 A 
ATOM     13  C4  5B7 d   1      18.932  26.607  14.966  0.00  0.00    -0.058 A 
ATOM     14  C3  5B7 d   1      19.707  27.745  14.664  0.00  0.00    -0.049 A 
ATOM     15  H2  5B7 d   1      17.867  26.614  14.764  0.00  0.00     0.086 H 
ATOM     16  C2  5B7 d   1      21.087  27.732  14.924  0.00  0.00     0.068 A 
ATOM     17  H1  5B7 d   1      19.241  28.624  14.234  0.00  0.00     0.087 H 
ATOM     18  C7  5B7 d   1      21.682  26.581  15.484  0.00  0.00    -0.049 A 
ATOM     19  C6  5B7 d   1      20.885  25.456  15.779  0.00  0.00    -0.058 A 
ATOM     20  H4  5B7 d   1      22.747  26.562  15.686  0.00  0.00     0.087 H 
ATOM     21  H3  5B7 d   1      21.338  24.570  16.210  0.00  0.00     0.086 H 
BRANCH  16  22
ATOM     22  O39 5B7 d   1      21.773  28.869  14.604  0.00  0.00    -0.356 OA
BRANCH  22  23
ATOM     23  C40 5B7 d   1      23.106  28.844  15.058  0.00  0.00     0.010 C 
ATOM     24  H35 5B7 d   1      23.608  29.781  14.773  0.00  0.00     0.066 H 
ATOM     25  H36 5B7 d   1      23.633  27.993  14.602  0.00  0.00     0.066 H 
ATOM     26  H37 5B7 d   1      23.119  28.739  16.153  0.00  0.00     0.066 H 
ENDBRANCH  22  23
ENDBRANCH  16  22
ENDBRANCH   9  12
ENDBRANCH   8   9
BRANCH   8  27
ATOM     27  C12 5B7 d   1      18.698  24.617  18.474  0.00  0.00     0.008 C 
ATOM     28  H5  5B7 d   1      18.632  25.696  18.678  0.00  0.00     0.066 H 
ATOM     29  H6  5B7 d   1      19.725  24.363  18.172  0.00  0.00     0.066 H 
BRANCH  27  30
ATOM     30  C13 5B7 d   1      18.380  23.862  19.775  0.00  0.00    -0.045 C 
ATOM     31  H7  5B7 d   1      17.357  24.123  20.084  0.00  0.00     0.041 H 
BRANCH  30  32
ATOM     32  C14 5B7 d   1      18.468  22.339  19.607  0.00  0.00    -0.072 C 
ATOM     33  H8  5B7 d   1      18.232  21.850  20.564  0.00  0.00     0.028 H 
ATOM     34  H9  5B7 d   1      19.486  22.063  19.295  0.00  0.00     0.028 H 
ATOM     35  H10 5B7 d   1      17.749  22.012  18.841  0.00  0.00     0.028 H 
ENDBRANCH  30  32
BRANCH  30  36
ATOM     36  C15 5B7 d   1      19.368  24.286  20.884  0.00  0.00    -0.072 C 
ATOM     37  H11 5B7 d   1      19.320  25.377  21.020  0.00  0.00     0.028 H 
ATOM     38  H12 5B7 d   1      20.389  23.997  20.595  0.00  0.00     0.028 H 
ATOM     39  H13 5B7 d   1      19.098  23.787  21.826  0.00  0.00     0.028 H 
ENDBRANCH  30  36
ENDBRANCH  27  30
ENDBRANCH   8  27
ENDBRANCH   5   8
ENDBRANCH   3   5
BRANCH   3  40
ATOM     40  O18 5B7 d   1      14.274  24.840  18.262  0.00  0.00    -0.392 OA
ATOM     41  H17 5B7 d   1      13.956  25.289  17.488  0.00  0.00     0.210 HD
ENDBRANCH   3  40
ENDBRANCH   1   3
BRANCH   1  42
ATOM     42  N20 5B7 d   1      14.189  22.000  17.561  0.00  0.00    -0.329 N 
ATOM     43  C21 5B7 d   1      14.458  20.703  17.702  0.00  0.00     0.361 C 
ATOM     44  O22 5B7 d   1      15.571  20.194  17.496  0.00  0.00    -0.238 OA
ATOM     45  H19 5B7 d   1      13.314  22.325  17.920  0.00  0.00     0.165 HD
BRANCH  43  46
ATOM     46  O23 5B7 d   1      13.367  19.968  18.073  0.00  0.00    -0.298 OA
BRANCH  46  47
ATOM     47  C24 5B7 d   1      13.630  18.577  18.279  0.00  0.00     0.062 C 
ATOM     48  C25 5B7 d   1      13.869  18.407  19.782  0.00  0.00    -0.020 C 
ATOM     49  C44 5B7 d   1      12.605  18.750  20.546  0.00  0.00     0.025 C 
ATOM     50  H21 5B7 d   1      14.681  19.077  20.101  0.00  0.00     0.040 H 
ATOM     51  H22 5B7 d   1      14.150  17.364  19.991  0.00  0.00     0.040 H 
ATOM     52  O26 5B7 d   1      11.429  18.013  20.188  0.00  0.00    -0.361 OA
ATOM     53  H41 5B7 d   1      12.394  19.817  20.384  0.00  0.00     0.074 H 
ATOM     54  H42 5B7 d   1      12.800  18.573  21.614  0.00  0.00     0.074 H 
ATOM     55  C27 5B7 d   1      11.190  17.978  18.780  0.00  0.00     0.139 C 
ATOM     56  O28 5B7 d   1      10.625  19.231  18.384  0.00  0.00    -0.358 OA
ATOM     57  C31 5B7 d   1      12.378  17.792  17.876  0.00  0.00     0.046 C 
ATOM     58  H23 5B7 d   1      10.478  17.163  18.585  0.00  0.00     0.129 H 
ATOM     59  C29 5B7 d   1      10.852  19.423  16.984  0.00  0.00     0.047 C 
ATOM     60  C30 5B7 d   1      11.805  18.312  16.529  0.00  0.00     0.069 C 
ATOM     61  H24 5B7 d   1      11.308  20.408  16.807  0.00  0.00     0.078 H 
ATOM     62  H25 5B7 d   1       9.902  19.355  16.434  0.00  0.00     0.078 H 
ATOM     63  H26 5B7 d   1      12.581  18.654  15.828  0.00  0.00     0.087 H 
ATOM     64  H27 5B7 d   1      12.644  16.727  17.810  0.00  0.00     0.055 H 
ATOM     65  H20 5B7 d   1      14.503  18.244  17.698  0.00  0.00     0.085 H 
BRANCH  60  66
ATOM     66  O41 5B7 d   1      10.972  17.270  15.970  0.00  0.00    -0.388 OA
BRANCH  66  67
ATOM     67  C42 5B7 d   1      10.760  17.468  14.571  0.00  0.00     0.005 C 
ATOM     68  H38 5B7 d   1      10.124  16.660  14.179  0.00  0.00     0.066 H 
ATOM     69  H39 5B7 d   1      11.728  17.459  14.049  0.00  0.00     0.066 H 
ATOM     70  H40 5B7 d   1      10.264  18.436  14.409  0.00  0.00     0.066 H 
ENDBRANCH  66  67
ENDBRANCH  60  66
ENDBRANCH  46  47
ENDBRANCH  43  46
ENDBRANCH   1  42
BRANCH   1  71
ATOM     71  C32 5B7 d   1      14.336  23.556  15.680  0.00  0.00    -0.020 C 
ATOM     72  H28 5B7 d   1      14.965  24.317  15.196  0.00  0.00     0.043 H 
ATOM     73  H29 5B7 d   1      13.377  24.007  15.976  0.00  0.00     0.043 H 
BRANCH  71  74
ATOM     74  C38 5B7 d   1      14.084  22.386  14.702  0.00  0.00    -0.056 C 
ATOM     75  C33 5B7 d   1      12.786  21.914  14.571  0.00  0.00    -0.077 C 
ATOM     76  C34 5B7 d   1      12.499  20.852  13.736  0.00  0.00    -0.082 C 
ATOM     77  H30 5B7 d   1      11.986  22.385  15.131  0.00  0.00     0.084 H 
ATOM     78  C35 5B7 d   1      13.522  20.156  13.071  0.00  0.00    -0.083 C 
ATOM     79  H31 5B7 d   1      11.468  20.551  13.591  0.00  0.00     0.083 H 
ATOM     80  C36 5B7 d   1      14.797  20.679  13.134  0.00  0.00    -0.082 C 
ATOM     81  H32 5B7 d   1      13.317  19.241  12.528  0.00  0.00     0.083 H 
ATOM     82  C37 5B7 d   1      15.094  21.779  13.981  0.00  0.00    -0.077 C 
ATOM     83  H33 5B7 d   1      15.583  20.244  12.528  0.00  0.00     0.083 H 
ATOM     84  H34 5B7 d   1      16.112  22.142  14.062  0.00  0.00     0.084 H 
ENDBRANCH  71  74
ENDBRANCH   1  71
TORSDOF 19
