REMARK  20 active torsions:
REMARK  status: ('A' for Active; 'I' for Inactive)
REMARK    1  A    between atoms: C2_1  and  O39_38 
REMARK    2  A    between atoms: S8_7  and  C5_4 
REMARK    3  A    between atoms: N11_10  and  S8_7 
REMARK    4  A    between atoms: N11_10  and  C12_11 
REMARK    5  A    between atoms: C16_15  and  N11_10 
REMARK    6  A    between atoms: C12_11  and  C13_12 
REMARK    7  A    between atoms: C13_12  and  C14_13 
REMARK    8  A    between atoms: C13_12  and  C15_14 
REMARK    9  A    between atoms: C17_16  and  C16_15 
REMARK   10  A    between atoms: C17_16  and  O18_17 
REMARK   11  A    between atoms: C19_18  and  C17_16 
REMARK   12  A    between atoms: C19_18  and  N20_19 
REMARK   13  A    between atoms: C32_31  and  C19_18 
REMARK       I    between atoms: N20_19  and  C21_20 
REMARK   14  A    between atoms: C21_20  and  O23_22 
REMARK   15  A    between atoms: O23_22  and  C24_23 
REMARK   16  A    between atoms: C30_29  and  N52_41 
REMARK   17  A    between atoms: C38_37  and  C32_31 
REMARK   18  A    between atoms: O39_38  and  C40_39 
REMARK   19  A    between atoms: N52_41  and  C53_42 
REMARK   20  A    between atoms: C53_42  and  C54_43 
ROOT
ATOM      1  C19 5B5 d   1      14.990  22.908  16.892  0.00  0.00     0.044 C 
ATOM      2  H18 5B5 d   1      15.935  22.440  16.580  0.00  0.00     0.077 H 
ENDROOT
BRANCH   1   3
ATOM      3  C17 5B5 d   1      15.279  24.052  17.869  0.00  0.00     0.067 C 
ATOM      4  H16 5B5 d   1      15.556  23.582  18.824  0.00  0.00     0.088 H 
BRANCH   3   5
ATOM      5  C16 5B5 d   1      16.456  24.932  17.466  0.00  0.00     0.019 C 
ATOM      6  H14 5B5 d   1      16.265  25.349  16.466  0.00  0.00     0.061 H 
ATOM      7  H15 5B5 d   1      16.555  25.752  18.193  0.00  0.00     0.061 H 
BRANCH   5   8
ATOM      8  N11 5B5 d   1      17.693  24.180  17.433  0.00  0.00    -0.204 NA
BRANCH   8   9
ATOM      9  S8  5B5 d   1      18.375  24.078  15.955  0.00  0.00     0.243 S 
ATOM     10  O9  5B5 d   1      17.305  23.972  14.912  0.00  0.00    -0.206 OA
ATOM     11  O10 5B5 d   1      19.236  22.847  15.965  0.00  0.00    -0.206 OA
BRANCH   9  12
ATOM     12  C5  5B5 d   1      19.368  25.462  15.540  0.00  0.00     0.074 A 
ATOM     13  C4  5B5 d   1      20.738  25.454  15.758  0.00  0.00    -0.058 A 
ATOM     14  C3  5B5 d   1      21.524  26.532  15.359  0.00  0.00    -0.049 A 
ATOM     15  H2  5B5 d   1      21.200  24.602  16.243  0.00  0.00     0.086 H 
ATOM     16  C2  5B5 d   1      20.928  27.614  14.705  0.00  0.00     0.068 A 
ATOM     17  H1  5B5 d   1      22.590  26.532  15.554  0.00  0.00     0.087 H 
ATOM     18  C7  5B5 d   1      19.571  27.597  14.411  0.00  0.00    -0.049 A 
ATOM     19  C6  5B5 d   1      18.800  26.498  14.802  0.00  0.00    -0.058 A 
ATOM     20  H4  5B5 d   1      19.114  28.427  13.884  0.00  0.00     0.087 H 
ATOM     21  H3  5B5 d   1      17.752  26.452  14.529  0.00  0.00     0.086 H 
BRANCH  16  22
ATOM     22  O39 5B5 d   1      21.695  28.695  14.393  0.00  0.00    -0.356 OA
BRANCH  22  23
ATOM     23  C40 5B5 d   1      22.941  28.624  15.093  0.00  0.00     0.010 C 
ATOM     24  H35 5B5 d   1      23.556  29.500  14.837  0.00  0.00     0.066 H 
ATOM     25  H36 5B5 d   1      23.473  27.706  14.803  0.00  0.00     0.066 H 
ATOM     26  H37 5B5 d   1      22.753  28.613  16.177  0.00  0.00     0.066 H 
ENDBRANCH  22  23
ENDBRANCH  16  22
ENDBRANCH   9  12
ENDBRANCH   8   9
BRANCH   8  27
ATOM     27  C12 5B5 d   1      18.636  24.520  18.483  0.00  0.00    -0.004 C 
ATOM     28  H5  5B5 d   1      18.577  25.602  18.674  0.00  0.00     0.058 H 
ATOM     29  H6  5B5 d   1      19.650  24.262  18.144  0.00  0.00     0.058 H 
BRANCH  27  30
ATOM     30  C13 5B5 d   1      18.349  23.773  19.791  0.00  0.00    -0.049 C 
ATOM     31  H7  5B5 d   1      17.354  24.078  20.147  0.00  0.00     0.040 H 
BRANCH  30  32
ATOM     32  C14 5B5 d   1      18.349  22.252  19.612  0.00  0.00    -0.072 C 
ATOM     33  H8  5B5 d   1      18.139  21.769  20.578  0.00  0.00     0.028 H 
ATOM     34  H9  5B5 d   1      19.334  21.926  19.246  0.00  0.00     0.028 H 
ATOM     35  H10 5B5 d   1      17.575  21.968  18.884  0.00  0.00     0.028 H 
ENDBRANCH  30  32
BRANCH  30  36
ATOM     36  C15 5B5 d   1      19.391  24.155  20.853  0.00  0.00    -0.072 C 
ATOM     37  H11 5B5 d   1      19.396  25.247  20.986  0.00  0.00     0.028 H 
ATOM     38  H12 5B5 d   1      20.387  23.821  20.526  0.00  0.00     0.028 H 
ATOM     39  H13 5B5 d   1      19.137  23.671  21.807  0.00  0.00     0.028 H 
ENDBRANCH  30  36
ENDBRANCH  27  30
ENDBRANCH   8  27
ENDBRANCH   5   8
ENDBRANCH   3   5
BRANCH   3  40
ATOM     40  O18 5B5 d   1      14.109  24.832  18.113  0.00  0.00    -0.392 OA
ATOM     41  H17 5B5 d   1      13.876  25.307  17.324  0.00  0.00     0.210 HD
ENDBRANCH   3  40
ENDBRANCH   1   3
BRANCH   1  42
ATOM     42  N20 5B5 d   1      14.131  21.933  17.578  0.00  0.00    -0.329 N 
ATOM     43  C21 5B5 d   1      14.332  20.619  17.693  0.00  0.00     0.361 C 
ATOM     44  O22 5B5 d   1      15.378  20.080  17.337  0.00  0.00    -0.238 OA
ATOM     45  H19 5B5 d   1      13.303  22.295  18.007  0.00  0.00     0.165 HD
BRANCH  43  46
ATOM     46  O23 5B5 d   1      13.295  19.909  18.225  0.00  0.00    -0.298 OA
BRANCH  46  47
ATOM     47  C24 5B5 d   1      13.539  18.504  18.327  0.00  0.00     0.061 C 
ATOM     48  C31 5B5 d   1      12.299  17.744  17.897  0.00  0.00     0.049 C 
ATOM     49  C27 5B5 d   1      11.122  17.972  18.805  0.00  0.00     0.139 C 
ATOM     50  C30 5B5 d   1      11.764  18.238  16.549  0.00  0.00     0.132 C 
ATOM     51  H27 5B5 d   1      12.545  16.673  17.849  0.00  0.00     0.054 H 
ATOM     52  O26 5B5 d   1      11.361  17.984  20.198  0.00  0.00    -0.361 OA
ATOM     53  O28 5B5 d   1      10.553  19.202  18.346  0.00  0.00    -0.359 OA
ATOM     54  H23 5B5 d   1      10.402  17.160  18.625  0.00  0.00     0.129 H 
ATOM     55  C25 5B5 d   1      12.555  18.651  20.599  0.00  0.00     0.025 C 
ATOM     56  C51 5B5 d   1      13.780  18.200  19.808  0.00  0.00    -0.020 C 
ATOM     57  H21 5B5 d   1      12.731  18.446  21.665  0.00  0.00     0.074 H 
ATOM     58  H22 5B5 d   1      12.420  19.733  20.451  0.00  0.00     0.074 H 
ATOM     59  H38 5B5 d   1      14.669  18.744  20.159  0.00  0.00     0.040 H 
ATOM     60  H39 5B5 d   1      13.933  17.119  19.945  0.00  0.00     0.040 H 
ATOM     61  C29 5B5 d   1      10.617  19.166  16.927  0.00  0.00     0.050 C 
ATOM     62  H24 5B5 d   1      10.804  20.176  16.533  0.00  0.00     0.077 H 
ATOM     63  H25 5B5 d   1       9.671  18.782  16.517  0.00  0.00     0.077 H 
ATOM     64  H26 5B5 d   1      12.537  18.735  15.944  0.00  0.00     0.088 H 
ATOM     65  H20 5B5 d   1      14.405  18.212  17.715  0.00  0.00     0.085 H 
BRANCH  50  66
ATOM     66  N52 5B5 d   1      11.158  17.092  15.842  0.00  0.00    -0.069 N 
ATOM     67  H40 5B5 d   1      10.350  16.778  16.356  0.00  0.00     0.277 HD
ATOM     68  H41 5B5 d   1      11.832  16.345  15.787  0.00  0.00     0.277 HD
BRANCH  66  69
ATOM     69  C53 5B5 d   1      10.747  17.469  14.483  0.00  0.00     0.079 C 
ATOM     70  H42 5B5 d   1      11.458  18.202  14.074  0.00  0.00     0.075 H 
ATOM     71  H43 5B5 d   1       9.741  17.912  14.513  0.00  0.00     0.075 H 
BRANCH  69  72
ATOM     72  C54 5B5 d   1      10.731  16.214  13.592  0.00  0.00    -0.053 C 
ATOM     73  H44 5B5 d   1      10.424  16.492  12.573  0.00  0.00     0.029 H 
ATOM     74  H45 5B5 d   1      10.020  15.482  14.003  0.00  0.00     0.029 H 
ATOM     75  H46 5B5 d   1      11.738  15.772  13.564  0.00  0.00     0.029 H 
ENDBRANCH  69  72
ENDBRANCH  66  69
ENDBRANCH  50  66
ENDBRANCH  46  47
ENDBRANCH  43  46
ENDBRANCH   1  42
BRANCH   1  76
ATOM     76  C32 5B5 d   1      14.216  23.395  15.658  0.00  0.00    -0.020 C 
ATOM     77  H28 5B5 d   1      14.842  24.104  15.096  0.00  0.00     0.043 H 
ATOM     78  H29 5B5 d   1      13.294  23.898  15.985  0.00  0.00     0.043 H 
BRANCH  76  79
ATOM     79  C38 5B5 d   1      13.848  22.212  14.744  0.00  0.00    -0.056 A 
ATOM     80  C33 5B5 d   1      12.509  21.890  14.545  0.00  0.00    -0.077 A 
ATOM     81  C34 5B5 d   1      12.153  20.807  13.740  0.00  0.00    -0.082 A 
ATOM     82  H30 5B5 d   1      11.736  22.485  15.019  0.00  0.00     0.084 H 
ATOM     83  C35 5B5 d   1      13.144  20.065  13.106  0.00  0.00    -0.083 A 
ATOM     84  H31 5B5 d   1      11.109  20.545  13.610  0.00  0.00     0.083 H 
ATOM     85  C36 5B5 d   1      14.486  20.386  13.299  0.00  0.00    -0.082 A 
ATOM     86  H32 5B5 d   1      12.872  19.237  12.462  0.00  0.00     0.083 H 
ATOM     87  C37 5B5 d   1      14.835  21.462  14.119  0.00  0.00    -0.077 A 
ATOM     88  H33 5B5 d   1      15.259  19.801  12.813  0.00  0.00     0.083 H 
ATOM     89  H34 5B5 d   1      15.879  21.712  14.268  0.00  0.00     0.084 H 
ENDBRANCH  76  79
ENDBRANCH   1  76
TORSDOF 20
