REMARK  8 active torsions:
REMARK  status: ('A' for Active; 'I' for Inactive)
REMARK    1  A    between atoms: N5_19  and  C3_2 
REMARK    2  A    between atoms: C6_20  and  C7_4 
REMARK    3  A    between atoms: C9_5  and  C10_6 
REMARK    4  A    between atoms: O_17  and  C9_5 
REMARK    5  A    between atoms: C12_8  and  C13_9 
REMARK    6  A    between atoms: C1_18  and  O_17 
REMARK    7  A    between atoms: N5_19  and  C6_20 
REMARK    8  A    between atoms: N22_26  and  C25_28 
ROOT
ATOM      1  C2  5AY d   1       4.790  12.952  43.872  0.00  0.00     0.012 A 
ATOM      2  C3  5AY d   1       4.724  12.638  45.219  0.00  0.00     0.131 A 
ATOM      3  N4  5AY d   1       3.906  13.580  45.956  0.00  0.00    -0.200 N 
ATOM      4  N19 5AY d   1       3.619  13.566  47.362  0.00  0.00    -0.177 NA
ATOM      5  C20 5AY d   1       2.832  14.648  47.644  0.00  0.00     0.026 A 
ATOM      6  C21 5AY d   1       2.627  15.358  46.456  0.00  0.00    -0.018 A 
ATOM      7  C   5AY d   1       3.305  14.684  45.414  0.00  0.00     0.157 A 
ATOM      8  N   5AY d   1       3.399  14.946  44.100  0.00  0.00    -0.205 NA
ATOM      9  C1  5AY d   1       4.121  14.063  43.390  0.00  0.00     0.170 A 
ATOM     10  H1  5AY d   1       5.367  12.326  43.193  0.00  0.00     0.096 H 
ATOM     11  H9  5AY d   1       2.434  14.911  48.623  0.00  0.00     0.117 H 
ATOM     12  H10 5AY d   1       2.045  16.273  46.352  0.00  0.00     0.091 H 
ENDROOT
BRANCH   9  13
ATOM     13  O   5AY d   1       4.255  14.250  42.020  0.00  0.00    -0.334 OA
BRANCH  13  14
ATOM     14  C9  5AY d   1       3.491  15.350  41.552  0.00  0.00     0.032 C 
ATOM     15  H2  5AY d   1       2.421  15.146  41.703  0.00  0.00     0.075 H 
ATOM     16  H3  5AY d   1       3.773  16.257  42.106  0.00  0.00     0.075 H 
BRANCH  14  17
ATOM     17  C10 5AY d   1       3.760  15.546  40.112  0.00  0.00    -0.023 A 
ATOM     18  C11 5AY d   1       2.948  14.696  39.172  0.00  0.00    -0.050 A 
ATOM     19  C12 5AY d   1       2.705  16.181  39.252  0.00  0.00    -0.006 A 
ATOM     20  H5  5AY d   1       2.201  13.994  39.571  0.00  0.00     0.034 H 
ATOM     21  H6  5AY d   1       3.418  14.262  38.277  0.00  0.00     0.034 H 
ATOM     22  H7  5AY d   1       1.772  16.524  39.724  0.00  0.00     0.050 H 
ATOM     23  H4  5AY d   1       4.826  15.749  39.934  0.00  0.00     0.044 H 
BRANCH  19  24
ATOM     24  C13 5AY d   1       3.051  17.163  38.180  0.00  0.00     0.038 A 
ATOM     25  C14 5AY d   1       2.746  16.913  36.854  0.00  0.00    -0.059 A 
ATOM     26  C15 5AY d   1       3.062  17.848  35.887  0.00  0.00    -0.080 A 
ATOM     27  H15 5AY d   1       2.260  15.985  36.574  0.00  0.00     0.086 H 
ATOM     28  C16 5AY d   1       3.677  19.034  36.224  0.00  0.00    -0.066 A 
ATOM     29  H8  5AY d   1       2.823  17.646  34.849  0.00  0.00     0.083 H 
ATOM     30  C17 5AY d   1       3.952  19.226  37.562  0.00  0.00     0.003 A 
ATOM     31  H16 5AY d   1       3.931  19.777  35.477  0.00  0.00     0.085 H 
ATOM     32  N18 5AY d   1       3.642  18.326  38.511  0.00  0.00    -0.265 NA
ATOM     33  H17 5AY d   1       4.441  20.146  37.862  0.00  0.00     0.114 H 
ENDBRANCH  19  24
ENDBRANCH  14  17
ENDBRANCH  13  14
ENDBRANCH   9  13
BRANCH   2  34
ATOM     34  N5  5AY d   1       5.296  11.584  45.962  0.00  0.00    -0.370 N 
ATOM     35  H11 5AY d   1       5.198  11.486  46.983  0.00  0.00     0.161 HD
BRANCH  34  36
ATOM     36  C6  5AY d   1       6.038  10.653  45.130  0.00  0.00     0.021 C 
ATOM     37  H12 5AY d   1       6.123   9.703  45.677  0.00  0.00     0.071 H 
ATOM     38  H13 5AY d   1       5.464  10.494  44.205  0.00  0.00     0.071 H 
BRANCH  36  39
ATOM     39  C7  5AY d   1       7.398  11.083  44.753  0.00  0.00    -0.004 A 
ATOM     40  C8  5AY d   1       8.043  12.254  45.099  0.00  0.00     0.007 A 
ATOM     41  N22 5AY d   1       9.268  12.187  44.507  0.00  0.00    -0.285 N 
ATOM     42  H14 5AY d   1       7.654  13.062  45.716  0.00  0.00     0.115 H 
ATOM     43  N23 5AY d   1       9.466  11.061  43.817  0.00  0.00    -0.185 NA
ATOM     44  C24 5AY d   1       8.327  10.372  43.956  0.00  0.00     0.031 A 
ATOM     45  H18 5AY d   1       8.140   9.394  43.515  0.00  0.00     0.118 H 
BRANCH  41  46
ATOM     46  C25 5AY d   1      10.309  13.198  44.568  0.00  0.00     0.002 C 
ATOM     47  H19 5AY d   1       9.962  14.045  45.178  0.00  0.00     0.059 H 
ATOM     48  H20 5AY d   1      10.540  13.549  43.551  0.00  0.00     0.059 H 
ATOM     49  H21 5AY d   1      11.213  12.766  45.021  0.00  0.00     0.059 H 
ENDBRANCH  41  46
ENDBRANCH  36  39
ENDBRANCH  34  36
ENDBRANCH   2  34
TORSDOF 8
