REMARK  12 active torsions:
REMARK  status: ('A' for Active; 'I' for Inactive)
REMARK    1  A    between atoms: C6_4  and  N6_24 
REMARK    2  A    between atoms: N9_5  and  CAL_27 
REMARK    3  A    between atoms: CBA_15  and  CBC_14 
REMARK    4  A    between atoms: CAZ_16  and  CBA_15 
REMARK    5  A    between atoms: NAY_17  and  CAZ_16 
REMARK       I    between atoms: CAX_18  and  NAY_17 
REMARK    6  A    between atoms: CAW_20  and  CAX_18 
REMARK    7  A    between atoms: SAA_21  and  CAW_20 
REMARK    8  A    between atoms: SAA_21  and  C8_22 
REMARK    9  A    between atoms: CAP_29  and  OAQ_30 
REMARK   10  A    between atoms: CAO_31  and  OAR_32 
REMARK   11  A    between atoms: CAN_33  and  CAS_34 
REMARK   12  A    between atoms: CAS_34  and  NAT_35 
ROOT
ATOM      1  NAT 5A8 d   1       6.954 -21.915 -42.722  0.00  0.00    -0.113 NA
ATOM      2  NAU 5A8 d   1       6.907 -22.560 -43.830  0.00  0.00    -0.168 NA
ATOM      3  NAV 5A8 d   1       6.860 -23.207 -44.936  0.00  0.00     0.068 N 
ENDROOT
BRANCH   1   4
ATOM      4  CAS 5A8 d   1       7.008 -20.453 -42.744  0.00  0.00     0.073 C 
ATOM      5  H23 5A8 d   1       6.681 -20.091 -43.730  0.00  0.00     0.075 H 
ATOM      6  H24 5A8 d   1       6.342 -20.052 -41.966  0.00  0.00     0.075 H 
BRANCH   4   7
ATOM      7  CAN 5A8 d   1       8.430 -19.984 -42.481  0.00  0.00     0.088 C 
ATOM      8  OAM 5A8 d   1       9.094 -19.899 -43.698  0.00  0.00    -0.354 OA
ATOM      9  CAL 5A8 d   1      10.230 -19.145 -43.445  0.00  0.00     0.141 C 
ATOM     10  CAP 5A8 d   1       9.763 -18.063 -42.490  0.00  0.00     0.105 C 
ATOM     11  H17 5A8 d   1      11.040 -19.733 -42.990  0.00  0.00     0.123 H 
ATOM     12  CAO 5A8 d   1       8.400 -18.532 -42.049  0.00  0.00     0.091 C 
ATOM     13  H18 5A8 d   1       9.744 -17.064 -42.949  0.00  0.00     0.093 H 
ATOM     14  H20 5A8 d   1       7.594 -17.975 -42.550  0.00  0.00     0.091 H 
ATOM     15  H22 5A8 d   1       8.942 -20.635 -41.757  0.00  0.00     0.090 H 
BRANCH   9  16
ATOM     16  N9  5A8 d   1      10.612 -18.683 -44.751  0.00  0.00    -0.278 N 
ATOM     17  C4  5A8 d   1      11.781 -18.789 -45.276  0.00  0.00     0.168 A 
ATOM     18  C5  5A8 d   1      11.732 -18.270 -46.520  0.00  0.00     0.151 A 
ATOM     19  N3  5A8 d   1      12.897 -19.285 -44.828  0.00  0.00    -0.221 NA
ATOM     20  C6  5A8 d   1      12.867 -18.253 -47.279  0.00  0.00     0.155 A 
ATOM     21  N7  5A8 d   1      10.518 -17.853 -46.704  0.00  0.00    -0.217 NA
ATOM     22  N1  5A8 d   1      13.946 -18.760 -46.774  0.00  0.00    -0.222 NA
ATOM     23  C2  5A8 d   1      13.950 -19.265 -45.576  0.00  0.00     0.091 A 
ATOM     24  H1  5A8 d   1      14.872 -19.685 -45.190  0.00  0.00     0.146 H 
ATOM     25  C8  5A8 d   1       9.853 -18.108 -45.623  0.00  0.00     0.173 A 
BRANCH  20  26
ATOM     26  N6  5A8 d   1      12.903 -17.768 -48.474  0.00  0.00    -0.382 N 
ATOM     27  H15 5A8 d   1      13.784 -17.778 -49.008  0.00  0.00     0.157 HD
ATOM     28  H16 5A8 d   1      12.051 -17.371 -48.895  0.00  0.00     0.157 HD
ENDBRANCH  20  26
BRANCH  25  29
ATOM     29  SAA 5A8 d   1       8.241 -17.780 -45.373  0.00  0.00    -0.082 SA
BRANCH  29  30
ATOM     30  CAW 5A8 d   1       7.890 -16.526 -46.649  0.00  0.00     0.058 C 
ATOM     31  H13 5A8 d   1       7.081 -15.876 -46.284  0.00  0.00     0.064 H 
ATOM     32  H14 5A8 d   1       8.799 -15.927 -46.806  0.00  0.00     0.064 H 
BRANCH  30  33
ATOM     33  CAX 5A8 d   1       7.466 -17.116 -47.987  0.00  0.00     0.227 C 
ATOM     34  NAY 5A8 d   1       8.436 -17.515 -48.735  0.00  0.00    -0.360 N 
ATOM     35  H12 5A8 d   1       9.372 -17.375 -48.411  0.00  0.00     0.162 HD
ATOM     36  OBB 5A8 d   1       6.312 -17.188 -48.323  0.00  0.00    -0.273 OA
BRANCH  34  37
ATOM     37  CAZ 5A8 d   1       8.244 -18.155 -50.019  0.00  0.00    -0.001 C 
ATOM     38  H10 5A8 d   1       7.184 -18.418 -50.149  0.00  0.00     0.064 H 
ATOM     39  H11 5A8 d   1       8.554 -17.473 -50.824  0.00  0.00     0.064 H 
BRANCH  37  40
ATOM     40  CBA 5A8 d   1       9.096 -19.418 -50.057  0.00  0.00    -0.024 C 
ATOM     41  H8  5A8 d   1       8.725 -20.076 -50.856  0.00  0.00     0.042 H 
ATOM     42  H9  5A8 d   1      10.139 -19.140 -50.267  0.00  0.00     0.042 H 
BRANCH  40  43
ATOM     43  CBC 5A8 d   1       9.040 -20.159 -48.745  0.00  0.00    -0.029 A 
ATOM     44  CBF 5A8 d   1      10.026 -20.807 -48.073  0.00  0.00    -0.002 A 
ATOM     45  CBK 5A8 d   1      11.343 -21.047 -48.325  0.00  0.00    -0.070 A 
ATOM     46  CBG 5A8 d   1       9.465 -21.286 -46.938  0.00  0.00     0.042 A 
ATOM     47  CBJ 5A8 d   1      12.085 -21.764 -47.422  0.00  0.00    -0.082 A 
ATOM     48  H2  5A8 d   1      11.802 -20.674 -49.233  0.00  0.00     0.084 H 
ATOM     49  CBI 5A8 d   1      11.508 -22.234 -46.274  0.00  0.00    -0.081 A 
ATOM     50  H3  5A8 d   1      13.133 -21.959 -47.618  0.00  0.00     0.083 H 
ATOM     51  CBH 5A8 d   1      10.188 -21.996 -46.036  0.00  0.00    -0.056 A 
ATOM     52  H4  5A8 d   1      12.098 -22.793 -45.557  0.00  0.00     0.083 H 
ATOM     53  H5  5A8 d   1       9.719 -22.371 -45.133  0.00  0.00     0.086 H 
ATOM     54  NBD 5A8 d   1       8.226 -20.926 -46.929  0.00  0.00    -0.365 N 
ATOM     55  CBE 5A8 d   1       7.971 -20.250 -48.015  0.00  0.00    -0.015 A 
ATOM     56  H6  5A8 d   1       7.547 -21.138 -46.184  0.00  0.00     0.165 HD
ATOM     57  H7  5A8 d   1       7.002 -19.824 -48.272  0.00  0.00     0.112 H 
ENDBRANCH  40  43
ENDBRANCH  37  40
ENDBRANCH  34  37
ENDBRANCH  30  33
ENDBRANCH  29  30
ENDBRANCH  25  29
ENDBRANCH   9  16
BRANCH  10  58
ATOM     58  OAQ 5A8 d   1      10.590 -18.117 -41.387  0.00  0.00    -0.388 OA
ATOM     59  H19 5A8 d   1      10.328 -17.451 -40.763  0.00  0.00     0.210 HD
ENDBRANCH  10  58
BRANCH  12  60
ATOM     60  OAR 5A8 d   1       8.263 -18.418 -40.650  0.00  0.00    -0.390 OA
ATOM     61  H21 5A8 d   1       8.373 -17.509 -40.395  0.00  0.00     0.210 HD
ENDBRANCH  12  60
ENDBRANCH   4   7
ENDBRANCH   1   4
TORSDOF 12
