REMARK  20 active torsions:
REMARK  status: ('A' for Active; 'I' for Inactive)
REMARK    1  A    between atoms: CBS_6  and  CBU_7 
REMARK    2  A    between atoms: CBU_7  and  CBQ_8 
REMARK    3  A    between atoms: CBU_7  and  CBK_11 
REMARK    4  A    between atoms: CBQ_8  and  CAC_9 
REMARK    5  A    between atoms: CBQ_8  and  OAF_10 
REMARK       I    between atoms: CBK_11  and  N_13 
REMARK    6  A    between atoms: CA_18  and  C_19 
REMARK    7  A    between atoms: C_19  and  OBI_21 
REMARK    8  A    between atoms: OBI_21  and  CBR_22 
REMARK    9  A    between atoms: CBR_22  and  CAZ_23 
REMARK   10  A    between atoms: CBR_22  and  CBN_35 
REMARK   11  A    between atoms: CAZ_23  and  CAV_24 
REMARK   12  A    between atoms: CAV_24  and  CBL_25 
REMARK   13  A    between atoms: CBO_29  and  OBE_30 
REMARK   14  A    between atoms: OBE_30  and  CAA_31 
REMARK   15  A    between atoms: CBP_32  and  OBF_33 
REMARK   16  A    between atoms: OBF_33  and  CAB_34 
REMARK   17  A    between atoms: CBM_40  and  OBH_41 
REMARK   18  A    between atoms: OBH_41  and  CAU_42 
REMARK   19  A    between atoms: CAU_42  and  CBD_43 
REMARK   20  A    between atoms: CBD_43  and  NBV_44 
ROOT
ATOM      1  CBR 5B8 d   1      -7.449   3.097 -28.268  0.00  0.00     0.073 C 
ATOM      2  H27 5B8 d   1      -7.277   4.117 -27.893  0.00  0.00     0.091 H 
ENDROOT
BRANCH   1   3
ATOM      3  OBI 5B8 d   1      -7.381   2.128 -27.198  0.00  0.00    -0.310 OA
BRANCH   3   4
ATOM      4  C   5B8 d   1      -7.825   2.522 -25.962  0.00  0.00     0.282 C 
ATOM      5  O   5B8 d   1      -8.245   3.658 -25.716  0.00  0.00    -0.263 OA
BRANCH   4   6
ATOM      6  CA  5B8 d   1      -7.773   1.519 -24.953  0.00  0.00     0.098 C 
ATOM      7  N   5B8 d   1      -7.728   0.151 -25.569  0.00  0.00    -0.338 N 
ATOM      8  CBK 5B8 d   1      -8.938  -0.456 -25.800  0.00  0.00     0.227 C 
ATOM      9  CBA 5B8 d   1      -6.378  -0.414 -25.962  0.00  0.00    -0.001 C 
ATOM     10  OAE 5B8 d   1     -10.011   0.081 -25.492  0.00  0.00    -0.273 OA
ATOM     11  CAR 5B8 d   1      -5.280  -0.156 -24.999  0.00  0.00    -0.050 C 
ATOM     12  H18 5B8 d   1      -6.093   0.027 -26.929  0.00  0.00     0.064 H 
ATOM     13  H19 5B8 d   1      -6.484  -1.503 -26.073  0.00  0.00     0.064 H 
ATOM     14  CAQ 5B8 d   1      -5.299   1.330 -24.710  0.00  0.00    -0.061 C 
ATOM     15  H20 5B8 d   1      -4.314  -0.445 -25.439  0.00  0.00     0.035 H 
ATOM     16  H21 5B8 d   1      -5.446  -0.725 -24.072  0.00  0.00     0.035 H 
ATOM     17  CB  5B8 d   1      -6.587   1.733 -24.018  0.00  0.00    -0.037 C 
ATOM     18  H22 5B8 d   1      -5.212   1.882 -25.658  0.00  0.00     0.033 H 
ATOM     19  H23 5B8 d   1      -4.448   1.581 -24.060  0.00  0.00     0.033 H 
ATOM     20  H24 5B8 d   1      -6.532   2.795 -23.737  0.00  0.00     0.036 H 
ATOM     21  H25 5B8 d   1      -6.721   1.121 -23.114  0.00  0.00     0.036 H 
ATOM     22  H26 5B8 d   1      -8.693   1.593 -24.354  0.00  0.00     0.088 H 
BRANCH   8  23
ATOM     23  CBU 5B8 d   1      -8.966  -1.867 -26.467  0.00  0.00     0.051 C 
ATOM     24  H12 5B8 d   1      -7.925  -2.209 -26.567  0.00  0.00     0.059 H 
BRANCH  23  25
ATOM     25  CBS 5B8 d   1      -9.729  -2.929 -25.608  0.00  0.00    -0.040 C 
ATOM     26  CAW 5B8 d   1     -11.274  -2.678 -25.488  0.00  0.00    -0.061 C 
ATOM     27  CAO 5B8 d   1     -11.784  -3.970 -24.844  0.00  0.00    -0.065 C 
ATOM     28  H1  5B8 d   1     -11.485  -1.808 -24.849  0.00  0.00     0.033 H 
ATOM     29  H2  5B8 d   1     -11.727  -2.524 -26.478  0.00  0.00     0.033 H 
ATOM     30  CAN 5B8 d   1     -11.323  -3.956 -23.400  0.00  0.00    -0.065 C 
ATOM     31  H3  5B8 d   1     -11.366  -4.843 -25.366  0.00  0.00     0.033 H 
ATOM     32  H4  5B8 d   1     -12.882  -4.007 -24.890  0.00  0.00     0.033 H 
ATOM     33  CAP 5B8 d   1      -9.809  -4.086 -23.348  0.00  0.00    -0.065 C 
ATOM     34  H5  5B8 d   1     -11.782  -4.798 -22.861  0.00  0.00     0.033 H 
ATOM     35  H6  5B8 d   1     -11.626  -3.010 -22.928  0.00  0.00     0.033 H 
ATOM     36  CAX 5B8 d   1      -9.126  -3.009 -24.198  0.00  0.00    -0.061 C 
ATOM     37  H7  5B8 d   1      -9.522  -5.077 -23.728  0.00  0.00     0.033 H 
ATOM     38  H8  5B8 d   1      -9.476  -3.983 -22.305  0.00  0.00     0.033 H 
ATOM     39  H9  5B8 d   1      -8.055  -3.247 -24.282  0.00  0.00     0.033 H 
ATOM     40  H10 5B8 d   1      -9.248  -2.034 -23.703  0.00  0.00     0.033 H 
ATOM     41  H11 5B8 d   1      -9.590  -3.904 -26.098  0.00  0.00     0.041 H 
ENDBRANCH  23  25
BRANCH  23  42
ATOM     42  CBQ 5B8 d   1      -9.577  -1.768 -27.887  0.00  0.00     0.044 C 
ATOM     43  H13 5B8 d   1     -10.549  -1.257 -27.824  0.00  0.00     0.083 H 
BRANCH  42  44
ATOM     44  CAC 5B8 d   1      -8.654  -0.996 -28.825  0.00  0.00    -0.052 C 
ATOM     45  H14 5B8 d   1      -9.110  -0.940 -29.824  0.00  0.00     0.030 H 
ATOM     46  H15 5B8 d   1      -7.685  -1.512 -28.893  0.00  0.00     0.030 H 
ATOM     47  H16 5B8 d   1      -8.502   0.021 -28.434  0.00  0.00     0.030 H 
ENDBRANCH  42  44
BRANCH  42  48
ATOM     48  OAF 5B8 d   1      -9.755  -3.076 -28.441  0.00  0.00    -0.395 OA
ATOM     49  H17 5B8 d   1     -10.327  -3.582 -27.877  0.00  0.00     0.210 HD
ENDBRANCH  42  48
ENDBRANCH  23  42
ENDBRANCH   8  23
ENDBRANCH   4   6
ENDBRANCH   3   4
ENDBRANCH   1   3
BRANCH   1  50
ATOM     50  CAZ 5B8 d   1      -8.852   3.026 -28.855  0.00  0.00    -0.033 C 
ATOM     51  H28 5B8 d   1      -9.581   3.011 -28.031  0.00  0.00     0.037 H 
ATOM     52  H29 5B8 d   1      -8.944   2.101 -29.443  0.00  0.00     0.037 H 
BRANCH  50  53
ATOM     53  CAV 5B8 d   1      -9.155   4.201 -29.749  0.00  0.00    -0.038 C 
ATOM     54  H30 5B8 d   1     -10.004   3.930 -30.393  0.00  0.00     0.040 H 
ATOM     55  H31 5B8 d   1      -8.269   4.394 -30.372  0.00  0.00     0.040 H 
BRANCH  53  56
ATOM     56  CBL 5B8 d   1      -9.486   5.407 -29.065  0.00  0.00    -0.055 A 
ATOM     57  CAM 5B8 d   1     -10.718   5.633 -28.418  0.00  0.00    -0.042 A 
ATOM     58  CBP 5B8 d   1     -10.981   6.868 -27.801  0.00  0.00     0.102 A 
ATOM     59  H32 5B8 d   1     -11.467   4.850 -28.396  0.00  0.00     0.088 H 
ATOM     60  CBO 5B8 d   1     -10.004   7.873 -27.831  0.00  0.00     0.101 A 
ATOM     61  CAK 5B8 d   1      -8.801   7.648 -28.491  0.00  0.00    -0.048 A 
ATOM     62  CAJ 5B8 d   1      -8.550   6.436 -29.106  0.00  0.00    -0.074 A 
ATOM     63  H34 5B8 d   1      -8.052   8.431 -28.523  0.00  0.00     0.087 H 
ATOM     64  H33 5B8 d   1      -7.612   6.285 -29.627  0.00  0.00     0.084 H 
BRANCH  58  65
ATOM     65  OBF 5B8 d   1     -12.131   7.169 -27.130  0.00  0.00    -0.353 OA
BRANCH  65  66
ATOM     66  CAB 5B8 d   1     -13.358   6.598 -27.615  0.00  0.00     0.010 C 
ATOM     67  H38 5B8 d   1     -14.193   6.928 -26.979  0.00  0.00     0.066 H 
ATOM     68  H39 5B8 d   1     -13.288   5.501 -27.588  0.00  0.00     0.066 H 
ATOM     69  H40 5B8 d   1     -13.533   6.929 -28.649  0.00  0.00     0.066 H 
ENDBRANCH  65  66
ENDBRANCH  58  65
BRANCH  60  70
ATOM     70  OBE 5B8 d   1     -10.209   9.105 -27.255  0.00  0.00    -0.353 OA
BRANCH  70  71
ATOM     71  CAA 5B8 d   1     -11.054   9.326 -26.113  0.00  0.00     0.010 C 
ATOM     72  H35 5B8 d   1     -11.046  10.395 -25.852  0.00  0.00     0.066 H 
ATOM     73  H36 5B8 d   1     -10.681   8.738 -25.262  0.00  0.00     0.066 H 
ATOM     74  H37 5B8 d   1     -12.082   9.015 -26.352  0.00  0.00     0.066 H 
ENDBRANCH  70  71
ENDBRANCH  60  70
ENDBRANCH  53  56
ENDBRANCH  50  53
ENDBRANCH   1  50
BRANCH   1  75
ATOM     75  CBN 5B8 d   1      -6.390   2.731 -29.120  0.00  0.00    -0.026 A 
ATOM     76  CAL 5B8 d   1      -5.334   3.612 -29.269  0.00  0.00    -0.042 A 
ATOM     77  CBM 5B8 d   1      -4.238   3.307 -30.054  0.00  0.00     0.069 A 
ATOM     78  H41 5B8 d   1      -5.367   4.567 -28.757  0.00  0.00     0.088 H 
ATOM     79  CAH 5B8 d   1      -4.165   2.082 -30.714  0.00  0.00    -0.051 A 
ATOM     80  CAG 5B8 d   1      -5.209   1.169 -30.553  0.00  0.00    -0.080 A 
ATOM     81  H44 5B8 d   1      -3.314   1.842 -31.341  0.00  0.00     0.087 H 
ATOM     82  CAI 5B8 d   1      -6.305   1.491 -29.749  0.00  0.00    -0.074 A 
ATOM     83  H43 5B8 d   1      -5.169   0.208 -31.053  0.00  0.00     0.083 H 
ATOM     84  H42 5B8 d   1      -7.100   0.766 -29.613  0.00  0.00     0.084 H 
BRANCH  77  85
ATOM     85  OBH 5B8 d   1      -3.299   4.283 -30.152  0.00  0.00    -0.349 OA
BRANCH  85  86
ATOM     86  CAU 5B8 d   1      -1.957   3.906 -30.312  0.00  0.00     0.049 C 
ATOM     87  H45 5B8 d   1      -1.739   3.681 -31.366  0.00  0.00     0.077 H 
ATOM     88  H46 5B8 d   1      -1.724   3.026 -29.694  0.00  0.00     0.077 H 
BRANCH  86  89
ATOM     89  CBD 5B8 d   1      -1.162   5.118 -29.845  0.00  0.00     0.103 C 
ATOM     90  H47 5B8 d   1      -0.253   4.764 -29.337  0.00  0.00     0.079 H 
ATOM     91  H48 5B8 d   1      -1.780   5.689 -29.136  0.00  0.00     0.079 H 
BRANCH  89  92
ATOM     92  NBV 5B8 d   1      -0.760   6.025 -30.959  0.00  0.00    -0.065 N 
ATOM     93  CBB 5B8 d   1      -1.878   6.479 -31.810  0.00  0.00     0.103 C 
ATOM     94  CAS 5B8 d   1      -1.376   7.318 -32.985  0.00  0.00     0.042 C 
ATOM     95  H50 5B8 d   1      -2.566   7.087 -31.204  0.00  0.00     0.079 H 
ATOM     96  H51 5B8 d   1      -2.412   5.600 -32.200  0.00  0.00     0.079 H 
ATOM     97  OBG 5B8 d   1      -0.324   6.593 -33.681  0.00  0.00    -0.388 OA
ATOM     98  H52 5B8 d   1      -0.978   8.273 -32.611  0.00  0.00     0.076 H 
ATOM     99  H53 5B8 d   1      -2.207   7.514 -33.678  0.00  0.00     0.076 H 
ATOM    100  CAT 5B8 d   1       0.808   6.466 -32.853  0.00  0.00     0.042 C 
ATOM    101  CBC 5B8 d   1       0.356   5.484 -31.763  0.00  0.00     0.103 C 
ATOM    102  H54 5B8 d   1       1.085   7.437 -32.416  0.00  0.00     0.076 H 
ATOM    103  H55 5B8 d   1       1.662   6.061 -33.416  0.00  0.00     0.076 H 
ATOM    104  H56 5B8 d   1       0.029   4.549 -32.241  0.00  0.00     0.079 H 
ATOM    105  H57 5B8 d   1       1.206   5.277 -31.096  0.00  0.00     0.079 H 
ATOM    106  H49 5B8 d   1      -0.403   6.856 -30.513  0.00  0.00     0.280 HD
ENDBRANCH  89  92
ENDBRANCH  86  89
ENDBRANCH  85  86
ENDBRANCH  77  85
ENDBRANCH   1  75
TORSDOF 20
