REMARK  12 active torsions:
REMARK  status: ('A' for Active; 'I' for Inactive)
REMARK    1  A    between atoms: C02_2  and  C22_22 
REMARK    2  A    between atoms: O13_13  and  C05_5 
REMARK    3  A    between atoms: O21_21  and  C07_7 
REMARK    4  A    between atoms: C10_10  and  C23_23 
REMARK    5  A    between atoms: C14_14  and  O13_13 
REMARK    6  A    between atoms: C15_15  and  C14_14 
REMARK    7  A    between atoms: C16_16  and  C15_15 
REMARK    8  A    between atoms: C17_17  and  C16_16 
REMARK    9  A    between atoms: C18_18  and  C17_17 
REMARK   10  A    between atoms: C19_19  and  C18_18 
REMARK   11  A    between atoms: C20_20  and  C19_19 
REMARK   12  A    between atoms: C20_20  and  O21_21 
ROOT
ATOM      1  C17 B7I d   1      58.570  -5.196  47.665  0.00  0.00    -0.065 C 
ATOM      2  H15 B7I d   1      57.990  -5.483  48.554  0.00  0.00     0.033 H 
ATOM      3  H16 B7I d   1      57.961  -4.539  47.026  0.00  0.00     0.033 H 
ENDROOT
BRANCH   1   4
ATOM      4  C16 B7I d   1      58.842  -6.448  46.887  0.00  0.00    -0.063 C 
ATOM      5  H13 B7I d   1      58.920  -6.172  45.825  0.00  0.00     0.033 H 
ATOM      6  H14 B7I d   1      59.804  -6.854  47.232  0.00  0.00     0.033 H 
BRANCH   4   7
ATOM      7  C15 B7I d   1      57.822  -7.536  47.001  0.00  0.00    -0.045 C 
ATOM      8  H11 B7I d   1      57.279  -7.380  47.945  0.00  0.00     0.036 H 
ATOM      9  H12 B7I d   1      57.127  -7.424  46.156  0.00  0.00     0.036 H 
BRANCH   7  10
ATOM     10  C14 B7I d   1      58.308  -8.948  46.995  0.00  0.00     0.026 C 
ATOM     11  H9  B7I d   1      59.221  -8.983  47.607  0.00  0.00     0.075 H 
ATOM     12  H10 B7I d   1      57.528  -9.566  47.464  0.00  0.00     0.075 H 
BRANCH  10  13
ATOM     13  O13 B7I d   1      58.607  -9.518  45.777  0.00  0.00    -0.351 OA
BRANCH  13  14
ATOM     14  C05 B7I d   1      58.768 -10.877  45.702  0.00  0.00     0.068 A 
ATOM     15  C04 B7I d   1      59.251 -11.459  44.538  0.00  0.00    -0.050 A 
ATOM     16  C03 B7I d   1      59.404 -12.836  44.466  0.00  0.00    -0.067 A 
ATOM     17  H3  B7I d   1      59.508 -10.839  43.687  0.00  0.00     0.087 H 
ATOM     18  C02 B7I d   1      59.076 -13.624  45.559  0.00  0.00     0.010 A 
ATOM     19  H2  B7I d   1      59.779 -13.295  43.558  0.00  0.00     0.085 H 
ATOM     20  C01 B7I d   1      58.591 -13.045  46.722  0.00  0.00    -0.067 A 
ATOM     21  C06 B7I d   1      58.439 -11.666  46.795  0.00  0.00    -0.050 A 
ATOM     22  H1  B7I d   1      58.331 -13.666  47.571  0.00  0.00     0.085 H 
ATOM     23  H4  B7I d   1      58.065 -11.208  47.703  0.00  0.00     0.087 H 
BRANCH  18  24
ATOM     24  C22 B7I d   1      59.248 -15.107  45.469  0.00  0.00     0.137 A 
ATOM     25  N24 B7I d   1      59.468 -15.789  44.335  0.00  0.00    -0.349 N 
ATOM     26  C25 B7I d   1      59.569 -17.095  44.652  0.00  0.00    -0.004 A 
ATOM     27  H23 B7I d   1      59.546 -15.386  43.390  0.00  0.00     0.167 HD
ATOM     28  C26 B7I d   1      59.398 -17.206  46.030  0.00  0.00     0.019 A 
ATOM     29  H24 B7I d   1      59.751 -17.914  43.958  0.00  0.00     0.113 H 
ATOM     30  N27 B7I d   1      59.205 -15.959  46.502  0.00  0.00    -0.241 NA
ATOM     31  H25 B7I d   1      59.417 -18.125  46.614  0.00  0.00     0.117 H 
ENDBRANCH  18  24
ENDBRANCH  13  14
ENDBRANCH  10  13
ENDBRANCH   7  10
ENDBRANCH   4   7
ENDBRANCH   1   4
BRANCH   1  32
ATOM     32  C18 B7I d   1      59.746  -4.393  48.139  0.00  0.00    -0.063 C 
ATOM     33  H17 B7I d   1      60.574  -5.095  48.318  0.00  0.00     0.033 H 
ATOM     34  H18 B7I d   1      59.459  -3.916  49.087  0.00  0.00     0.033 H 
BRANCH  32  35
ATOM     35  C19 B7I d   1      60.258  -3.315  47.230  0.00  0.00    -0.045 C 
ATOM     36  H19 B7I d   1      59.601  -2.441  47.352  0.00  0.00     0.036 H 
ATOM     37  H20 B7I d   1      60.183  -3.690  46.199  0.00  0.00     0.036 H 
BRANCH  35  38
ATOM     38  C20 B7I d   1      61.664  -2.850  47.436  0.00  0.00     0.026 C 
ATOM     39  H21 B7I d   1      61.664  -2.198  48.322  0.00  0.00     0.075 H 
ATOM     40  H22 B7I d   1      61.946  -2.264  46.549  0.00  0.00     0.075 H 
BRANCH  38  41
ATOM     41  O21 B7I d   1      62.651  -3.801  47.628  0.00  0.00    -0.351 OA
BRANCH  41  42
ATOM     42  C07 B7I d   1      63.868  -3.570  47.029  0.00  0.00     0.068 A 
ATOM     43  C08 B7I d   1      64.497  -4.559  46.288  0.00  0.00    -0.050 A 
ATOM     44  C09 B7I d   1      65.721  -4.292  45.691  0.00  0.00    -0.067 A 
ATOM     45  H5  B7I d   1      64.036  -5.534  46.176  0.00  0.00     0.087 H 
ATOM     46  C10 B7I d   1      66.300  -3.037  45.831  0.00  0.00     0.010 A 
ATOM     47  H6  B7I d   1      66.224  -5.061  45.117  0.00  0.00     0.085 H 
ATOM     48  C11 B7I d   1      65.662  -2.052  46.564  0.00  0.00    -0.067 A 
ATOM     49  C12 B7I d   1      64.446  -2.320  47.164  0.00  0.00    -0.050 A 
ATOM     50  H7  B7I d   1      66.115  -1.073  46.667  0.00  0.00     0.085 H 
ATOM     51  H8  B7I d   1      63.945  -1.551  47.740  0.00  0.00     0.087 H 
BRANCH  46  52
ATOM     52  C23 B7I d   1      67.605  -2.724  45.193  0.00  0.00     0.137 A 
ATOM     53  N28 B7I d   1      67.988  -1.500  44.803  0.00  0.00    -0.349 N 
ATOM     54  C29 B7I d   1      69.221  -1.594  44.273  0.00  0.00    -0.004 A 
ATOM     55  H26 B7I d   1      67.434  -0.636  44.894  0.00  0.00     0.167 HD
ATOM     56  C30 B7I d   1      69.601  -2.932  44.341  0.00  0.00     0.019 A 
ATOM     57  H27 B7I d   1      69.812  -0.775  43.866  0.00  0.00     0.113 H 
ATOM     58  N31 B7I d   1      68.581  -3.600  44.918  0.00  0.00    -0.241 NA
ATOM     59  H28 B7I d   1      70.542  -3.358  43.995  0.00  0.00     0.117 H 
ENDBRANCH  46  52
ENDBRANCH  41  42
ENDBRANCH  38  41
ENDBRANCH  35  38
ENDBRANCH  32  35
ENDBRANCH   1  32
TORSDOF 12
