REMARK  8 active torsions:
REMARK  status: ('A' for Active; 'I' for Inactive)
REMARK    1  A    between atoms: CAC_7  and  NAH_8 
REMARK    2  A    between atoms: NAK_13  and  CAN_14 
REMARK    3  A    between atoms: CAN_14  and  CAO_15 
REMARK    4  A    between atoms: CAO_15  and  CAP_16 
REMARK    5  A    between atoms: CAP_16  and  NAQ_17 
REMARK       I    between atoms: NAQ_17  and  CAR_18 
REMARK    6  A    between atoms: CAR_18  and  CAS_20 
REMARK    7  A    between atoms: NAW_25  and  CAZ_26 
REMARK    8  A    between atoms: CBH_29  and  CBI_30 
ROOT
ATOM      1  CAP 5D2 d   1     -13.216   6.528  -0.359  0.00  0.00    -0.003 C 
ATOM      2  H18 5D2 d   1     -12.370   6.335  -1.036  0.00  0.00     0.064 H 
ATOM      3  H19 5D2 d   1     -13.035   7.459   0.198  0.00  0.00     0.064 H 
ENDROOT
BRANCH   1   4
ATOM      4  CAO 5D2 d   1     -13.316   5.429   0.589  0.00  0.00    -0.028 C 
ATOM      5  H16 5D2 d   1     -14.374   5.186   0.767  0.00  0.00     0.037 H 
ATOM      6  H17 5D2 d   1     -12.798   4.544   0.190  0.00  0.00     0.037 H 
BRANCH   4   7
ATOM      7  CAN 5D2 d   1     -12.666   5.862   1.882  0.00  0.00     0.085 C 
ATOM      8  H14 5D2 d   1     -12.843   6.941   2.005  0.00  0.00     0.076 H 
ATOM      9  H15 5D2 d   1     -13.151   5.315   2.704  0.00  0.00     0.076 H 
BRANCH   7  10
ATOM     10  NAK 5D2 d   1     -11.222   5.628   1.974  0.00  0.00    -0.068 N 
ATOM     11  CAL 5D2 d   1     -10.377   5.899   0.788  0.00  0.00     0.098 C 
ATOM     12  CAM 5D2 d   1      -9.080   5.397   1.111  0.00  0.00     0.018 C 
ATOM     13  H7  5D2 d   1     -10.779   5.381  -0.095  0.00  0.00     0.078 H 
ATOM     14  H8  5D2 d   1     -10.331   6.980   0.590  0.00  0.00     0.078 H 
ATOM     15  NAH 5D2 d   1      -8.592   6.152   2.285  0.00  0.00    -0.378 N 
ATOM     16  H5  5D2 d   1      -9.141   4.325   1.352  0.00  0.00     0.066 H 
ATOM     17  H6  5D2 d   1      -8.398   5.543   0.260  0.00  0.00     0.066 H 
ATOM     18  CAI 5D2 d   1      -9.385   6.047   3.521  0.00  0.00     0.018 C 
ATOM     19  CAJ 5D2 d   1     -10.810   6.284   3.210  0.00  0.00     0.098 C 
ATOM     20  H9  5D2 d   1      -9.037   6.798   4.245  0.00  0.00     0.066 H 
ATOM     21  H10 5D2 d   1      -9.265   5.041   3.950  0.00  0.00     0.066 H 
ATOM     22  H11 5D2 d   1     -10.975   7.367   3.108  0.00  0.00     0.078 H 
ATOM     23  H12 5D2 d   1     -11.422   5.896   4.038  0.00  0.00     0.078 H 
ATOM     24  H13 5D2 d   1     -11.113   4.638   2.126  0.00  0.00     0.280 HD
BRANCH  15  25
ATOM     25  CAC 5D2 d   1      -7.499   6.924   2.170  0.00  0.00     0.031 A 
ATOM     26  CAB 5D2 d   1      -6.775   7.296   3.261  0.00  0.00    -0.036 A 
ATOM     27  CAA 5D2 d   1      -5.691   8.147   3.004  0.00  0.00     0.036 A 
ATOM     28  H1  5D2 d   1      -7.020   6.957   4.261  0.00  0.00     0.089 H 
ATOM     29 CL   5D2 d   1      -4.959   8.514   4.243  0.00  0.00    -0.084 Cl
ATOM     30  CAF 5D2 d   1      -5.192   8.532   1.774  0.00  0.00    -0.062 A 
ATOM     31  CAE 5D2 d   1      -5.907   8.145   0.672  0.00  0.00    -0.079 A 
ATOM     32  H2  5D2 d   1      -4.280   9.111   1.686  0.00  0.00     0.086 H 
ATOM     33  CAD 5D2 d   1      -7.024   7.356   0.901  0.00  0.00    -0.057 A 
ATOM     34  H3  5D2 d   1      -5.614   8.441  -0.329  0.00  0.00     0.083 H 
ATOM     35  H4  5D2 d   1      -7.588   7.039   0.031  0.00  0.00     0.086 H 
ENDBRANCH  15  25
ENDBRANCH   7  10
ENDBRANCH   4   7
ENDBRANCH   1   4
BRANCH   1  36
ATOM     36  NAQ 5D2 d   1     -14.406   6.685  -1.143  0.00  0.00    -0.361 N 
ATOM     37  CAR 5D2 d   1     -14.670   7.871  -1.674  0.00  0.00     0.221 C 
ATOM     38  OAT 5D2 d   1     -14.033   8.926  -1.450  0.00  0.00    -0.273 OA
ATOM     39  H20 5D2 d   1     -15.026   5.914  -1.287  0.00  0.00     0.162 HD
BRANCH  37  40
ATOM     40  CAS 5D2 d   1     -15.802   7.767  -2.667  0.00  0.00     0.026 C 
ATOM     41  CAY 5D2 d   1     -15.122   7.251  -3.989  0.00  0.00    -0.039 C 
ATOM     42  CAX 5D2 d   1     -15.857   7.560  -5.312  0.00  0.00    -0.003 C 
ATOM     43  H22 5D2 d   1     -15.024   6.158  -3.909  0.00  0.00     0.036 H 
ATOM     44  H23 5D2 d   1     -14.122   7.705  -4.049  0.00  0.00     0.036 H 
ATOM     45  NAW 5D2 d   1     -16.510   8.885  -5.182  0.00  0.00    -0.364 N 
ATOM     46  H24 5D2 d   1     -16.617   6.788  -5.505  0.00  0.00     0.064 H 
ATOM     47  H25 5D2 d   1     -15.136   7.580  -6.142  0.00  0.00     0.064 H 
ATOM     48  CAV 5D2 d   1     -17.436   8.977  -3.977  0.00  0.00    -0.003 C 
ATOM     49  CAU 5D2 d   1     -16.535   9.121  -2.757  0.00  0.00    -0.039 C 
ATOM     50  H28 5D2 d   1     -18.096   9.852  -4.069  0.00  0.00     0.064 H 
ATOM     51  H29 5D2 d   1     -18.046   8.065  -3.895  0.00  0.00     0.064 H 
ATOM     52  H26 5D2 d   1     -15.819   9.944  -2.896  0.00  0.00     0.036 H 
ATOM     53  H27 5D2 d   1     -17.131   9.303  -1.851  0.00  0.00     0.036 H 
ATOM     54  H21 5D2 d   1     -16.531   7.015  -2.330  0.00  0.00     0.054 H 
BRANCH  45  55
ATOM     55  CAZ 5D2 d   1     -16.082   9.946  -5.856  0.00  0.00     0.146 A 
ATOM     56  NBE 5D2 d   1     -15.330   9.779  -6.965  0.00  0.00    -0.146 NA
ATOM     57  NBD 5D2 d   1     -14.810  10.892  -7.598  0.00  0.00    -0.196 N 
ATOM     58  CBH 5D2 d   1     -14.033  10.988  -8.657  0.00  0.00     0.148 A 
ATOM     59  CBC 5D2 d   1     -15.086  12.152  -7.207  0.00  0.00     0.174 A 
ATOM     60  NBG 5D2 d   1     -13.793  12.272  -8.987  0.00  0.00    -0.133 NA
ATOM     61  NBF 5D2 d   1     -14.475  13.014  -8.055  0.00  0.00    -0.128 NA
ATOM     62  CBB 5D2 d   1     -15.891  12.321  -6.127  0.00  0.00    -0.031 A 
ATOM     63  CBA 5D2 d   1     -16.389  11.246  -5.369  0.00  0.00    -0.033 A 
ATOM     64  H33 5D2 d   1     -16.163  13.334  -5.835  0.00  0.00     0.089 H 
ATOM     65  H34 5D2 d   1     -16.974  11.400  -4.464  0.00  0.00     0.089 H 
BRANCH  58  66
ATOM     66  CBI 5D2 d   1     -13.585   9.767  -9.435  0.00  0.00    -0.018 C 
ATOM     67  H30 5D2 d   1     -12.947  10.081 -10.274  0.00  0.00     0.038 H 
ATOM     68  H31 5D2 d   1     -14.466   9.236  -9.823  0.00  0.00     0.038 H 
ATOM     69  H32 5D2 d   1     -13.017   9.098  -8.772  0.00  0.00     0.038 H 
ENDBRANCH  58  66
ENDBRANCH  45  55
ENDBRANCH  37  40
ENDBRANCH   1  36
TORSDOF 8
