REMARK  1 active torsions:
REMARK  status: ('A' for Active; 'I' for Inactive)
REMARK    1  A    between atoms: C07_7  and  C11_11 
ROOT
ATOM      1  O01 KKN d   1      16.208 -14.228   1.992  0.00  0.00    -0.357 OA
ATOM      2  C02 KKN d   1      15.826 -15.586   2.118  0.00  0.00     0.046 A 
ATOM      3  C03 KKN d   1      15.486 -16.034   3.377  0.00  0.00     0.107 A 
ATOM      4  C04 KKN d   1      15.420 -15.259   4.473  0.00  0.00    -0.011 A 
ATOM      5  C05 KKN d   1      15.780 -13.957   4.354  0.00  0.00    -0.070 A 
ATOM      6  C06 KKN d   1      16.154 -13.450   3.103  0.00  0.00     0.041 A 
ATOM      7  C07 KKN d   1      15.052 -16.080   5.492  0.00  0.00     0.055 A 
ATOM      8  C08 KKN d   1      14.871 -17.297   4.954  0.00  0.00     0.272 A 
ATOM      9  O09 KKN d   1      14.526 -18.337   5.519  0.00  0.00    -0.264 OA
ATOM     10  O10 KKN d   1      15.126 -17.254   3.633  0.00  0.00    -0.276 OA
ATOM     11  H1  KKN d   1      15.802 -16.250   1.255  0.00  0.00     0.127 H 
ATOM     12  H2  KKN d   1      15.778 -13.308   5.228  0.00  0.00     0.081 H 
ATOM     13  H3  KKN d   1      15.445 -12.640   2.876  0.00  0.00     0.081 H 
ATOM     14  H4  KKN d   1      17.162 -13.029   3.232  0.00  0.00     0.081 H 
ATOM     15  H5  KKN d   1      16.103 -16.289   5.740  0.00  0.00     0.062 H 
ENDROOT
BRANCH   7  16
ATOM     16  C11 KKN d   1      14.820 -15.757   6.973  0.00  0.00    -0.060 C 
ATOM     17  H6  KKN d   1      15.038 -14.694   7.155  0.00  0.00     0.029 H 
ATOM     18  H7  KKN d   1      15.483 -16.379   7.592  0.00  0.00     0.029 H 
ATOM     19  H8  KKN d   1      13.772 -15.966   7.234  0.00  0.00     0.029 H 
ENDBRANCH   7  16
TORSDOF 1
