REMARK  4 active torsions:
REMARK  status: ('A' for Active; 'I' for Inactive)
REMARK    1  A    between atoms: C1_1  and  C7_9 
REMARK    2  A    between atoms: C6_8  and  N_10 
REMARK    3  A    between atoms: N_10  and  C1'_11 
REMARK    4  A    between atoms: C3'_13  and  C7'_17 
ROOT
ATOM      1  N   FLF d   1      45.457  43.982 -14.355  0.00  0.00    -0.355 N 
ATOM      2  H5  FLF d   1      46.212  43.877 -13.662  0.00  0.00     0.166 HD
ENDROOT
BRANCH   1   3
ATOM      3  C6  FLF d   1      44.894  42.850 -14.948  0.00  0.00     0.049 A 
ATOM      4  C1  FLF d   1      45.670  41.752 -14.799  0.00  0.00     0.067 A 
ATOM      5  C2  FLF d   1      45.250  40.546 -15.305  0.00  0.00    -0.064 A 
ATOM      6  C3  FLF d   1      44.034  40.473 -15.971  0.00  0.00    -0.082 A 
ATOM      7  H1  FLF d   1      45.862  39.660 -15.185  0.00  0.00     0.085 H 
ATOM      8  C4  FLF d   1      43.244  41.599 -16.129  0.00  0.00    -0.081 A 
ATOM      9  H2  FLF d   1      43.699  39.523 -16.372  0.00  0.00     0.083 H 
ATOM     10  C5  FLF d   1      43.668  42.817 -15.623  0.00  0.00    -0.056 A 
ATOM     11  H3  FLF d   1      42.295  41.528 -16.648  0.00  0.00     0.083 H 
ATOM     12  H4  FLF d   1      43.071  43.714 -15.745  0.00  0.00     0.086 H 
BRANCH   4  13
ATOM     13  C7  FLF d   1      46.993  41.563 -14.108  0.00  0.00     0.211 C 
ATOM     14  O1  FLF d   1      47.498  40.429 -13.904  0.00  0.00    -0.644 OA
ATOM     15  O2  FLF d   1      47.576  42.592 -13.699  0.00  0.00    -0.644 OA
ENDBRANCH   4  13
ENDBRANCH   1   3
BRANCH   1  16
ATOM     16  C1' FLF d   1      45.005  45.240 -14.694  0.00  0.00     0.033 A 
ATOM     17  C2' FLF d   1      45.931  46.042 -15.285  0.00  0.00    -0.043 A 
ATOM     18  C3' FLF d   1      45.556  47.307 -15.651  0.00  0.00     0.050 A 
ATOM     19  H6  FLF d   1      46.940  45.689 -15.462  0.00  0.00     0.088 H 
ATOM     20  C4' FLF d   1      44.266  47.779 -15.417  0.00  0.00    -0.068 A 
ATOM     21  C5' FLF d   1      43.330  46.949 -14.815  0.00  0.00    -0.080 A 
ATOM     22  H7  FLF d   1      43.995  48.789 -15.703  0.00  0.00     0.084 H 
ATOM     23  C6' FLF d   1      43.709  45.662 -14.446  0.00  0.00    -0.057 A 
ATOM     24  H8  FLF d   1      42.320  47.298 -14.635  0.00  0.00     0.083 H 
ATOM     25  H9  FLF d   1      42.998  44.997 -13.970  0.00  0.00     0.086 H 
BRANCH  18  26
ATOM     26  C7' FLF d   1      46.577  48.193 -16.274  0.00  0.00     0.417 C 
ATOM     27  F1  FLF d   1      47.775  47.950 -15.705  0.00  0.00    -0.166 F 
ATOM     28  F2  FLF d   1      46.768  47.974 -17.584  0.00  0.00    -0.166 F 
ATOM     29  F3  FLF d   1      46.029  49.395 -16.003  0.00  0.00    -0.166 F 
ENDBRANCH  18  26
ENDBRANCH   1  16
TORSDOF 4
