REMARK  25 active torsions:
REMARK  status: ('A' for Active; 'I' for Inactive)
REMARK    1  A    between atoms: C01_1  and  N02_2 
REMARK    2  A    between atoms: N02_2  and  S03_3 
REMARK    3  A    between atoms: N02_2  and  C07_7 
REMARK    4  A    between atoms: S03_3  and  C05_5 
REMARK    5  A    between atoms: C09_9  and  C10_10 
REMARK       I    between atoms: C10_10  and  N11_11 
REMARK    6  A    between atoms: N11_11  and  C12_12 
REMARK    7  A    between atoms: C12_12  and  C13_13 
REMARK    8  A    between atoms: C12_12  and  C20_20 
REMARK    9  A    between atoms: C13_13  and  C14_14 
REMARK   10  A    between atoms: C20_20  and  O21_21 
REMARK   11  A    between atoms: C20_20  and  C22_22 
REMARK   12  A    between atoms: C22_22  and  N23_23 
REMARK   13  A    between atoms: N23_23  and  C24_24 
REMARK   14  A    between atoms: C24_24  and  C25_25 
REMARK   15  A    between atoms: C24_24  and  C28_28 
REMARK   16  A    between atoms: C25_25  and  O26_26 
REMARK   17  A    between atoms: C25_25  and  C27_27 
REMARK       I    between atoms: C28_28  and  N29_29 
REMARK   18  A    between atoms: N29_29  and  C30_30 
REMARK   19  A    between atoms: C30_30  and  C31_31 
REMARK   20  A    between atoms: C31_31  and  C32_32 
REMARK   21  A    between atoms: C31_31  and  C33_33 
REMARK   22  A    between atoms: C37_37  and  C38_38 
REMARK       I    between atoms: C38_38  and  N39_39 
REMARK   23  A    between atoms: N39_39  and  C40_40 
REMARK   24  A    between atoms: C40_40  and  C41_41 
REMARK   25  A    between atoms: C40_40  and  C42_42 
ROOT
ATOM      1  C12 5E7 d   1      -1.453 -18.743  35.050  0.00  0.00     0.042 C 
ATOM      2  H9  5E7 d   1      -1.084 -18.433  36.039  0.00  0.00     0.077 H 
ENDROOT
BRANCH   1   3
ATOM      3  N11 5E7 d   1      -0.306 -18.798  34.134  0.00  0.00    -0.349 N 
ATOM      4  C10 5E7 d   1       1.058 -18.907  34.371  0.00  0.00     0.252 C 
ATOM      5  O35 5E7 d   1       1.427 -18.997  35.561  0.00  0.00    -0.268 OA
ATOM      6  H8  5E7 d   1      -0.551 -18.748  33.166  0.00  0.00     0.163 HD
BRANCH   4   7
ATOM      7  C09 5E7 d   1       2.077 -18.891  33.261  0.00  0.00     0.035 A 
ATOM      8  C08 5E7 d   1       3.294 -19.583  33.301  0.00  0.00    -0.041 A 
ATOM      9  C07 5E7 d   1       4.235 -19.517  32.238  0.00  0.00     0.046 A 
ATOM     10  H7  5E7 d   1       3.526 -20.188  34.170  0.00  0.00     0.088 H 
ATOM     11  C49 5E7 d   1       3.891 -18.722  31.113  0.00  0.00    -0.041 A 
ATOM     12  C37 5E7 d   1       2.698 -17.992  31.019  0.00  0.00     0.035 A 
ATOM     13  H50 5E7 d   1       4.587 -18.677  30.283  0.00  0.00     0.088 H 
ATOM     14  C36 5E7 d   1       1.821 -18.120  32.113  0.00  0.00    -0.052 A 
ATOM     15  H39 5E7 d   1       0.879 -17.585  32.067  0.00  0.00     0.086 H 
BRANCH   9  16
ATOM     16  N02 5E7 d   1       5.497 -20.249  32.277  0.00  0.00    -0.281 N 
BRANCH  16  17
ATOM     17  C01 5E7 d   1       6.142 -20.563  33.573  0.00  0.00    -0.004 C 
ATOM     18  H1  5E7 d   1       5.529 -20.162  34.394  0.00  0.00     0.058 H 
ATOM     19  H2  5E7 d   1       7.142 -20.106  33.605  0.00  0.00     0.058 H 
ATOM     20  H3  5E7 d   1       6.233 -21.654  33.682  0.00  0.00     0.058 H 
ENDBRANCH  16  17
BRANCH  16  21
ATOM     21  S03 5E7 d   1       6.278 -20.779  30.857  0.00  0.00     0.228 S 
ATOM     22  O04 5E7 d   1       7.032 -21.916  31.221  0.00  0.00    -0.206 OA
ATOM     23  O06 5E7 d   1       5.338 -20.981  29.821  0.00  0.00    -0.206 OA
BRANCH  21  24
ATOM     24  C05 5E7 d   1       7.353 -19.503  30.317  0.00  0.00     0.033 C 
ATOM     25  H4  5E7 d   1       7.870 -19.822  29.400  0.00  0.00     0.051 H 
ATOM     26  H5  5E7 d   1       8.095 -19.292  31.101  0.00  0.00     0.051 H 
ATOM     27  H6  5E7 d   1       6.769 -18.594  30.111  0.00  0.00     0.051 H 
ENDBRANCH  21  24
ENDBRANCH  16  21
ENDBRANCH   9  16
BRANCH  12  28
ATOM     28  C38 5E7 d   1       2.324 -17.147  29.801  0.00  0.00     0.252 C 
ATOM     29  N39 5E7 d   1       1.010 -17.008  29.360  0.00  0.00    -0.349 N 
ATOM     30  H40 5E7 d   1       0.332 -17.482  29.921  0.00  0.00     0.163 HD
ATOM     31  O48 5E7 d   1       3.202 -16.540  29.156  0.00  0.00    -0.268 OA
BRANCH  29  32
ATOM     32  C40 5E7 d   1       0.450 -16.283  28.210  0.00  0.00     0.034 C 
ATOM     33  H41 5E7 d   1       1.222 -15.637  27.768  0.00  0.00     0.079 H 
BRANCH  32  34
ATOM     34  C41 5E7 d   1      -0.731 -15.426  28.675  0.00  0.00    -0.053 C 
ATOM     35  H42 5E7 d   1      -1.151 -14.883  27.815  0.00  0.00     0.030 H 
ATOM     36  H43 5E7 d   1      -0.386 -14.705  29.431  0.00  0.00     0.030 H 
ATOM     37  H44 5E7 d   1      -1.505 -16.074  29.113  0.00  0.00     0.030 H 
ENDBRANCH  32  34
BRANCH  32  38
ATOM     38  C42 5E7 d   1      -0.032 -17.299  27.165  0.00  0.00    -0.036 A 
ATOM     39  C43 5E7 d   1       0.481 -17.304  25.862  0.00  0.00    -0.075 A 
ATOM     40  C44 5E7 d   1       0.052 -18.238  24.912  0.00  0.00    -0.082 A 
ATOM     41  H45 5E7 d   1       1.227 -16.568  25.583  0.00  0.00     0.084 H 
ATOM     42  C45 5E7 d   1      -0.889 -19.203  25.245  0.00  0.00    -0.083 A 
ATOM     43  H46 5E7 d   1       0.458 -18.208  23.907  0.00  0.00     0.083 H 
ATOM     44  C46 5E7 d   1      -1.400 -19.222  26.534  0.00  0.00    -0.082 A 
ATOM     45  H47 5E7 d   1      -1.218 -19.929  24.510  0.00  0.00     0.083 H 
ATOM     46  C47 5E7 d   1      -0.964 -18.285  27.468  0.00  0.00    -0.075 A 
ATOM     47  H48 5E7 d   1      -2.138 -19.965  26.814  0.00  0.00     0.083 H 
ATOM     48  H49 5E7 d   1      -1.368 -18.326  28.473  0.00  0.00     0.084 H 
ENDBRANCH  32  38
ENDBRANCH  29  32
ENDBRANCH  12  28
ENDBRANCH   4   7
ENDBRANCH   1   3
BRANCH   1  49
ATOM     49  C13 5E7 d   1      -2.513 -17.682  34.606  0.00  0.00    -0.020 C 
ATOM     50  H10 5E7 d   1      -3.044 -17.327  35.501  0.00  0.00     0.043 H 
ATOM     51  H11 5E7 d   1      -3.227 -18.169  33.925  0.00  0.00     0.043 H 
BRANCH  49  52
ATOM     52  C14 5E7 d   1      -1.907 -16.459  33.883  0.00  0.00    -0.056 A 
ATOM     53  C15 5E7 d   1      -2.355 -15.948  32.655  0.00  0.00    -0.077 A 
ATOM     54  C16 5E7 d   1      -1.754 -14.842  32.043  0.00  0.00    -0.082 A 
ATOM     55  H12 5E7 d   1      -3.195 -16.426  32.164  0.00  0.00     0.084 H 
ATOM     56  C17 5E7 d   1      -0.676 -14.212  32.629  0.00  0.00    -0.083 A 
ATOM     57  H13 5E7 d   1      -2.140 -14.477  31.098  0.00  0.00     0.083 H 
ATOM     58  C18 5E7 d   1      -0.191 -14.689  33.837  0.00  0.00    -0.082 A 
ATOM     59  H14 5E7 d   1      -0.214 -13.355  32.151  0.00  0.00     0.083 H 
ATOM     60  C19 5E7 d   1      -0.809 -15.788  34.428  0.00  0.00    -0.077 A 
ATOM     61  H15 5E7 d   1       0.658 -14.213  34.315  0.00  0.00     0.083 H 
ATOM     62  H16 5E7 d   1      -0.413 -16.146  35.371  0.00  0.00     0.084 H 
ENDBRANCH  49  52
ENDBRANCH   1  49
BRANCH   1  63
ATOM     63  C20 5E7 d   1      -2.037 -20.207  35.192  0.00  0.00     0.078 C 
ATOM     64  H17 5E7 d   1      -2.335 -20.604  34.210  0.00  0.00     0.088 H 
BRANCH  63  65
ATOM     65  O21 5E7 d   1      -3.132 -20.149  36.052  0.00  0.00    -0.392 OA
ATOM     66  H18 5E7 d   1      -3.788 -19.566  35.688  0.00  0.00     0.210 HD
ENDBRANCH  63  65
BRANCH  63  67
ATOM     67  C22 5E7 d   1      -0.935 -21.117  35.843  0.00  0.00     0.108 C 
ATOM     68  H19 5E7 d   1      -0.601 -20.627  36.769  0.00  0.00     0.079 H 
ATOM     69  H20 5E7 d   1      -0.093 -21.180  35.137  0.00  0.00     0.079 H 
BRANCH  67  70
ATOM     70  N23 5E7 d   1      -1.342 -22.509  36.188  0.00  0.00    -0.057 N 
ATOM     71  H21 5E7 d   1      -0.974 -23.128  35.482  0.00  0.00     0.278 HD
ATOM     72  H22 5E7 d   1      -2.349 -22.552  36.181  0.00  0.00     0.278 HD
BRANCH  70  73
ATOM     73  C24 5E7 d   1      -0.866 -22.987  37.517  0.00  0.00     0.201 C 
ATOM     74  H23 5E7 d   1      -1.471 -23.873  37.760  0.00  0.00     0.103 H 
BRANCH  73  75
ATOM     75  C25 5E7 d   1       0.640 -23.417  37.436  0.00  0.00     0.068 C 
ATOM     76  H24 5E7 d   1       1.270 -22.551  37.688  0.00  0.00     0.086 H 
BRANCH  75  77
ATOM     77  O26 5E7 d   1       0.829 -24.430  38.389  0.00  0.00    -0.393 OA
ATOM     78  H25 5E7 d   1       1.734 -24.717  38.369  0.00  0.00     0.210 HD
ENDBRANCH  75  77
BRANCH  75  79
ATOM     79  C27 5E7 d   1       1.055 -23.925  36.057  0.00  0.00    -0.050 C 
ATOM     80  H26 5E7 d   1       2.118 -24.207  36.075  0.00  0.00     0.031 H 
ATOM     81  H27 5E7 d   1       0.899 -23.131  35.312  0.00  0.00     0.031 H 
ATOM     82  H28 5E7 d   1       0.447 -24.803  35.791  0.00  0.00     0.031 H 
ENDBRANCH  75  79
ENDBRANCH  73  75
BRANCH  73  83
ATOM     83  C28 5E7 d   1      -0.979 -22.006  38.735  0.00  0.00     0.251 C 
ATOM     84  N29 5E7 d   1      -2.146 -21.769  39.457  0.00  0.00    -0.359 N 
ATOM     85  H29 5E7 d   1      -2.983 -22.247  39.189  0.00  0.00     0.162 HD
ATOM     86  O34 5E7 d   1       0.050 -21.412  39.081  0.00  0.00    -0.271 OA
BRANCH  84  87
ATOM     87  C30 5E7 d   1      -2.195 -20.835  40.608  0.00  0.00    -0.002 C 
ATOM     88  H30 5E7 d   1      -1.927 -19.833  40.241  0.00  0.00     0.064 H 
ATOM     89  H31 5E7 d   1      -1.449 -21.168  41.344  0.00  0.00     0.064 H 
BRANCH  87  90
ATOM     90  C31 5E7 d   1      -3.561 -20.725  41.333  0.00  0.00    -0.046 C 
ATOM     91  H32 5E7 d   1      -3.367 -20.628  42.411  0.00  0.00     0.041 H 
BRANCH  90  92
ATOM     92  C32 5E7 d   1      -4.331 -19.492  40.864  0.00  0.00    -0.072 C 
ATOM     93  H33 5E7 d   1      -5.294 -19.438  41.393  0.00  0.00     0.028 H 
ATOM     94  H34 5E7 d   1      -4.511 -19.562  39.781  0.00  0.00     0.028 H 
ATOM     95  H35 5E7 d   1      -3.743 -18.588  41.080  0.00  0.00     0.028 H 
ENDBRANCH  90  92
BRANCH  90  96
ATOM     96  C33 5E7 d   1      -4.422 -21.963  41.109  0.00  0.00    -0.072 C 
ATOM     97  H36 5E7 d   1      -3.874 -22.856  41.444  0.00  0.00     0.028 H 
ATOM     98  H37 5E7 d   1      -4.657 -22.058  40.038  0.00  0.00     0.028 H 
ATOM     99  H38 5E7 d   1      -5.356 -21.869  41.682  0.00  0.00     0.028 H 
ENDBRANCH  90  96
ENDBRANCH  87  90
ENDBRANCH  84  87
ENDBRANCH  73  83
ENDBRANCH  70  73
ENDBRANCH  67  70
ENDBRANCH  63  67
ENDBRANCH   1  63
TORSDOF 25
