REMARK  3 active torsions:
REMARK  status: ('A' for Active; 'I' for Inactive)
REMARK    1  A    between atoms: CAP_2  and  CAI_4 
REMARK    2  A    between atoms: CAJ_9  and  NAK_10 
REMARK    3  A    between atoms: NAK_10  and  CAL_11 
ROOT
ATOM      1  CAI 5E4 d   1      45.864  42.110 -14.550  0.00  0.00     0.067 A 
ATOM      2  CAH 5E4 d   1      45.203  41.046 -14.976  0.00  0.00    -0.064 A 
ATOM      3  CAA 5E4 d   1      43.901  41.220 -15.761  0.00  0.00    -0.082 A 
ATOM      4  CAB 5E4 d   1      43.459  42.434 -16.026  0.00  0.00    -0.081 A 
ATOM      5  CAC 5E4 d   1      44.237  43.663 -15.540  0.00  0.00    -0.056 A 
ATOM      6  CAJ 5E4 d   1      45.354  43.512 -14.858  0.00  0.00     0.049 A 
ATOM      7  H1  5E4 d   1      45.583  40.052 -14.769  0.00  0.00     0.085 H 
ATOM      8  H2  5E4 d   1      43.346  40.352 -16.097  0.00  0.00     0.083 H 
ATOM      9  H3  5E4 d   1      42.542  42.564 -16.590  0.00  0.00     0.083 H 
ATOM     10  H4  5E4 d   1      43.867  44.658 -15.758  0.00  0.00     0.086 H 
ENDROOT
BRANCH   6  11
ATOM     11  NAK 5E4 d   1      46.148  44.623 -14.371  0.00  0.00    -0.355 N 
ATOM     12  H5  5E4 d   1      46.773  44.447 -13.571  0.00  0.00     0.166 HD
BRANCH  11  13
ATOM     13  CAL 5E4 d   1      46.129  45.970 -14.928  0.00  0.00     0.033 A 
ATOM     14  CAM 5E4 d   1      44.962  46.647 -14.874  0.00  0.00    -0.041 A 
ATOM     15  CAN 5E4 d   1      44.886  47.924 -15.366  0.00  0.00     0.013 A 
ATOM     16  H6  5E4 d   1      44.085  46.180 -14.441  0.00  0.00     0.089 H 
ATOM     17 BR   5E4 d   1      43.133  48.728 -15.273  0.00  0.00    -0.051 Br
ATOM     18  CAG 5E4 d   1      45.994  48.582 -15.876  0.00  0.00    -0.066 A 
ATOM     19  CAF 5E4 d   1      47.198  47.911 -15.924  0.00  0.00    -0.080 A 
ATOM     20  H7  5E4 d   1      45.916  49.604 -16.230  0.00  0.00     0.085 H 
ATOM     21  CAE 5E4 d   1      47.265  46.609 -15.432  0.00  0.00    -0.057 A 
ATOM     22  H8  5E4 d   1      48.078  48.389 -16.338  0.00  0.00     0.083 H 
ATOM     23  H9  5E4 d   1      48.213  46.084 -15.440  0.00  0.00     0.086 H 
ENDBRANCH  11  13
ENDBRANCH   6  11
BRANCH   1  24
ATOM     24  CAP 5E4 d   1      47.161  41.988 -13.752  0.00  0.00     0.211 C 
ATOM     25  OAD 5E4 d   1      47.594  42.987 -13.130  0.00  0.00    -0.644 OA
ATOM     26  OAQ 5E4 d   1      47.802  40.910 -13.700  0.00  0.00    -0.644 OA
ENDBRANCH   1  24
TORSDOF 3
