REMARK  8 active torsions:
REMARK  status: ('A' for Active; 'I' for Inactive)
REMARK    1  A    between atoms: CBA_2  and  CAZ_4 
REMARK    2  A    between atoms: CAZ_4  and  OAB_5 
REMARK    3  A    between atoms: OAB_5  and  CAO_6 
REMARK    4  A    between atoms: CAO_6  and  CAL_7 
REMARK    5  A    between atoms: CAL_7  and  NAF_8 
REMARK    6  A    between atoms: NAE_13  and  CAK_14 
REMARK    7  A    between atoms: CAK_14  and  CAM_15 
REMARK    8  A    between atoms: CAK_14  and  CAN_22 
ROOT
ATOM      1  NAF CZE d   1     -26.645  12.881 -19.013  0.00  0.00    -0.066 N 
ATOM      2  CAJ CZE d   1     -27.803  13.323 -19.786  0.00  0.00     0.106 C 
ATOM      3  CAH CZE d   1     -29.057  12.537 -19.380  0.00  0.00     0.107 C 
ATOM      4  CAI CZE d   1     -26.962  13.021 -17.577  0.00  0.00     0.106 C 
ATOM      5  CAG CZE d   1     -28.262  12.386 -17.171  0.00  0.00     0.107 C 
ATOM      6  NAE CZE d   1     -29.320  12.881 -18.002  0.00  0.00    -0.056 N 
ATOM      7  H7  CZE d   1     -26.461  11.911 -19.218  0.00  0.00     0.280 HD
ATOM      8  H8  CZE d   1     -27.606  13.161 -20.856  0.00  0.00     0.078 H 
ATOM      9  H9  CZE d   1     -27.973  14.394 -19.602  0.00  0.00     0.078 H 
ATOM     10  H10 CZE d   1     -28.877  11.456 -19.475  0.00  0.00     0.078 H 
ATOM     11  H11 CZE d   1     -29.909  12.824 -20.014  0.00  0.00     0.078 H 
ATOM     12  H12 CZE d   1     -27.012  14.093 -17.337  0.00  0.00     0.078 H 
ATOM     13  H13 CZE d   1     -26.153  12.553 -16.997  0.00  0.00     0.078 H 
ATOM     14  H14 CZE d   1     -28.477  12.631 -16.120  0.00  0.00     0.078 H 
ATOM     15  H15 CZE d   1     -28.187  11.294 -17.285  0.00  0.00     0.078 H 
ATOM     16  H16 CZE d   1     -29.411  13.880 -17.898  0.00  0.00     0.281 HD
ENDROOT
BRANCH   6  17
ATOM     17  CAK CZE d   1     -30.628  12.162 -17.587  0.00  0.00     0.154 C 
ATOM     18  H17 CZE d   1     -30.512  11.115 -17.903  0.00  0.00     0.100 H 
BRANCH  17  19
ATOM     19  CAM CZE d   1     -31.882  12.698 -18.267  0.00  0.00    -0.023 A 
ATOM     20  CAP CZE d   1     -32.787  11.815 -18.866  0.00  0.00    -0.073 A 
ATOM     21  CAT CZE d   1     -33.943  12.312 -19.474  0.00  0.00    -0.061 A 
ATOM     22  H18 CZE d   1     -32.592  10.749 -18.858  0.00  0.00     0.084 H 
ATOM     23  CAX CZE d   1     -34.192  13.690 -19.481  0.00  0.00     0.034 A 
ATOM     24  H19 CZE d   1     -34.646  11.631 -19.940  0.00  0.00     0.086 H 
ATOM     25 CLAA CZE d   1     -35.589  14.348 -20.207  0.00  0.00    -0.084 Cl
ATOM     26  CAU CZE d   1     -33.294  14.566 -18.885  0.00  0.00    -0.061 A 
ATOM     27  CAQ CZE d   1     -32.149  14.071 -18.279  0.00  0.00    -0.073 A 
ATOM     28  H20 CZE d   1     -33.487  15.633 -18.893  0.00  0.00     0.086 H 
ATOM     29  H21 CZE d   1     -31.453  14.756 -17.809  0.00  0.00     0.084 H 
ENDBRANCH  17  19
BRANCH  17  30
ATOM     30  CAN CZE d   1     -30.869  12.155 -16.072  0.00  0.00    -0.023 A 
ATOM     31  CAR CZE d   1     -30.835  13.339 -15.321  0.00  0.00    -0.074 A 
ATOM     32  CAV CZE d   1     -31.040  13.329 -13.939  0.00  0.00    -0.082 A 
ATOM     33  H22 CZE d   1     -30.646  14.281 -15.823  0.00  0.00     0.084 H 
ATOM     34  CAY CZE d   1     -31.295  12.129 -13.283  0.00  0.00    -0.083 A 
ATOM     35  H23 CZE d   1     -31.000  14.256 -13.378  0.00  0.00     0.083 H 
ATOM     36  CAW CZE d   1     -31.332  10.948 -14.026  0.00  0.00    -0.082 A 
ATOM     37  H24 CZE d   1     -31.462  12.111 -12.212  0.00  0.00     0.083 H 
ATOM     38  CAS CZE d   1     -31.121  10.954 -15.405  0.00  0.00    -0.074 A 
ATOM     39  H25 CZE d   1     -31.528  10.008 -13.522  0.00  0.00     0.083 H 
ATOM     40  H26 CZE d   1     -31.153  10.024 -15.960  0.00  0.00     0.084 H 
ENDBRANCH  17  30
ENDBRANCH   6  17
BRANCH   1  41
ATOM     41  CAL CZE d   1     -25.440  13.681 -19.367  0.00  0.00     0.103 C 
ATOM     42  H5  CZE d   1     -25.249  13.585 -20.446  0.00  0.00     0.079 H 
ATOM     43  H6  CZE d   1     -25.624  14.737 -19.119  0.00  0.00     0.079 H 
BRANCH  41  44
ATOM     44  CAO CZE d   1     -24.224  13.198 -18.604  0.00  0.00     0.043 C 
ATOM     45  H3  CZE d   1     -24.467  13.118 -17.534  0.00  0.00     0.076 H 
ATOM     46  H4  CZE d   1     -23.916  12.213 -18.985  0.00  0.00     0.076 H 
BRANCH  44  47
ATOM     47  OAB CZE d   1     -23.153  14.146 -18.788  0.00  0.00    -0.379 OA
BRANCH  47  48
ATOM     48  CAZ CZE d   1     -22.210  14.346 -17.705  0.00  0.00     0.099 C 
ATOM     49  H1  CZE d   1     -22.012  13.391 -17.196  0.00  0.00     0.091 H 
ATOM     50  H2  CZE d   1     -21.267  14.755 -18.097  0.00  0.00     0.091 H 
BRANCH  48  51
ATOM     51  CBA CZE d   1     -22.843  15.330 -16.738  0.00  0.00     0.197 C 
ATOM     52  OAC CZE d   1     -22.410  15.319 -15.566  0.00  0.00    -0.646 OA
ATOM     53  OAD CZE d   1     -23.733  16.094 -17.176  0.00  0.00    -0.646 OA
ENDBRANCH  48  51
ENDBRANCH  47  48
ENDBRANCH  44  47
ENDBRANCH  41  44
ENDBRANCH   1  41
TORSDOF 8
