REMARK  11 active torsions:
REMARK  status: ('A' for Active; 'I' for Inactive)
REMARK    1  A    between atoms: C12_20  and  C13_2 
REMARK    2  A    between atoms: C14_21  and  C15_3 
REMARK    3  A    between atoms: C16_22  and  C17_4 
REMARK    4  A    between atoms: C20_5  and  N21_25 
REMARK    5  A    between atoms: C26_8  and  C28_9 
REMARK    6  A    between atoms: C05_14  and  C26_8 
REMARK    7  A    between atoms: C26_8  and  O27_28 
REMARK    8  A    between atoms: C26_8  and  C31_31 
REMARK       I    between atoms: C02_11  and  N03_12 
REMARK    9  A    between atoms: C05_14  and  C02_11 
REMARK   10  A    between atoms: N06_15  and  C05_14 
REMARK       I    between atoms: C07_16  and  N06_15 
REMARK   11  A    between atoms: C09_18  and  C07_16 
ROOT
ATOM      1  C10 5EN d   1     -27.367  12.808  -5.286  0.00  0.00    -0.066 A 
ATOM      2  C24 5EN d   1     -25.561  14.935  -5.626  0.00  0.00    -0.064 A 
ATOM      3  C09 5EN d   1     -26.264  12.691  -6.139  0.00  0.00     0.032 A 
ATOM      4  C11 5EN d   1     -27.575  13.996  -4.591  0.00  0.00    -0.064 A 
ATOM      5  C12 5EN d   1     -26.632  15.041  -4.770  0.00  0.00     0.018 A 
ATOM      6  C25 5EN d   1     -25.354  13.742  -6.321  0.00  0.00    -0.066 A 
ATOM      7  H1  5EN d   1     -28.055  11.979  -5.167  0.00  0.00     0.085 H 
ATOM      8  H3  5EN d   1     -24.883  15.770  -5.760  0.00  0.00     0.085 H 
ATOM      9  H7  5EN d   1     -28.429  14.119  -3.935  0.00  0.00     0.085 H 
ATOM     10  H13 5EN d   1     -24.507  13.630  -6.988  0.00  0.00     0.085 H 
ENDROOT
BRANCH   3  11
ATOM     11  C07 5EN d   1     -26.043  11.442  -6.905  0.00  0.00     0.252 C 
ATOM     12  N06 5EN d   1     -24.853  11.351  -7.685  0.00  0.00    -0.340 N 
ATOM     13  H6  5EN d   1     -24.206  12.113  -7.691  0.00  0.00     0.163 HD
ATOM     14  O08 5EN d   1     -26.929  10.608  -6.990  0.00  0.00    -0.268 OA
BRANCH  12  15
ATOM     15  C05 5EN d   1     -24.583  10.210  -8.439  0.00  0.00     0.128 C 
ATOM     16  H5  5EN d   1     -25.343   9.448  -8.213  0.00  0.00     0.092 H 
BRANCH  15  17
ATOM     17  C26 5EN d   1     -24.669  10.531  -9.869  0.00  0.00     0.142 C 
BRANCH  17  18
ATOM     18  C28 5EN d   1     -24.195   9.345 -10.651  0.00  0.00     0.239 C 
ATOM     19  F29 5EN d   1     -24.318   9.566 -11.957  0.00  0.00    -0.211 F 
ATOM     20  F30 5EN d   1     -24.933   8.290 -10.332  0.00  0.00    -0.211 F 
ATOM     21  H4  5EN d   1     -23.140   9.148 -10.410  0.00  0.00     0.150 H 
ENDBRANCH  17  18
BRANCH  17  22
ATOM     22  O27 5EN d   1     -25.984  10.796 -10.182  0.00  0.00    -0.382 OA
ATOM     23  H14 5EN d   1     -26.289  11.533  -9.666  0.00  0.00     0.210 HD
ENDBRANCH  17  22
BRANCH  17  24
ATOM     24  C31 5EN d   1     -23.858  11.738 -10.213  0.00  0.00    -0.040 C 
ATOM     25  H15 5EN d   1     -23.948  11.945 -11.290  0.00  0.00     0.032 H 
ATOM     26  H16 5EN d   1     -22.803  11.555  -9.962  0.00  0.00     0.032 H 
ATOM     27  H17 5EN d   1     -24.226  12.602  -9.641  0.00  0.00     0.032 H 
ENDBRANCH  17  24
ENDBRANCH  15  17
BRANCH  15  28
ATOM     28  C02 5EN d   1     -23.269   9.674  -8.058  0.00  0.00     0.295 C 
ATOM     29  O01 5EN d   1     -22.273  10.384  -8.001  0.00  0.00    -0.267 OA
ATOM     30  N03 5EN d   1     -23.186   8.362  -7.514  0.00  0.00    -0.057 NA
ATOM     31  O04 5EN d   1     -22.016   7.876  -7.216  0.00  0.00    -0.058 OA
ENDBRANCH  15  28
ENDBRANCH  12  15
ENDBRANCH   3  11
BRANCH   5  32
ATOM     32  C13 5EN d   1     -26.823  16.325  -4.072  0.00  0.00    -0.053 C 
ATOM     33  C14 5EN d   1     -26.967  17.394  -3.542  0.00  0.00    -0.009 C 
BRANCH  33  34
ATOM     34  C15 5EN d   1     -27.145  18.707  -2.892  0.00  0.00    -0.009 C 
ATOM     35  C16 5EN d   1     -27.290  19.791  -2.396  0.00  0.00    -0.053 C 
BRANCH  35  36
ATOM     36  C17 5EN d   1     -27.464  21.147  -1.836  0.00  0.00     0.018 A 
ATOM     37  C18 5EN d   1     -28.046  21.422  -0.600  0.00  0.00    -0.063 A 
ATOM     38  C19 5EN d   1     -28.168  22.755  -0.204  0.00  0.00    -0.056 A 
ATOM     39  H8  5EN d   1     -28.396  20.619   0.039  0.00  0.00     0.085 H 
ATOM     40  C20 5EN d   1     -27.729  23.788  -1.047  0.00  0.00     0.025 A 
ATOM     41  H9  5EN d   1     -28.604  22.994   0.759  0.00  0.00     0.086 H 
ATOM     42  C22 5EN d   1     -27.161  23.513  -2.296  0.00  0.00    -0.056 A 
ATOM     43  C23 5EN d   1     -27.034  22.176  -2.691  0.00  0.00    -0.063 A 
ATOM     44  H2  5EN d   1     -26.827  24.317  -2.942  0.00  0.00     0.086 H 
ATOM     45  H12 5EN d   1     -26.604  21.934  -3.656  0.00  0.00     0.085 H 
BRANCH  40  46
ATOM     46  N21 5EN d   1     -27.865  25.155  -0.658  0.00  0.00    -0.399 N 
ATOM     47  H10 5EN d   1     -27.539  25.904  -1.286  0.00  0.00     0.156 HD
ATOM     48  H11 5EN d   1     -28.289  25.392   0.250  0.00  0.00     0.156 HD
ENDBRANCH  40  46
ENDBRANCH  35  36
ENDBRANCH  33  34
ENDBRANCH   5  32
TORSDOF 11
