REMARK  13 active torsions:
REMARK  status: ('A' for Active; 'I' for Inactive)
REMARK    1  A    between atoms: O1_7  and  C1_1 
REMARK    2  A    between atoms: C2_2  and  O2_8 
REMARK    3  A    between atoms: C3_3  and  O3_9 
REMARK    4  A    between atoms: C4_4  and  O4_10 
REMARK    5  A    between atoms: C5_5  and  C6_6 
REMARK    6  A    between atoms: C6_6  and  O6_12 
REMARK    7  A    between atoms: C4'_16  and  O1_7 
REMARK    8  A    between atoms: O3_9  and  S_24 
REMARK    9  A    between atoms: C1'_13  and  O1'_19 
REMARK   10  A    between atoms: C2'_14  and  O2'_20 
REMARK   11  A    between atoms: C3'_15  and  O3'_21 
REMARK   12  A    between atoms: C5'_17  and  C6'_18 
REMARK   13  A    between atoms: C6'_18  and  O6'_23 
ROOT
ATOM      1  C1  5GO d   1      77.228 -14.546 -51.176  0.00  0.00     0.159 C 
ATOM      2  C2  5GO d   1      78.033 -13.583 -52.026  0.00  0.00     0.112 C 
ATOM      3  C3  5GO d   1      77.503 -12.160 -51.942  0.00  0.00     0.116 C 
ATOM      4  C4  5GO d   1      75.978 -12.134 -52.107  0.00  0.00     0.091 C 
ATOM      5  C5  5GO d   1      75.309 -13.166 -51.191  0.00  0.00     0.089 C 
ATOM      6  O5  5GO d   1      75.837 -14.471 -51.477  0.00  0.00    -0.348 OA
ATOM      7  H1  5GO d   1      77.385 -14.340 -50.107  0.00  0.00     0.133 H 
ATOM      8  H2  5GO d   1      77.996 -13.914 -53.074  0.00  0.00     0.094 H 
ATOM      9  H3  5GO d   1      77.756 -11.732 -50.961  0.00  0.00     0.094 H 
ATOM     10  H4  5GO d   1      75.596 -11.132 -51.863  0.00  0.00     0.091 H 
ATOM     11  H5  5GO d   1      75.530 -12.895 -50.148  0.00  0.00     0.090 H 
ENDROOT
BRANCH   1  12
ATOM     12  O1  5GO d   1      77.720 -15.838 -51.522  0.00  0.00    -0.348 OA
BRANCH  12  13
ATOM     13  C4' 5GO d   1      77.094 -16.879 -50.770  0.00  0.00     0.096 C 
ATOM     14  C3' 5GO d   1      76.690 -17.952 -51.781  0.00  0.00     0.092 C 
ATOM     15  C2' 5GO d   1      76.223 -19.219 -51.087  0.00  0.00     0.110 C 
ATOM     16  H13 5GO d   1      77.572 -18.194 -52.392  0.00  0.00     0.091 H 
ATOM     17  C1' 5GO d   1      77.239 -19.664 -50.037  0.00  0.00     0.156 C 
ATOM     18  H12 5GO d   1      75.259 -19.027 -50.593  0.00  0.00     0.094 H 
ATOM     19  O5' 5GO d   1      77.440 -18.597 -49.107  0.00  0.00    -0.349 OA
ATOM     20  H11 5GO d   1      78.192 -19.947 -50.508  0.00  0.00     0.133 H 
ATOM     21  C5' 5GO d   1      78.053 -17.471 -49.744  0.00  0.00     0.089 C 
ATOM     22  H15 5GO d   1      78.957 -17.807 -50.273  0.00  0.00     0.090 H 
ATOM     23  H14 5GO d   1      76.205 -16.488 -50.253  0.00  0.00     0.091 H 
BRANCH  14  24
ATOM     24  O3' 5GO d   1      75.655 -17.486 -52.643  0.00  0.00    -0.390 OA
ATOM     25  H20 5GO d   1      74.893 -17.255 -52.125  0.00  0.00     0.210 HD
ENDBRANCH  14  24
BRANCH  15  26
ATOM     26  O2' 5GO d   1      76.055 -20.247 -52.075  0.00  0.00    -0.388 OA
ATOM     27  H19 5GO d   1      75.408 -19.969 -52.712  0.00  0.00     0.210 HD
ENDBRANCH  15  26
BRANCH  17  28
ATOM     28  O1' 5GO d   1      76.660 -20.775 -49.355  0.00  0.00    -0.369 OA
ATOM     29  H18 5GO d   1      76.525 -21.487 -49.969  0.00  0.00     0.212 HD
ENDBRANCH  17  28
BRANCH  21  30
ATOM     30  C6' 5GO d   1      78.468 -16.472 -48.674  0.00  0.00     0.043 C 
ATOM     31  H16 5GO d   1      78.999 -15.638 -49.156  0.00  0.00     0.078 H 
ATOM     32  H17 5GO d   1      79.141 -16.974 -47.963  0.00  0.00     0.078 H 
BRANCH  30  33
ATOM     33  O6' 5GO d   1      77.350 -15.952 -47.958  0.00  0.00    -0.398 OA
ATOM     34  H21 5GO d   1      77.654 -15.335 -47.303  0.00  0.00     0.209 HD
ENDBRANCH  30  33
ENDBRANCH  21  30
ENDBRANCH  12  13
ENDBRANCH   1  12
BRANCH   2  35
ATOM     35  O2  5GO d   1      79.393 -13.603 -51.561  0.00  0.00    -0.388 OA
ATOM     36  H8  5GO d   1      79.423 -13.302 -50.660  0.00  0.00     0.210 HD
ENDBRANCH   2  35
BRANCH   3  37
ATOM     37  O3  5GO d   1      78.152 -11.411 -52.964  0.00  0.00    -0.246 OA
BRANCH  37  38
ATOM     38  S   5GO d   1      78.455  -9.880 -52.692  0.00  0.00     0.252 S 
ATOM     39  OS1 5GO d   1      77.311  -9.132 -52.146  0.00  0.00    -0.572 OA
ATOM     40  OS2 5GO d   1      78.882  -9.324 -54.009  0.00  0.00    -0.572 OA
ATOM     41  OS3 5GO d   1      79.602  -9.932 -51.809  0.00  0.00    -0.572 OA
ENDBRANCH  37  38
ENDBRANCH   3  37
BRANCH   5  42
ATOM     42  C6  5GO d   1      73.796 -13.269 -51.364  0.00  0.00     0.043 C 
ATOM     43  H6  5GO d   1      73.565 -13.517 -52.410  0.00  0.00     0.078 H 
ATOM     44  H7  5GO d   1      73.333 -12.306 -51.104  0.00  0.00     0.078 H 
BRANCH  42  45
ATOM     45  O6  5GO d   1      73.273 -14.298 -50.503  0.00  0.00    -0.398 OA
ATOM     46  H10 5GO d   1      73.672 -15.130 -50.728  0.00  0.00     0.209 HD
ENDBRANCH  42  45
ENDBRANCH   5  42
BRANCH   4  47
ATOM     47  O4  5GO d   1      75.689 -12.447 -53.476  0.00  0.00    -0.390 OA
ATOM     48  H9  5GO d   1      76.105 -11.806 -54.041  0.00  0.00     0.210 HD
ENDBRANCH   4  47
TORSDOF 13
