REMARK  6 active torsions:
REMARK  status: ('A' for Active; 'I' for Inactive)
REMARK    1  A    between atoms: C1_1  and  C_32 
REMARK    2  A    between atoms: C3_3  and  N_30 
REMARK    3  A    between atoms: C11_4  and  N2_22 
REMARK    4  A    between atoms: C12_5  and  C13_6 
REMARK       I    between atoms: N2_22  and  C12_5 
REMARK    5  A    between atoms: C17_10  and  C18_11 
REMARK    6  A    between atoms: C5_28  and  C7_27 
ROOT
ATOM      1  C11 5H7 d   1     -39.009  -2.877   0.469  0.00  0.00     0.059 A 
ATOM      2  C10 5H7 d   1     -37.985  -2.864  -0.485  0.00  0.00     0.028 A 
ATOM      3  N1  5H7 d   1     -36.729  -3.243  -0.250  0.00  0.00    -0.271 NA
ATOM      4  C9  5H7 d   1     -36.453  -3.666   0.982  0.00  0.00     0.002 A 
ATOM      5  C8  5H7 d   1     -37.380  -3.714   2.002  0.00  0.00    -0.057 A 
ATOM      6  C7  5H7 d   1     -38.690  -3.313   1.763  0.00  0.00    -0.024 A 
ATOM      7  H11 5H7 d   1     -38.230  -2.522  -1.484  0.00  0.00     0.118 H 
ATOM      8  H12 5H7 d   1     -35.441  -3.991   1.196  0.00  0.00     0.114 H 
ATOM      9  H13 5H7 d   1     -37.089  -4.063   2.986  0.00  0.00     0.086 H 
ENDROOT
BRANCH   1  10
ATOM     10  N2  5H7 d   1     -40.314  -2.431   0.165  0.00  0.00    -0.320 N 
ATOM     11  C12 5H7 d   1     -40.994  -2.511  -1.002  0.00  0.00     0.274 C 
ATOM     12  O   5H7 d   1     -40.501  -2.853  -2.076  0.00  0.00    -0.266 OA
ATOM     13  H10 5H7 d   1     -40.805  -1.994   0.919  0.00  0.00     0.169 HD
BRANCH  11  14
ATOM     14  C13 5H7 d   1     -42.457  -2.200  -0.876  0.00  0.00     0.125 A 
ATOM     15  C14 5H7 d   1     -43.269  -2.215  -2.005  0.00  0.00    -0.047 A 
ATOM     16  C15 5H7 d   1     -44.638  -2.105  -1.827  0.00  0.00    -0.041 A 
ATOM     17  H5  5H7 d   1     -42.842  -2.310  -2.997  0.00  0.00     0.087 H 
ATOM     18  C16 5H7 d   1     -45.136  -1.963  -0.554  0.00  0.00     0.146 A 
ATOM     19  H6  5H7 d   1     -45.307  -2.131  -2.679  0.00  0.00     0.088 H 
ATOM     20  C17 5H7 d   1     -44.261  -1.920   0.532  0.00  0.00     0.112 A 
ATOM     21  F   5H7 d   1     -46.473  -1.884  -0.375  0.00  0.00    -0.204 F 
ATOM     22  N3  5H7 d   1     -42.935  -2.031   0.367  0.00  0.00    -0.239 NA
BRANCH  20  23
ATOM     23  C18 5H7 d   1     -44.735  -1.771   1.940  0.00  0.00     0.073 A 
ATOM     24  C19 5H7 d   1     -45.650  -0.796   2.321  0.00  0.00     0.132 A 
ATOM     25  C20 5H7 d   1     -46.153  -0.672   3.592  0.00  0.00    -0.045 A 
ATOM     26  F1  5H7 d   1     -46.054   0.083   1.378  0.00  0.00    -0.205 F 
ATOM     27  C21 5H7 d   1     -45.727  -1.568   4.560  0.00  0.00    -0.077 A 
ATOM     28  H7  5H7 d   1     -46.866   0.108   3.833  0.00  0.00     0.088 H 
ATOM     29  C22 5H7 d   1     -44.800  -2.550   4.251  0.00  0.00    -0.045 A 
ATOM     30  H8  5H7 d   1     -46.122  -1.500   5.567  0.00  0.00     0.083 H 
ATOM     31  C23 5H7 d   1     -44.330  -2.620   2.960  0.00  0.00     0.132 A 
ATOM     32  H9  5H7 d   1     -44.454  -3.245   5.007  0.00  0.00     0.088 H 
ATOM     33  F2  5H7 d   1     -43.397  -3.557   2.663  0.00  0.00    -0.205 F 
ENDBRANCH  20  23
ENDBRANCH  11  14
ENDBRANCH   1  10
BRANCH   6  34
ATOM     34  C5  5H7 d   1     -39.719  -3.286   2.885  0.00  0.00    -0.024 C 
ATOM     35  C4  5H7 d   1     -39.527  -4.367   3.949  0.00  0.00    -0.031 C 
ATOM     36  C3  5H7 d   1     -40.741  -4.401   4.880  0.00  0.00     0.101 C 
ATOM     37  H15 5H7 d   1     -39.415  -5.346   3.459  0.00  0.00     0.037 H 
ATOM     38  H16 5H7 d   1     -38.623  -4.145   4.536  0.00  0.00     0.037 H 
ATOM     39  C2  5H7 d   1     -40.862  -3.017   5.546  0.00  0.00    -0.036 C 
ATOM     40  H4  5H7 d   1     -41.648  -4.604   4.292  0.00  0.00     0.083 H 
ATOM     41  C1  5H7 d   1     -40.966  -1.874   4.542  0.00  0.00    -0.055 C 
ATOM     42  H2  5H7 d   1     -41.763  -3.011   6.178  0.00  0.00     0.036 H 
ATOM     43  H3  5H7 d   1     -39.973  -2.852   6.173  0.00  0.00     0.036 H 
ATOM     44  C6  5H7 d   1     -39.790  -1.921   3.572  0.00  0.00    -0.055 C 
ATOM     45  H1  5H7 d   1     -41.892  -2.009   3.965  0.00  0.00     0.039 H 
ATOM     46  H20 5H7 d   1     -38.856  -1.745   4.126  0.00  0.00     0.034 H 
ATOM     47  H21 5H7 d   1     -39.917  -1.138   2.810  0.00  0.00     0.034 H 
ATOM     48  H14 5H7 d   1     -40.696  -3.469   2.414  0.00  0.00     0.047 H 
BRANCH  36  49
ATOM     49  N   5H7 d   1     -40.584  -5.454   5.886  0.00  0.00    -0.075 N 
ATOM     50  H17 5H7 d   1     -41.390  -5.464   6.491  0.00  0.00     0.274 HD
ATOM     51  H18 5H7 d   1     -39.756  -5.276   6.433  0.00  0.00     0.274 HD
ATOM     52  H19 5H7 d   1     -40.498  -6.347   5.427  0.00  0.00     0.274 HD
ENDBRANCH  36  49
BRANCH  41  53
ATOM     53  C   5H7 d   1     -41.044  -0.524   5.244  0.00  0.00    -0.073 C 
ATOM     54  H22 5H7 d   1     -41.899  -0.519   5.936  0.00  0.00     0.028 H 
ATOM     55  H23 5H7 d   1     -41.173   0.272   4.495  0.00  0.00     0.028 H 
ATOM     56  H24 5H7 d   1     -40.116  -0.350   5.808  0.00  0.00     0.028 H 
ENDBRANCH  41  53
ENDBRANCH   6  34
TORSDOF 6
