REMARK  7 active torsions:
REMARK  status: ('A' for Active; 'I' for Inactive)
REMARK    1  A    between atoms: CAO_1  and  CAN_2 
REMARK    2  A    between atoms: CAN_2  and  NAA_3 
REMARK    3  A    between atoms: CAH_15  and  NAP_16 
REMARK    4  A    between atoms: NAP_16  and  SAQ_17 
REMARK    5  A    between atoms: SAQ_17  and  CAT_20 
REMARK    6  A    between atoms: CAY_26  and  OBA_27 
REMARK    7  A    between atoms: OBA_27  and  CBB_28 
ROOT
ATOM      1  NAA E0C d   1      -9.027   7.863   3.322  0.00  0.00    -0.313 N 
ATOM      2  CAE E0C d   1      -9.807   8.175   2.275  0.00  0.00     0.259 A 
ATOM      3  OAM E0C d   1     -10.865   7.611   1.957  0.00  0.00    -0.267 OA
ATOM      4  CAD E0C d   1      -9.272   9.205   1.610  0.00  0.00     0.045 A 
ATOM      5  CAL E0C d   1      -9.625   9.890   0.521  0.00  0.00    -0.067 A 
ATOM      6  CAK E0C d   1      -8.814  10.943   0.078  0.00  0.00    -0.081 A 
ATOM      7  CAJ E0C d   1      -7.645  11.268   0.777  0.00  0.00    -0.070 A 
ATOM      8  CAI E0C d   1      -7.313  10.518   1.910  0.00  0.00     0.005 A 
ATOM      9  CAC E0C d   1      -8.155   9.526   2.266  0.00  0.00     0.019 A 
ATOM     10  CAB E0C d   1      -7.988   8.713   3.317  0.00  0.00     0.049 A 
ATOM     11  CAF E0C d   1      -6.915   8.879   4.105  0.00  0.00    -0.054 A 
ATOM     12  CAG E0C d   1      -5.986   9.896   3.813  0.00  0.00    -0.054 A 
ATOM     13  CAH E0C d   1      -6.170  10.731   2.699  0.00  0.00     0.053 A 
ATOM     14  H6  E0C d   1     -10.531   9.634  -0.016  0.00  0.00     0.085 H 
ATOM     15  H7  E0C d   1      -9.091  11.506  -0.806  0.00  0.00     0.083 H 
ATOM     16  H8  E0C d   1      -7.011  12.083   0.447  0.00  0.00     0.084 H 
ATOM     17  H9  E0C d   1      -6.764   8.233   4.963  0.00  0.00     0.087 H 
ATOM     18  H10 E0C d   1      -5.122  10.036   4.453  0.00  0.00     0.087 H 
ENDROOT
BRANCH  13  19
ATOM     19  NAP E0C d   1      -5.311  11.736   2.378  0.00  0.00    -0.280 N 
ATOM     20  H11 E0C d   1      -5.564  12.691   2.532  0.00  0.00     0.179 HD
BRANCH  19  21
ATOM     21  SAQ E0C d   1      -3.801  11.339   1.712  0.00  0.00     0.266 S 
ATOM     22  OAR E0C d   1      -3.166  10.246   2.575  0.00  0.00    -0.200 OA
ATOM     23  OAS E0C d   1      -2.916  12.577   1.617  0.00  0.00    -0.200 OA
BRANCH  21  24
ATOM     24  CAT E0C d   1      -4.005  10.653   0.083  0.00  0.00     0.114 A 
ATOM     25  CAU E0C d   1      -3.713   9.299  -0.113  0.00  0.00    -0.041 A 
ATOM     26  CAV E0C d   1      -3.844   8.716  -1.366  0.00  0.00     0.012 A 
ATOM     27  H12 E0C d   1      -3.380   8.697   0.725  0.00  0.00     0.088 H 
ATOM     28 BRA  E0C d   1      -3.461   6.868  -1.581  0.00  0.00    -0.051 Br
ATOM     29  CAW E0C d   1      -4.268   9.489  -2.436  0.00  0.00    -0.063 A 
ATOM     30  CAX E0C d   1      -4.552  10.849  -2.258  0.00  0.00    -0.048 A 
ATOM     31  H13 E0C d   1      -4.380   9.039  -3.416  0.00  0.00     0.085 H 
ATOM     32  CAY E0C d   1      -4.420  11.449  -0.997  0.00  0.00     0.091 A 
ATOM     33  H14 E0C d   1      -4.877  11.444  -3.104  0.00  0.00     0.087 H 
BRANCH  32  34
ATOM     34  OBA E0C d   1      -4.684  12.781  -0.709  0.00  0.00    -0.354 OA
BRANCH  34  35
ATOM     35  CBB E0C d   1      -5.307  13.598  -1.725  0.00  0.00     0.010 C 
ATOM     36  H15 E0C d   1      -5.446  14.619  -1.340  0.00  0.00     0.066 H 
ATOM     37  H16 E0C d   1      -6.285  13.170  -1.991  0.00  0.00     0.066 H 
ATOM     38  H17 E0C d   1      -4.665  13.627  -2.617  0.00  0.00     0.066 H 
ENDBRANCH  34  35
ENDBRANCH  32  34
ENDBRANCH  21  24
ENDBRANCH  19  21
ENDBRANCH  13  19
BRANCH   1  39
ATOM     39  CAN E0C d   1      -9.273   6.753   4.309  0.00  0.00    -0.000 C 
ATOM     40  H4  E0C d   1      -8.812   7.000   5.277  0.00  0.00     0.064 H 
ATOM     41  H5  E0C d   1     -10.354   6.602   4.446  0.00  0.00     0.064 H 
BRANCH  39  42
ATOM     42  CAO E0C d   1      -8.649   5.515   3.743  0.00  0.00    -0.061 C 
ATOM     43  H1  E0C d   1      -8.806   4.675   4.436  0.00  0.00     0.029 H 
ATOM     44  H2  E0C d   1      -7.570   5.679   3.604  0.00  0.00     0.029 H 
ATOM     45  H3  E0C d   1      -9.112   5.281   2.773  0.00  0.00     0.029 H 
ENDBRANCH  39  42
ENDBRANCH   1  39
TORSDOF 7
