REMARK  8 active torsions:
REMARK  status: ('A' for Active; 'I' for Inactive)
REMARK    1  A    between atoms: C4_2  and  C2_1 
REMARK       I    between atoms: C2_1  and  N1_13 
REMARK    2  A    between atoms: C4_2  and  C6_3 
REMARK    3  A    between atoms: O7_15  and  C4_2 
REMARK    4  A    between atoms: C8_4  and  O7_15 
REMARK    5  A    between atoms: C22_23  and  C16_7 
REMARK    6  A    between atoms: N26_26  and  C27_12 
REMARK    7  A    between atoms: C27_12  and  C28_27 
REMARK    8  A    between atoms: C27_12  and  C29_28 
ROOT
ATOM      1  C8  5H5 d   1     -17.996  15.581  31.358  0.00  0.00     0.072 A 
ATOM      2  C12 5H5 d   1     -14.353  15.906  28.342  0.00  0.00     0.041 C 
ATOM      3  C15 5H5 d   1     -14.405  12.463  26.925  0.00  0.00     0.013 A 
ATOM      4  C16 5H5 d   1     -15.475  11.631  27.029  0.00  0.00     0.122 A 
ATOM      5  C18 5H5 d   1     -15.818  13.290  28.411  0.00  0.00     0.143 A 
ATOM      6  C19 5H5 d   1     -16.514  14.130  29.436  0.00  0.00     0.043 A 
ATOM      7  C21 5H5 d   1     -18.514  14.420  30.771  0.00  0.00    -0.050 A 
ATOM      8  C9  5H5 d   1     -16.725  16.010  30.971  0.00  0.00    -0.018 A 
ATOM      9  C10 5H5 d   1     -15.977  15.315  30.029  0.00  0.00     0.085 A 
ATOM     10  O11 5H5 d   1     -14.757  15.789  29.701  0.00  0.00    -0.348 OA
ATOM     11  C13 5H5 d   1     -13.664  14.612  27.953  0.00  0.00     0.021 C 
ATOM     12  N14 5H5 d   1     -14.600  13.506  27.772  0.00  0.00    -0.337 N 
ATOM     13  N17 5H5 d   1     -16.295  12.175  27.936  0.00  0.00    -0.225 NA
ATOM     14  C20 5H5 d   1     -17.788  13.717  29.835  0.00  0.00    -0.064 A 
ATOM     15  H5  5H5 d   1     -13.656  16.750  28.230  0.00  0.00     0.077 H 
ATOM     16  H6  5H5 d   1     -15.233  16.069  27.702  0.00  0.00     0.077 H 
ATOM     17  H7  5H5 d   1     -13.543  12.318  26.276  0.00  0.00     0.115 H 
ATOM     18  H8  5H5 d   1     -19.499  14.070  31.057  0.00  0.00     0.087 H 
ATOM     19  H13 5H5 d   1     -16.312  16.908  31.417  0.00  0.00     0.092 H 
ATOM     20  H14 5H5 d   1     -12.950  14.342  28.745  0.00  0.00     0.068 H 
ATOM     21  H15 5H5 d   1     -13.122  14.772  27.009  0.00  0.00     0.068 H 
ATOM     22  H16 5H5 d   1     -18.215  12.822  29.397  0.00  0.00     0.085 H 
ENDROOT
BRANCH   4  23
ATOM     23  C22 5H5 d   1     -15.669  10.370  26.280  0.00  0.00     0.178 A 
ATOM     24  N23 5H5 d   1     -14.860   9.966  25.325  0.00  0.00    -0.219 NA
ATOM     25  C24 5H5 d   1     -15.266   8.804  24.836  0.00  0.00     0.108 A 
ATOM     26  N25 5H5 d   1     -16.344   8.433  25.468  0.00  0.00    -0.164 NA
ATOM     27  H9  5H5 d   1     -14.778   8.249  24.036  0.00  0.00     0.149 H 
ATOM     28  N26 5H5 d   1     -16.637   9.422  26.421  0.00  0.00    -0.245 N 
BRANCH  28  29
ATOM     29  C27 5H5 d   1     -17.790   9.370  27.335  0.00  0.00     0.030 C 
ATOM     30  H10 5H5 d   1     -17.792  10.259  27.983  0.00  0.00     0.074 H 
BRANCH  29  31
ATOM     31  C28 5H5 d   1     -17.719   8.105  28.192  0.00  0.00    -0.056 C 
ATOM     32  H17 5H5 d   1     -18.583   8.074  28.872  0.00  0.00     0.030 H 
ATOM     33  H18 5H5 d   1     -16.790   8.113  28.781  0.00  0.00     0.030 H 
ATOM     34  H19 5H5 d   1     -17.733   7.219  27.540  0.00  0.00     0.030 H 
ENDBRANCH  29  31
BRANCH  29  35
ATOM     35  C29 5H5 d   1     -19.070   9.328  26.500  0.00  0.00    -0.056 C 
ATOM     36  H20 5H5 d   1     -19.943   9.289  27.169  0.00  0.00     0.030 H 
ATOM     37  H21 5H5 d   1     -19.060   8.435  25.858  0.00  0.00     0.030 H 
ATOM     38  H22 5H5 d   1     -19.129  10.230  25.873  0.00  0.00     0.030 H 
ENDBRANCH  29  35
ENDBRANCH  28  29
ENDBRANCH   4  23
BRANCH   1  39
ATOM     39  O7  5H5 d   1     -18.662  16.332  32.298  0.00  0.00    -0.337 OA
BRANCH  39  40
ATOM     40  C4  5H5 d   1     -19.952  15.974  32.834  0.00  0.00     0.118 C 
ATOM     41  H1  5H5 d   1     -19.911  14.933  33.186  0.00  0.00     0.098 H 
BRANCH  40  42
ATOM     42  C2  5H5 d   1     -21.025  16.086  31.773  0.00  0.00     0.244 C 
ATOM     43  N1  5H5 d   1     -20.883  16.949  30.748  0.00  0.00    -0.368 N 
ATOM     44  H11 5H5 d   1     -21.596  17.018  30.050  0.00  0.00     0.159 HD
ATOM     45  H12 5H5 d   1     -20.065  17.520  30.685  0.00  0.00     0.159 HD
ATOM     46  O3  5H5 d   1     -22.003  15.368  31.824  0.00  0.00    -0.271 OA
ENDBRANCH  40  42
BRANCH  40  47
ATOM     47  C6  5H5 d   1     -20.295  16.885  34.017  0.00  0.00    -0.044 C 
ATOM     48  H2  5H5 d   1     -19.512  16.799  34.785  0.00  0.00     0.031 H 
ATOM     49  H3  5H5 d   1     -21.262  16.582  34.445  0.00  0.00     0.031 H 
ATOM     50  H4  5H5 d   1     -20.357  17.927  33.671  0.00  0.00     0.031 H 
ENDBRANCH  40  47
ENDBRANCH  39  40
ENDBRANCH   1  39
TORSDOF 8
