REMARK  3 active torsions:
REMARK  status: ('A' for Active; 'I' for Inactive)
REMARK    1  A    between atoms: C6_8  and  O3_9 
REMARK    2  A    between atoms: C10_13  and  C14_17 
REMARK    3  A    between atoms: C19_22  and  C20_23 
ROOT
ATOM      1  C1  FLU d   1      24.975  28.497  29.536  0.00  0.00     0.174 A 
ATOM      2  O1  FLU d   1      24.776  27.558  30.311  0.00  0.00    -0.288 OA
ATOM      3  C2  FLU d   1      25.687  29.689  29.957  0.00  0.00    -0.001 A 
ATOM      4  C3  FLU d   1      25.845  30.737  29.105  0.00  0.00     0.091 A 
ATOM      5  O2  FLU d   1      26.499  31.839  29.596  0.00  0.00    -0.309 OA
ATOM      6  C4  FLU d   1      26.699  32.956  28.806  0.00  0.00     0.089 A 
ATOM      7  C5  FLU d   1      27.366  34.004  29.407  0.00  0.00    -0.018 A 
ATOM      8  C6  FLU d   1      27.594  35.159  28.674  0.00  0.00     0.068 A 
ATOM      9  C7  FLU d   1      27.117  35.275  27.376  0.00  0.00    -0.050 A 
ATOM     10  C8  FLU d   1      26.454  34.210  26.784  0.00  0.00    -0.067 A 
ATOM     11  C9  FLU d   1      26.249  33.016  27.478  0.00  0.00     0.010 A 
ATOM     12  C10 FLU d   1      25.570  31.821  26.915  0.00  0.00     0.001 A 
ATOM     13  C11 FLU d   1      25.358  30.714  27.745  0.00  0.00     0.010 A 
ATOM     14  C12 FLU d   1      24.662  29.528  27.330  0.00  0.00    -0.066 A 
ATOM     15  C13 FLU d   1      24.465  28.480  28.163  0.00  0.00    -0.034 A 
ATOM     16  H1  FLU d   1      26.098  29.745  30.964  0.00  0.00     0.094 H 
ATOM     17  H2  FLU d   1      27.706  33.926  30.433  0.00  0.00     0.092 H 
ATOM     18  H4  FLU d   1      27.262  36.197  26.825  0.00  0.00     0.087 H 
ATOM     19  H5  FLU d   1      26.090  34.306  25.768  0.00  0.00     0.085 H 
ATOM     20  H6  FLU d   1      24.280  29.470  26.312  0.00  0.00     0.085 H 
ATOM     21  H7  FLU d   1      23.918  27.609  27.806  0.00  0.00     0.089 H 
ENDROOT
BRANCH  12  22
ATOM     22  C14 FLU d   1      25.204  31.773  25.454  0.00  0.00    -0.007 A 
ATOM     23  C15 FLU d   1      24.051  32.452  25.050  0.00  0.00    -0.071 A 
ATOM     24  C16 FLU d   1      23.512  32.217  23.790  0.00  0.00    -0.082 A 
ATOM     25  H8  FLU d   1      23.577  33.161  25.719  0.00  0.00     0.084 H 
ATOM     26  C17 FLU d   1      24.130  31.339  22.912  0.00  0.00    -0.082 A 
ATOM     27  H9  FLU d   1      22.602  32.724  23.491  0.00  0.00     0.083 H 
ATOM     28  C18 FLU d   1      25.310  30.703  23.272  0.00  0.00    -0.066 A 
ATOM     29  H10 FLU d   1      23.689  31.149  21.940  0.00  0.00     0.083 H 
ATOM     30  C19 FLU d   1      25.863  30.921  24.538  0.00  0.00     0.051 A 
ATOM     31  H11 FLU d   1      25.803  30.038  22.572  0.00  0.00     0.085 H 
BRANCH  30  32
ATOM     32  C20 FLU d   1      27.140  30.246  24.900  0.00  0.00     0.210 C 
ATOM     33  O4  FLU d   1      28.176  30.881  25.075  0.00  0.00    -0.644 OA
ATOM     34  O5  FLU d   1      27.045  28.956  25.089  0.00  0.00    -0.644 OA
ENDBRANCH  30  32
ENDBRANCH  12  22
BRANCH   8  35
ATOM     35  O3  FLU d   1      28.338  36.144  29.255  0.00  0.00    -0.361 OA
ATOM     36  H3  FLU d   1      28.419  36.875  28.653  0.00  0.00     0.217 HD
ENDBRANCH   8  35
TORSDOF 3
