REMARK  9 active torsions:
REMARK  status: ('A' for Active; 'I' for Inactive)
REMARK    1  A    between atoms: C6_4  and  N6_32 
REMARK    2  A    between atoms: C13_6  and  C15_17 
REMARK    3  A    between atoms: C4T_12  and  N4T_13 
REMARK    4  A    between atoms: C15_17  and  N1T_16 
REMARK    5  A    between atoms: C3'_21  and  N10_20 
REMARK    6  A    between atoms: C2'_22  and  O2'_23 
REMARK    7  A    between atoms: C4'_24  and  C5'_25 
REMARK    8  A    between atoms: C5'_25  and  O5'_26 
REMARK    9  A    between atoms: C1'_28  and  N9_29 
ROOT
ATOM      1  C3' 5J9 d   1      -9.076 -14.022  18.547  0.00  0.00     0.086 C 
ATOM      2  C2' 5J9 d   1      -9.891 -13.280  19.607  0.00  0.00     0.101 C 
ATOM      3  C4' 5J9 d   1      -8.276 -12.866  17.888  0.00  0.00     0.085 C 
ATOM      4  O4' 5J9 d   1      -8.485 -11.674  18.720  0.00  0.00    -0.354 OA
ATOM      5  C1' 5J9 d   1      -8.968 -12.120  19.966  0.00  0.00     0.139 C 
ATOM      6  H9  5J9 d   1      -9.733 -14.518  17.817  0.00  0.00     0.083 H 
ATOM      7  H10 5J9 d   1     -10.847 -12.926  19.195  0.00  0.00     0.093 H 
ATOM      8  H12 5J9 d   1      -7.216 -13.155  17.828  0.00  0.00     0.090 H 
ATOM      9  H16 5J9 d   1      -8.142 -12.495  20.588  0.00  0.00     0.122 H 
ENDROOT
BRANCH   1  10
ATOM     10  N10 5J9 d   1      -8.168 -15.029  19.151  0.00  0.00    -0.273 N 
ATOM     11  C14 5J9 d   1      -8.235 -16.364  19.073  0.00  0.00     0.022 A 
ATOM     12  C13 5J9 d   1      -7.207 -16.831  19.775  0.00  0.00     0.087 A 
ATOM     13  H1  5J9 d   1      -8.982 -16.950  18.541  0.00  0.00     0.116 H 
ATOM     14  N12 5J9 d   1      -6.514 -15.837  20.306  0.00  0.00    -0.161 NA
ATOM     15  N11 5J9 d   1      -7.106 -14.710  19.909  0.00  0.00     0.005 NA
BRANCH  12  16
ATOM     16  C15 5J9 d   1      -6.856 -18.308  19.991  0.00  0.00     0.046 C 
ATOM     17  H7  5J9 d   1      -7.712 -18.934  19.699  0.00  0.00     0.074 H 
ATOM     18  H8  5J9 d   1      -6.623 -18.477  21.053  0.00  0.00     0.074 H 
BRANCH  16  19
ATOM     19  N1T 5J9 d   1      -5.684 -18.667  19.169  0.00  0.00    -0.304 N 
ATOM     20  C2T 5J9 d   1      -5.819 -18.941  17.849  0.00  0.00     0.328 A 
ATOM     21  O2T 5J9 d   1      -6.924 -18.890  17.298  0.00  0.00    -0.246 OA
ATOM     22  N3T 5J9 d   1      -4.747 -19.297  17.106  0.00  0.00    -0.293 N 
ATOM     23  C4T 5J9 d   1      -3.509 -19.385  17.637  0.00  0.00     0.125 A 
ATOM     24  H3  5J9 d   1      -4.875 -19.501  16.135  0.00  0.00     0.172 HD
ATOM     25  C5T 5J9 d   1      -3.303 -19.114  18.996  0.00  0.00    -0.024 A 
ATOM     26  C6T 5J9 d   1      -4.404 -18.754  19.773  0.00  0.00    -0.012 A 
ATOM     27  H5  5J9 d   1      -2.309 -19.183  19.435  0.00  0.00     0.091 H 
ATOM     28  H6  5J9 d   1      -4.282 -18.542  20.834  0.00  0.00     0.112 H 
BRANCH  23  29
ATOM     29  N4T 5J9 d   1      -2.497 -19.736  16.858  0.00  0.00    -0.284 NA
ATOM     30  H4  5J9 d   1      -1.567 -19.806  17.241  0.00  0.00     0.188 HD
ENDBRANCH  23  29
ENDBRANCH  16  19
ENDBRANCH  12  16
ENDBRANCH   1  10
BRANCH   2  31
ATOM     31  O2' 5J9 d   1     -10.138 -14.088  20.779  0.00  0.00    -0.389 OA
ATOM     32  H11 5J9 d   1      -9.309 -14.340  21.169  0.00  0.00     0.210 HD
ENDBRANCH   2  31
BRANCH   3  33
ATOM     33  C5' 5J9 d   1      -8.751 -12.352  16.548  0.00  0.00     0.043 C 
ATOM     34  H13 5J9 d   1      -8.158 -12.830  15.755  0.00  0.00     0.078 H 
ATOM     35  H14 5J9 d   1      -8.600 -11.263  16.513  0.00  0.00     0.078 H 
BRANCH  33  36
ATOM     36  O5' 5J9 d   1     -10.142 -12.634  16.320  0.00  0.00    -0.398 OA
ATOM     37  H15 5J9 d   1     -10.663 -12.219  16.997  0.00  0.00     0.209 HD
ENDBRANCH  33  36
ENDBRANCH   3  33
BRANCH   5  38
ATOM     38  N9  5J9 d   1      -9.616 -10.968  20.690  0.00  0.00    -0.294 N 
ATOM     39  C4  5J9 d   1      -8.961  -9.890  21.140  0.00  0.00     0.167 A 
ATOM     40  C5  5J9 d   1      -9.844  -9.068  21.754  0.00  0.00     0.149 A 
ATOM     41  N3  5J9 d   1      -7.657  -9.571  21.038  0.00  0.00    -0.222 NA
ATOM     42  C6  5J9 d   1      -9.395  -7.904  22.300  0.00  0.00     0.155 A 
ATOM     43  N7  5J9 d   1     -11.029  -9.683  21.671  0.00  0.00    -0.236 NA
ATOM     44  N1  5J9 d   1      -8.104  -7.557  22.234  0.00  0.00    -0.222 NA
ATOM     45  C2  5J9 d   1      -7.192  -8.396  21.595  0.00  0.00     0.091 A 
ATOM     46  H17 5J9 d   1      -6.142  -8.132  21.537  0.00  0.00     0.146 H 
ATOM     47  C8  5J9 d   1     -10.891 -10.833  21.031  0.00  0.00     0.071 A 
ATOM     48  H2  5J9 d   1     -11.687 -11.546  20.820  0.00  0.00     0.144 H 
BRANCH  42  49
ATOM     49  N6  5J9 d   1     -10.220  -7.046  22.943  0.00  0.00    -0.382 N 
ATOM     50  H18 5J9 d   1      -9.845  -6.174  23.344  0.00  0.00     0.157 HD
ATOM     51  H19 5J9 d   1     -11.223  -7.264  23.032  0.00  0.00     0.157 HD
ENDBRANCH  42  49
ENDBRANCH   5  38
TORSDOF 9
