REMARK  12 active torsions:
REMARK  status: ('A' for Active; 'I' for Inactive)
REMARK    1  A    between atoms: C17_7  and  N16_23 
REMARK    2  A    between atoms: C18_24  and  C17_7 
REMARK    3  A    between atoms: C9_18  and  C26_12 
REMARK    4  A    between atoms: C11_19  and  C1_14 
REMARK    5  A    between atoms: N4_16  and  C2_15 
REMARK    6  A    between atoms: C29_29  and  N4_16 
REMARK    7  A    between atoms: N15_22  and  C25_27 
REMARK    8  A    between atoms: N19_25  and  C18_24 
REMARK    9  A    between atoms: N33_33  and  C36_36 
REMARK   10  A    between atoms: C36_36  and  C37_37 
REMARK   11  A    between atoms: C37_37  and  O38_38 
REMARK   12  A    between atoms: O38_38  and  C39_39 
ROOT
ATOM      1  C28 5JA d   1       3.968  21.328  20.574  0.00  0.00    -0.020 A 
ATOM      2  N19 5JA d   1       2.208  20.616  21.598  0.00  0.00    -0.277 N 
ATOM      3  C27 5JA d   1       3.295  21.379  21.741  0.00  0.00     0.002 A 
ATOM      4  C29 5JA d   1       3.228  20.514  19.722  0.00  0.00     0.164 A 
ATOM      5  N30 5JA d   1       2.123  20.080  20.359  0.00  0.00    -0.154 NA
ATOM      6  H13 5JA d   1       4.908  21.827  20.343  0.00  0.00     0.091 H 
ATOM      7  H23 5JA d   1       3.583  21.936  22.631  0.00  0.00     0.114 H 
ENDROOT
BRANCH   4   8
ATOM      8  N4  5JA d   1       3.491  20.135  18.430  0.00  0.00    -0.169 N 
ATOM      9  H14 5JA d   1       2.807  19.499  17.996  0.00  0.00     0.186 HD
BRANCH   8  10
ATOM     10  C2  5JA d   1       4.562  20.504  17.642  0.00  0.00     0.728 A 
ATOM     11  N3  5JA d   1       5.483  21.311  18.169  0.00  0.00    -0.061 NA
ATOM     12  C7  5JA d   1       6.521  21.649  17.399  0.00  0.00     0.098 A 
ATOM     13  C8  5JA d   1       6.613  21.172  16.088  0.00  0.00    -0.005 A 
ATOM     14  C12 5JA d   1       7.560  22.562  17.864  0.00  0.00     0.050 A 
ATOM     15  C5  5JA d   1       5.606  20.350  15.660  0.00  0.00     0.030 A 
ATOM     16  C9  5JA d   1       7.775  21.523  15.211  0.00  0.00    -0.023 C 
ATOM     17  N6  5JA d   1       4.575  19.997  16.413  0.00  0.00    -0.074 NA
ATOM     18  H1  5JA d   1       5.655  19.966  14.647  0.00  0.00     0.116 H 
ATOM     19  C10 5JA d   1       8.385  22.887  15.483  0.00  0.00    -0.015 C 
ATOM     20  H15 5JA d   1       7.406  21.521  14.175  0.00  0.00     0.047 H 
ATOM     21  C13 5JA d   1       8.435  23.189  16.939  0.00  0.00     0.070 A 
ATOM     22  H2  5JA d   1       9.408  22.906  15.080  0.00  0.00     0.043 H 
ATOM     23  H3  5JA d   1       7.779  23.655  14.981  0.00  0.00     0.043 H 
ATOM     24  N14 5JA d   1       9.248  23.967  17.484  0.00  0.00    -0.176 NA
ATOM     25  N15 5JA d   1       8.974  23.951  18.772  0.00  0.00    -0.272 N 
ATOM     26  C11 5JA d   1       7.946  23.140  19.061  0.00  0.00     0.077 A 
BRANCH  16  27
ATOM     27  C26 5JA d   1       8.893  20.496  15.323  0.00  0.00    -0.068 C 
ATOM     28  H10 5JA d   1       8.488  19.491  15.132  0.00  0.00     0.028 H 
ATOM     29  H11 5JA d   1       9.323  20.531  16.335  0.00  0.00     0.028 H 
ATOM     30  H12 5JA d   1       9.675  20.723  14.584  0.00  0.00     0.028 H 
ENDBRANCH  16  27
BRANCH  25  31
ATOM     31  C25 5JA d   1       9.775  24.769  19.667  0.00  0.00     0.003 C 
ATOM     32  H20 5JA d   1      10.537  25.309  19.086  0.00  0.00     0.059 H 
ATOM     33  H21 5JA d   1      10.268  24.125  20.410  0.00  0.00     0.059 H 
ATOM     34  H22 5JA d   1       9.126  25.492  20.183  0.00  0.00     0.059 H 
ENDBRANCH  25  31
BRANCH  26  35
ATOM     35  C1  5JA d   1       7.432  22.921  20.424  0.00  0.00    -0.007 A 
ATOM     36  C20 5JA d   1       7.720  21.757  21.116  0.00  0.00    -0.071 A 
ATOM     37  C21 5JA d   1       7.243  21.569  22.398  0.00  0.00    -0.082 A 
ATOM     38  H6  5JA d   1       8.324  20.988  20.648  0.00  0.00     0.084 H 
ATOM     39  C22 5JA d   1       6.494  22.535  23.002  0.00  0.00    -0.083 A 
ATOM     40  H7  5JA d   1       7.465  20.649  22.927  0.00  0.00     0.083 H 
ATOM     41  C23 5JA d   1       6.210  23.693  22.333  0.00  0.00    -0.082 A 
ATOM     42  H8  5JA d   1       6.125  22.385  24.010  0.00  0.00     0.083 H 
ATOM     43  C24 5JA d   1       6.678  23.895  21.055  0.00  0.00    -0.071 A 
ATOM     44  H19 5JA d   1       5.611  24.458  22.813  0.00  0.00     0.083 H 
ATOM     45  H9  5JA d   1       6.455  24.822  20.540  0.00  0.00     0.084 H 
ENDBRANCH  26  35
ENDBRANCH   8  10
ENDBRANCH   4   8
BRANCH   2  46
ATOM     46  C18 5JA d   1       1.196  20.456  22.633  0.00  0.00     0.039 C 
ATOM     47  H17 5JA d   1       1.461  21.094  23.489  0.00  0.00     0.069 H 
ATOM     48  H18 5JA d   1       0.223  20.771  22.228  0.00  0.00     0.069 H 
BRANCH  46  49
ATOM     49  C17 5JA d   1       1.091  19.098  23.084  0.00  0.00     0.100 C 
ATOM     50  H4  5JA d   1       1.090  18.428  22.212  0.00  0.00     0.078 H 
ATOM     51  H5  5JA d   1       1.954  18.864  23.725  0.00  0.00     0.078 H 
BRANCH  49  52
ATOM     52  N16 5JA d   1      -0.137  18.895  23.843  0.00  0.00    -0.066 N 
ATOM     53  C31 5JA d   1      -0.015  19.446  25.201  0.00  0.00     0.106 C 
ATOM     54  C32 5JA d   1      -1.266  19.160  26.017  0.00  0.00     0.106 C 
ATOM     55  H24 5JA d   1       0.132  20.534  25.136  0.00  0.00     0.078 H 
ATOM     56  H25 5JA d   1       0.852  18.988  25.699  0.00  0.00     0.078 H 
ATOM     57  N33 5JA d   1      -1.545  17.721  26.043  0.00  0.00    -0.066 N 
ATOM     58  H26 5JA d   1      -2.120  19.686  25.566  0.00  0.00     0.078 H 
ATOM     59  H27 5JA d   1      -1.117  19.518  27.046  0.00  0.00     0.078 H 
ATOM     60  C34 5JA d   1      -1.705  17.224  24.683  0.00  0.00     0.106 C 
ATOM     61  H28 5JA d   1      -0.745  17.261  26.449  0.00  0.00     0.280 HD
ATOM     62  C35 5JA d   1      -0.446  17.470  23.889  0.00  0.00     0.106 C 
ATOM     63  H29 5JA d   1      -2.546  17.745  24.202  0.00  0.00     0.078 H 
ATOM     64  H30 5JA d   1      -1.911  16.144  24.712  0.00  0.00     0.078 H 
ATOM     65  H31 5JA d   1       0.390  16.934  24.362  0.00  0.00     0.078 H 
ATOM     66  H32 5JA d   1      -0.587  17.098  22.864  0.00  0.00     0.078 H 
ATOM     67  H16 5JA d   1      -0.889  19.374  23.373  0.00  0.00     0.280 HD
BRANCH  57  68
ATOM     68  C36 5JA d   1      -2.708  17.392  26.874  0.00  0.00     0.103 C 
ATOM     69  H33 5JA d   1      -3.187  16.492  26.460  0.00  0.00     0.079 H 
ATOM     70  H34 5JA d   1      -3.414  18.235  26.832  0.00  0.00     0.079 H 
BRANCH  68  71
ATOM     71  C37 5JA d   1      -2.368  17.127  28.323  0.00  0.00     0.042 C 
ATOM     72  H35 5JA d   1      -3.268  17.255  28.942  0.00  0.00     0.076 H 
ATOM     73  H36 5JA d   1      -1.592  17.833  28.654  0.00  0.00     0.076 H 
BRANCH  71  74
ATOM     74  O38 5JA d   1      -1.891  15.808  28.453  0.00  0.00    -0.394 OA
BRANCH  74  75
ATOM     75  C39 5JA d   1      -2.903  14.885  28.757  0.00  0.00     0.004 C 
ATOM     76  H37 5JA d   1      -2.467  13.879  28.845  0.00  0.00     0.066 H 
ATOM     77  H38 5JA d   1      -3.656  14.890  27.956  0.00  0.00     0.066 H 
ATOM     78  H39 5JA d   1      -3.379  15.163  29.709  0.00  0.00     0.066 H 
ENDBRANCH  74  75
ENDBRANCH  71  74
ENDBRANCH  68  71
ENDBRANCH  57  68
ENDBRANCH  49  52
ENDBRANCH  46  49
ENDBRANCH   2  46
TORSDOF 12
