REMARK  4 active torsions:
REMARK  status: ('A' for Active; 'I' for Inactive)
REMARK    1  A    between atoms: S1_1  and  N1_2 
REMARK    2  A    between atoms: S1_1  and  C4_5 
REMARK    3  A    between atoms: C7_8  and  C10_11 
REMARK    4  A    between atoms: C14_15  and  N2_17 
ROOT
ATOM      1  C4  BX4 d   1      -5.045   2.276  15.910  0.00  0.00     0.079 A 
ATOM      2  C5  BX4 d   1      -3.673   2.177  15.708  0.00  0.00    -0.059 A 
ATOM      3  C6  BX4 d   1      -2.975   3.238  15.144  0.00  0.00    -0.071 A 
ATOM      4  C7  BX4 d   1      -3.648   4.399  14.783  0.00  0.00    -0.026 A 
ATOM      5  C8  BX4 d   1      -5.020   4.498  14.985  0.00  0.00    -0.071 A 
ATOM      6  C9  BX4 d   1      -5.718   3.437  15.548  0.00  0.00    -0.059 A 
ATOM      7  H3  BX4 d   1      -3.148   1.272  15.991  0.00  0.00     0.085 H 
ATOM      8  H4  BX4 d   1      -1.905   3.160  14.986  0.00  0.00     0.084 H 
ATOM      9  H5  BX4 d   1      -5.545   5.403  14.703  0.00  0.00     0.084 H 
ATOM     10  H6  BX4 d   1      -6.788   3.515  15.705  0.00  0.00     0.085 H 
ENDROOT
BRANCH   4  11
ATOM     11  C10 BX4 d   1      -2.902   5.535  14.179  0.00  0.00    -0.024 A 
ATOM     12  C11 BX4 d   1      -3.138   6.832  14.617  0.00  0.00    -0.072 A 
ATOM     13  C12 BX4 d   1      -2.440   7.894  14.054  0.00  0.00    -0.080 A 
ATOM     14  H7  BX4 d   1      -3.867   7.016  15.398  0.00  0.00     0.084 H 
ATOM     15  C13 BX4 d   1      -1.505   7.658  13.052  0.00  0.00    -0.058 A 
ATOM     16  H8  BX4 d   1      -2.624   8.906  14.396  0.00  0.00     0.083 H 
ATOM     17  C14 BX4 d   1      -1.269   6.360  12.614  0.00  0.00     0.026 A 
ATOM     18  H9  BX4 d   1      -0.960   8.486  12.613  0.00  0.00     0.086 H 
ATOM     19  C15 BX4 d   1      -1.967   5.298  13.178  0.00  0.00    -0.047 A 
ATOM     20  H10 BX4 d   1      -1.782   4.286  12.837  0.00  0.00     0.088 H 
BRANCH  17  21
ATOM     21  N2  BX4 d   1      -0.342   6.125  11.619  0.00  0.00    -0.399 N 
ATOM     22  H11 BX4 d   1       0.175   6.911  11.201  0.00  0.00     0.156 HD
ATOM     23  H12 BX4 d   1      -0.167   5.163  11.294  0.00  0.00     0.156 HD
ENDBRANCH  17  21
ENDBRANCH   4  11
BRANCH   1  24
ATOM     24  S1  BX4 d   1      -5.933   0.924  16.628  0.00  0.00     0.256 S 
ATOM     25  O2  BX4 d   1      -5.560   0.847  18.013  0.00  0.00    -0.201 OA
ATOM     26  O3  BX4 d   1      -7.319   1.089  16.290  0.00  0.00    -0.201 OA
BRANCH  24  27
ATOM     27  N1  BX4 d   1      -5.421  -0.426  15.915  0.00  0.00    -0.324 N 
ATOM     28  H1  BX4 d   1      -4.472  -0.722  16.027  0.00  0.00     0.169 HD
ATOM     29  H2  BX4 d   1      -6.052  -0.968  15.360  0.00  0.00     0.169 HD
ENDBRANCH  24  27
ENDBRANCH   1  24
TORSDOF 4
