REMARK  4 active torsions:
REMARK  status: ('A' for Active; 'I' for Inactive)
REMARK    1  A    between atoms: N_1  and  CA_2 
REMARK    2  A    between atoms: CA_2  and  C_3 
REMARK    3  A    between atoms: CA_2  and  CB_6 
REMARK    4  A    between atoms: CB_6  and  CG_7 
ROOT
ATOM      1  CB  DPN d   1      95.277 -39.907  13.855  0.00  0.00    -0.005 C 
ATOM      2  H5  DPN d   1      95.125 -39.494  12.847  0.00  0.00     0.044 H 
ATOM      3  H6  DPN d   1      95.438 -40.993  13.786  0.00  0.00     0.044 H 
ENDROOT
BRANCH   1   4
ATOM      4  CA  DPN d   1      94.028 -39.640  14.697  0.00  0.00     0.186 C 
ATOM      5  H4  DPN d   1      94.231 -38.796  15.373  0.00  0.00     0.101 H 
BRANCH   4   6
ATOM      6  N   DPN d   1      92.870 -39.295  13.826  0.00  0.00    -0.065 N 
ATOM      7  H1  DPN d   1      93.095 -38.481  13.275  0.00  0.00     0.275 HD
ATOM      8  H2  DPN d   1      92.064 -39.100  14.400  0.00  0.00     0.275 HD
ATOM      9  H3  DPN d   1      92.668 -40.070  13.214  0.00  0.00     0.275 HD
ENDBRANCH   4   6
BRANCH   4  10
ATOM     10  C   DPN d   1      93.687 -40.853  15.515  0.00  0.00     0.204 C 
ATOM     11  O   DPN d   1      92.899 -41.679  14.992  0.00  0.00    -0.646 OA
ATOM     12  OXT DPN d   1      94.173 -40.992  16.636  0.00  0.00    -0.646 OA
ENDBRANCH   4  10
ENDBRANCH   1   4
BRANCH   1  13
ATOM     13  CG  DPN d   1      96.503 -39.265  14.471  0.00  0.00    -0.056 A 
ATOM     14  CD1 DPN d   1      96.490 -37.933  14.889  0.00  0.00    -0.077 A 
ATOM     15  CE1 DPN d   1      97.622 -37.371  15.451  0.00  0.00    -0.082 A 
ATOM     16  H7  DPN d   1      95.591 -37.338  14.773  0.00  0.00     0.084 H 
ATOM     17  CZ  DPN d   1      98.788 -38.118  15.589  0.00  0.00    -0.083 A 
ATOM     18  H9  DPN d   1      97.601 -36.340  15.787  0.00  0.00     0.083 H 
ATOM     19  CE2 DPN d   1      98.811 -39.444  15.161  0.00  0.00    -0.082 A 
ATOM     20  H11 DPN d   1      99.673 -37.671  16.027  0.00  0.00     0.083 H 
ATOM     21  CD2 DPN d   1      97.667 -40.016  14.592  0.00  0.00    -0.077 A 
ATOM     22  H10 DPN d   1      99.715 -40.033  15.269  0.00  0.00     0.083 H 
ATOM     23  H8  DPN d   1      97.689 -41.043  14.246  0.00  0.00     0.084 H 
ENDBRANCH   1  13
TORSDOF 4
