REMARK  10 active torsions:
REMARK  status: ('A' for Active; 'I' for Inactive)
REMARK    1  A    between atoms: N14_1  and  C15_5 
REMARK       I    between atoms: C5_19  and  N14_1 
REMARK    2  A    between atoms: C18_2  and  C35_35 
REMARK    3  A    between atoms: C21_8  and  C22_9 
REMARK    4  A    between atoms: C1_15  and  C21_8 
REMARK    5  A    between atoms: C22_9  and  C23_10 
REMARK    6  A    between atoms: C24_11  and  N30_30 
REMARK       I    between atoms: N2_16  and  C1_15 
REMARK    7  A    between atoms: C4_18  and  N2_16 
REMARK    8  A    between atoms: C4_18  and  C5_19 
REMARK    9  A    between atoms: C6_20  and  C4_18 
REMARK   10  A    between atoms: C6_20  and  C7_21 
ROOT
ATOM      1  C4  5JM d   1      39.882 -20.910  28.865  0.00  0.00     0.093 C 
ATOM      2  H13 5JM d   1      39.657 -21.212  29.898  0.00  0.00     0.088 H 
ENDROOT
BRANCH   1   3
ATOM      3  N2  5JM d   1      39.131 -19.699  28.592  0.00  0.00    -0.347 N 
ATOM      4  C1  5JM d   1      39.115 -18.693  29.490  0.00  0.00     0.218 C 
ATOM      5  O3  5JM d   1      39.746 -18.804  30.547  0.00  0.00    -0.274 OA
ATOM      6  H12 5JM d   1      38.623 -19.610  27.735  0.00  0.00     0.163 HD
BRANCH   4   7
ATOM      7  C21 5JM d   1      38.040 -17.689  29.321  0.00  0.00     0.013 C 
ATOM      8  H6  5JM d   1      37.092 -18.247  29.295  0.00  0.00     0.047 H 
ATOM      9  H7  5JM d   1      38.065 -17.050  30.216  0.00  0.00     0.047 H 
BRANCH   7  10
ATOM     10  C22 5JM d   1      38.028 -16.877  28.279  0.00  0.00    -0.031 C 
ATOM     11  H8  5JM d   1      37.958 -17.543  27.406  0.00  0.00     0.040 H 
ATOM     12  H9  5JM d   1      39.015 -16.391  28.292  0.00  0.00     0.040 H 
BRANCH  10  13
ATOM     13  C23 5JM d   1      37.077 -15.786  27.995  0.00  0.00    -0.027 A 
ATOM     14  C24 5JM d   1      37.489 -14.790  27.094  0.00  0.00     0.067 A 
ATOM     15  C25 5JM d   1      36.787 -13.583  27.024  0.00  0.00    -0.053 A 
ATOM     16  C26 5JM d   1      35.643 -13.384  27.789  0.00  0.00    -0.060 A 
ATOM     17  H19 5JM d   1      37.138 -12.795  26.367  0.00  0.00     0.087 H 
ATOM     18  C27 5JM d   1      35.212 -14.391  28.636  0.00  0.00     0.034 A 
ATOM     19  H20 5JM d   1      35.095 -12.451  27.723  0.00  0.00     0.086 H 
ATOM     20  C28 5JM d   1      35.902 -15.591  28.742  0.00  0.00    -0.054 A 
ATOM     21 CL2  5JM d   1      33.799 -14.124  29.626  0.00  0.00    -0.084 Cl
ATOM     22  H21 5JM d   1      35.537 -16.373  29.397  0.00  0.00     0.087 H 
BRANCH  14  23
ATOM     23  N30 5JM d   1      38.557 -15.019  26.176  0.00  0.00    -0.206 N 
ATOM     24  C31 5JM d   1      38.662 -14.992  24.833  0.00  0.00     0.113 A 
ATOM     25  N32 5JM d   1      39.872 -15.298  24.458  0.00  0.00    -0.122 NA
ATOM     26  H22 5JM d   1      37.847 -14.748  24.154  0.00  0.00     0.149 H 
ATOM     27  N33 5JM d   1      40.554 -15.538  25.602  0.00  0.00    -0.023 NA
ATOM     28  N34 5JM d   1      39.790 -15.371  26.633  0.00  0.00    -0.040 NA
ENDBRANCH  14  23
ENDBRANCH  10  13
ENDBRANCH   7  10
ENDBRANCH   4   7
ENDBRANCH   1   3
BRANCH   1  29
ATOM     29  C5  5JM d   1      41.380 -20.665  28.760  0.00  0.00     0.245 C 
ATOM     30  N14 5JM d   1      42.108 -21.108  29.813  0.00  0.00    -0.325 N 
ATOM     31  H1  5JM d   1      41.581 -21.512  30.561  0.00  0.00     0.169 HD
ATOM     32  O13 5JM d   1      41.849 -20.167  27.741  0.00  0.00    -0.271 OA
BRANCH  30  33
ATOM     33  C15 5JM d   1      43.515 -21.078  30.003  0.00  0.00     0.034 A 
ATOM     34  C16 5JM d   1      44.389 -20.517  29.076  0.00  0.00    -0.056 A 
ATOM     35  C17 5JM d   1      45.753 -20.518  29.311  0.00  0.00    -0.064 A 
ATOM     36  H3  5JM d   1      43.999 -20.077  28.165  0.00  0.00     0.086 H 
ATOM     37  C18 5JM d   1      46.281 -21.115  30.452  0.00  0.00     0.041 A 
ATOM     38  H2  5JM d   1      46.419 -20.047  28.597  0.00  0.00     0.085 H 
ATOM     39  C19 5JM d   1      45.400 -21.666  31.382  0.00  0.00    -0.064 A 
ATOM     40  C20 5JM d   1      44.032 -21.646  31.163  0.00  0.00    -0.056 A 
ATOM     41  H4  5JM d   1      45.790 -22.116  32.288  0.00  0.00     0.085 H 
ATOM     42  H5  5JM d   1      43.361 -22.075  31.899  0.00  0.00     0.086 H 
BRANCH  37  43
ATOM     43  C35 5JM d   1      47.759 -21.122  30.681  0.00  0.00     0.209 C 
ATOM     44  O36 5JM d   1      48.519 -20.424  30.007  0.00  0.00    -0.644 OA
ATOM     45  O37 5JM d   1      48.157 -21.803  31.718  0.00  0.00    -0.644 OA
ENDBRANCH  37  43
ENDBRANCH  30  33
ENDBRANCH   1  29
BRANCH   1  46
ATOM     46  C6  5JM d   1      39.488 -22.073  27.938  0.00  0.00    -0.014 C 
ATOM     47  H14 5JM d   1      39.789 -21.825  26.910  0.00  0.00     0.043 H 
ATOM     48  H15 5JM d   1      38.397 -22.205  27.979  0.00  0.00     0.043 H 
BRANCH  46  49
ATOM     49  C7  5JM d   1      40.153 -23.372  28.341  0.00  0.00    -0.056 A 
ATOM     50  C12 5JM d   1      41.174 -23.913  27.569  0.00  0.00    -0.077 A 
ATOM     51  C11 5JM d   1      41.933 -24.978  28.039  0.00  0.00    -0.082 A 
ATOM     52  H11 5JM d   1      41.381 -23.499  26.589  0.00  0.00     0.084 H 
ATOM     53  C10 5JM d   1      41.673 -25.520  29.283  0.00  0.00    -0.083 A 
ATOM     54  H10 5JM d   1      42.731 -25.384  27.428  0.00  0.00     0.083 H 
ATOM     55  C9  5JM d   1      40.647 -25.008  30.048  0.00  0.00    -0.082 A 
ATOM     56  H18 5JM d   1      42.272 -26.343  29.655  0.00  0.00     0.083 H 
ATOM     57  C8  5JM d   1      39.884 -23.953  29.575  0.00  0.00    -0.077 A 
ATOM     58  H17 5JM d   1      40.437 -25.432  31.023  0.00  0.00     0.083 H 
ATOM     59  H16 5JM d   1      39.065 -23.575  30.176  0.00  0.00     0.084 H 
ENDBRANCH  46  49
ENDBRANCH   1  46
TORSDOF 10
