REMARK  10 active torsions:
REMARK  status: ('A' for Active; 'I' for Inactive)
REMARK    1  A    between atoms: C20_1  and  C21_3 
REMARK       I    between atoms: N19_15  and  C20_1 
REMARK    2  A    between atoms: C31_9  and  O40_14 
REMARK    3  A    between atoms: C17_16  and  N19_15 
REMARK    4  A    between atoms: C16_17  and  C17_16 
REMARK    5  A    between atoms: C17_16  and  C18_19 
REMARK       I    between atoms: N15_40  and  C16_17 
REMARK    6  A    between atoms: C18_19  and  C33_20 
REMARK    7  A    between atoms: C13_38  and  C5_30 
REMARK    8  A    between atoms: C6_31  and  N8_33 
REMARK    9  A    between atoms: C14_39  and  C13_38 
REMARK   10  A    between atoms: C14_39  and  N15_40 
ROOT
ATOM      1  C17 7P0 d   1      40.569 -20.730  28.910  0.00  0.00     0.093 C 
ATOM      2  H8  7P0 d   1      40.924 -20.581  27.880  0.00  0.00     0.088 H 
ENDROOT
BRANCH   1   3
ATOM      3  N19 7P0 d   1      41.714 -20.959  29.774  0.00  0.00    -0.343 N 
ATOM      4  C20 7P0 d   1      42.985 -20.983  29.314  0.00  0.00     0.252 C 
ATOM      5  O22 7P0 d   1      43.265 -20.755  28.140  0.00  0.00    -0.268 OA
ATOM      6  H7  7P0 d   1      41.555 -21.105  30.750  0.00  0.00     0.163 HD
BRANCH   4   7
ATOM      7  C21 7P0 d   1      44.060 -21.323  30.296  0.00  0.00     0.033 A 
ATOM      8  C23 7P0 d   1      43.776 -22.027  31.469  0.00  0.00    -0.066 A 
ATOM      9  C24 7P0 d   1      44.779 -22.337  32.370  0.00  0.00    -0.055 A 
ATOM     10  H1  7P0 d   1      42.757 -22.334  31.676  0.00  0.00     0.085 H 
ATOM     11  C27 7P0 d   1      46.108 -21.996  32.096  0.00  0.00     0.048 A 
ATOM     12  H2  7P0 d   1      44.534 -22.847  33.294  0.00  0.00     0.087 H 
ATOM     13  C26 7P0 d   1      46.418 -21.319  30.897  0.00  0.00     0.025 A 
ATOM     14  N28 7P0 d   1      47.134 -22.364  32.975  0.00  0.00    -0.323 N 
ATOM     15  C25 7P0 d   1      45.379 -20.966  30.019  0.00  0.00    -0.053 A 
ATOM     16  C31 7P0 d   1      47.827 -21.091  30.640  0.00  0.00     0.083 A 
ATOM     17  H3  7P0 d   1      45.606 -20.410  29.116  0.00  0.00     0.086 H 
ATOM     18  C30 7P0 d   1      48.777 -21.484  31.527  0.00  0.00     0.015 A 
ATOM     19  C29 7P0 d   1      48.463 -22.127  32.763  0.00  0.00     0.248 A 
ATOM     20  H4  7P0 d   1      49.823 -21.301  31.286  0.00  0.00     0.096 H 
ATOM     21  O32 7P0 d   1      49.295 -22.407  33.634  0.00  0.00    -0.268 OA
ATOM     22  H5  7P0 d   1      46.876 -22.834  33.819  0.00  0.00     0.169 HD
BRANCH  16  23
ATOM     23  O40 7P0 d   1      48.103 -20.509  29.500  0.00  0.00    -0.360 OA
ATOM     24  H6  7P0 d   1      48.571 -19.699  29.665  0.00  0.00     0.217 HD
ENDBRANCH  16  23
ENDBRANCH   4   7
ENDBRANCH   1   3
BRANCH   1  25
ATOM     25  C16 7P0 d   1      39.859 -19.474  29.389  0.00  0.00     0.240 C 
ATOM     26  O39 7P0 d   1      39.961 -19.112  30.560  0.00  0.00    -0.271 OA
ATOM     27  N15 7P0 d   1      39.105 -18.846  28.492  0.00  0.00    -0.359 N 
ATOM     28  H24 7P0 d   1      39.042 -19.222  27.568  0.00  0.00     0.162 HD
BRANCH  27  29
ATOM     29  C14 7P0 d   1      38.368 -17.632  28.805  0.00  0.00    -0.001 C 
ATOM     30  H22 7P0 d   1      37.932 -17.729  29.810  0.00  0.00     0.064 H 
ATOM     31  H23 7P0 d   1      39.063 -16.779  28.788  0.00  0.00     0.064 H 
BRANCH  29  32
ATOM     32  C13 7P0 d   1      37.265 -17.380  27.819  0.00  0.00    -0.024 C 
ATOM     33  H20 7P0 d   1      37.647 -17.538  26.800  0.00  0.00     0.042 H 
ATOM     34  H21 7P0 d   1      36.439 -18.080  28.013  0.00  0.00     0.042 H 
BRANCH  32  35
ATOM     35  C5  7P0 d   1      36.758 -15.967  27.945  0.00  0.00    -0.026 A 
ATOM     36  C4  7P0 d   1      35.665 -15.732  28.774  0.00  0.00    -0.054 A 
ATOM     37  C3  7P0 d   1      35.099 -14.475  28.825  0.00  0.00     0.034 A 
ATOM     38  H18 7P0 d   1      35.259 -16.535  29.378  0.00  0.00     0.087 H 
ATOM     39  C2  7P0 d   1      35.607 -13.426  28.088  0.00  0.00    -0.060 A 
ATOM     40 CL7  7P0 d   1      33.702 -14.210  29.848  0.00  0.00    -0.084 Cl
ATOM     41  C1  7P0 d   1      36.723 -13.635  27.290  0.00  0.00    -0.053 A 
ATOM     42  H17 7P0 d   1      35.140 -12.449  28.131  0.00  0.00     0.086 H 
ATOM     43  C6  7P0 d   1      37.295 -14.903  27.208  0.00  0.00     0.067 A 
ATOM     44  H16 7P0 d   1      37.150 -12.811  26.730  0.00  0.00     0.087 H 
BRANCH  43  45
ATOM     45  N8  7P0 d   1      38.403 -15.109  26.331  0.00  0.00    -0.206 N 
ATOM     46  C9  7P0 d   1      38.496 -15.164  24.993  0.00  0.00     0.113 A 
ATOM     47  N10 7P0 d   1      39.729 -15.417  24.651  0.00  0.00    -0.122 NA
ATOM     48  H19 7P0 d   1      37.669 -15.020  24.299  0.00  0.00     0.149 H 
ATOM     49  N11 7P0 d   1      40.421 -15.517  25.814  0.00  0.00    -0.023 NA
ATOM     50  N12 7P0 d   1      39.642 -15.333  26.833  0.00  0.00    -0.040 NA
ENDBRANCH  43  45
ENDBRANCH  32  35
ENDBRANCH  29  32
ENDBRANCH  27  29
ENDBRANCH   1  25
BRANCH   1  51
ATOM     51  C18 7P0 d   1      39.578 -21.910  28.925  0.00  0.00    -0.014 C 
ATOM     52  H9  7P0 d   1      38.933 -21.831  28.038  0.00  0.00     0.043 H 
ATOM     53  H10 7P0 d   1      38.963 -21.834  29.834  0.00  0.00     0.043 H 
BRANCH  51  54
ATOM     54  C33 7P0 d   1      40.240 -23.266  28.912  0.00  0.00    -0.056 A 
ATOM     55  C34 7P0 d   1      40.178 -24.090  30.027  0.00  0.00    -0.077 A 
ATOM     56  C35 7P0 d   1      40.956 -25.230  30.112  0.00  0.00    -0.082 A 
ATOM     57  H11 7P0 d   1      39.510 -23.836  30.843  0.00  0.00     0.084 H 
ATOM     58  C36 7P0 d   1      41.783 -25.586  29.063  0.00  0.00    -0.083 A 
ATOM     59  H13 7P0 d   1      40.917 -25.846  31.003  0.00  0.00     0.083 H 
ATOM     60  C37 7P0 d   1      41.809 -24.804  27.920  0.00  0.00    -0.082 A 
ATOM     61  H15 7P0 d   1      42.406 -26.470  29.134  0.00  0.00     0.083 H 
ATOM     62  C38 7P0 d   1      41.039 -23.654  27.845  0.00  0.00    -0.077 A 
ATOM     63  H14 7P0 d   1      42.433 -25.092  27.082  0.00  0.00     0.083 H 
ATOM     64  H12 7P0 d   1      41.061 -23.052  26.944  0.00  0.00     0.084 H 
ENDBRANCH  51  54
ENDBRANCH   1  51
TORSDOF 10
