REMARK  6 active torsions:
REMARK  status: ('A' for Active; 'I' for Inactive)
REMARK    1  A    between atoms: C1_3  and  N1_4 
REMARK    2  A    between atoms: C4_7  and  C7_8 
REMARK    3  A    between atoms: C7_8  and  C16_10 
REMARK    4  A    between atoms: C19_15  and  C10_16 
REMARK    5  A    between atoms: C13_19  and  S2_24 
REMARK    6  A    between atoms: S2_24  and  N2_25 
ROOT
ATOM      1  C16 520 d   1      -2.149   7.924  13.072  0.00  0.00     0.015 A 
ATOM      2  C17 520 d   1      -1.903   6.672  12.520  0.00  0.00    -0.068 A 
ATOM      3  C18 520 d   1      -2.488   5.538  13.074  0.00  0.00    -0.071 A 
ATOM      4  C15 520 d   1      -2.973   8.044  14.184  0.00  0.00    -0.068 A 
ATOM      5  C14 520 d   1      -3.558   6.911  14.738  0.00  0.00    -0.071 A 
ATOM      6  C19 520 d   1      -3.319   5.659  14.181  0.00  0.00    -0.026 A 
ATOM      7  H7  520 d   1      -1.254   6.579  11.656  0.00  0.00     0.085 H 
ATOM      8  H8  520 d   1      -2.296   4.562  12.643  0.00  0.00     0.084 H 
ATOM      9  H9  520 d   1      -3.159   9.019  14.619  0.00  0.00     0.085 H 
ATOM     10  H10 520 d   1      -4.201   7.003  15.605  0.00  0.00     0.084 H 
ENDROOT
BRANCH   6  11
ATOM     11  C10 520 d   1      -3.937   4.538  14.724  0.00  0.00    -0.026 A 
ATOM     12  C9  520 d   1      -3.190   3.407  15.034  0.00  0.00    -0.071 A 
ATOM     13  C8  520 d   1      -3.805   2.313  15.634  0.00  0.00    -0.059 A 
ATOM     14  H11 520 d   1      -2.130   3.378  14.809  0.00  0.00     0.084 H 
ATOM     15  C13 520 d   1      -5.164   2.348  15.923  0.00  0.00     0.079 A 
ATOM     16  H12 520 d   1      -3.223   1.431  15.877  0.00  0.00     0.085 H 
ATOM     17  C12 520 d   1      -5.914   3.475  15.604  0.00  0.00    -0.059 A 
ATOM     18  C11 520 d   1      -5.299   4.569  15.004  0.00  0.00    -0.071 A 
ATOM     19  H13 520 d   1      -6.976   3.501  15.822  0.00  0.00     0.085 H 
ATOM     20  H14 520 d   1      -5.883   5.448  14.754  0.00  0.00     0.084 H 
BRANCH  15  21
ATOM     21  S2  520 d   1      -5.922   0.991  16.749  0.00  0.00     0.256 S 
ATOM     22  O3  520 d   1      -5.433   1.042  18.098  0.00  0.00    -0.201 OA
ATOM     23  O2  520 d   1      -7.340   1.100  16.557  0.00  0.00    -0.201 OA
BRANCH  21  24
ATOM     24  N2  520 d   1      -5.403  -0.342  16.054  0.00  0.00    -0.324 N 
ATOM     25  H15 520 d   1      -5.720  -1.232  16.381  0.00  0.00     0.169 HD
ATOM     26  H16 520 d   1      -4.760  -0.290  15.290  0.00  0.00     0.169 HD
ENDBRANCH  21  24
ENDBRANCH  15  21
ENDBRANCH   6  11
BRANCH   1  27
ATOM     27  C7  520 d   1      -1.574   9.147  12.433  0.00  0.00     0.192 C 
ATOM     28  O1  520 d   1      -1.504   9.228  11.215  0.00  0.00    -0.287 OA
BRANCH  27  29
ATOM     29  C4  520 d   1      -1.100  10.272  13.293  0.00  0.00     0.015 A 
ATOM     30  C3  520 d   1      -0.281  10.019  14.388  0.00  0.00    -0.067 A 
ATOM     31  C2  520 d   1       0.165  11.071  15.181  0.00  0.00    -0.057 A 
ATOM     32  H1  520 d   1       0.010   9.002  14.624  0.00  0.00     0.085 H 
ATOM     33  C1  520 d   1      -0.207  12.377  14.879  0.00  0.00     0.025 A 
ATOM     34  H2  520 d   1       0.803  10.873  16.035  0.00  0.00     0.086 H 
ATOM     35  C6  520 d   1      -1.027  12.629  13.784  0.00  0.00    -0.057 A 
ATOM     36  C5  520 d   1      -1.473  11.578  12.992  0.00  0.00    -0.067 A 
ATOM     37  H5  520 d   1      -1.318  13.646  13.548  0.00  0.00     0.086 H 
ATOM     38  H6  520 d   1      -2.112  11.776  12.139  0.00  0.00     0.085 H 
BRANCH  33  39
ATOM     39  N1  520 d   1       0.227  13.410  15.658  0.00  0.00    -0.399 N 
ATOM     40  H3  520 d   1      -0.050  14.376  15.433  0.00  0.00     0.156 HD
ATOM     41  H4  520 d   1       0.831  13.223  16.471  0.00  0.00     0.156 HD
ENDBRANCH  33  39
ENDBRANCH  27  29
ENDBRANCH   1  27
TORSDOF 6
