REMARK  6 active torsions:
REMARK  status: ('A' for Active; 'I' for Inactive)
REMARK    1  A    between atoms: S1_1  and  N1_2 
REMARK    2  A    between atoms: S1_1  and  C4_5 
REMARK    3  A    between atoms: C7_8  and  C10_11 
REMARK    4  A    between atoms: C15_16  and  C16_17 
REMARK    5  A    between atoms: C16_17  and  C17_18 
REMARK    6  A    between atoms: C16_17  and  C18_19 
ROOT
ATOM      1  C10 5CX d   1      -4.916   5.588  13.225  0.00  0.00    -0.019 A 
ATOM      2  C11 5CX d   1      -6.018   5.888  12.414  0.00  0.00    -0.072 A 
ATOM      3  C12 5CX d   1      -6.012   6.899  11.484  0.00  0.00    -0.082 A 
ATOM      4  C13 5CX d   1      -4.827   7.605  11.331  0.00  0.00    -0.082 A 
ATOM      5  C14 5CX d   1      -3.718   7.312  12.127  0.00  0.00    -0.076 A 
ATOM      6  C15 5CX d   1      -3.763   6.297  13.073  0.00  0.00    -0.044 A 
ATOM      7  H7  5CX d   1      -6.918   5.294  12.525  0.00  0.00     0.084 H 
ATOM      8  H8  5CX d   1      -6.892   7.135  10.897  0.00  0.00     0.083 H 
ATOM      9  H9  5CX d   1      -4.762   8.391  10.587  0.00  0.00     0.083 H 
ATOM     10  H10 5CX d   1      -2.807   7.886  12.004  0.00  0.00     0.084 H 
ENDROOT
BRANCH   1  11
ATOM     11  C7  5CX d   1      -5.089   4.446  14.157  0.00  0.00    -0.025 A 
ATOM     12  C6  5CX d   1      -4.238   3.341  14.104  0.00  0.00    -0.071 A 
ATOM     13  C5  5CX d   1      -4.471   2.253  14.938  0.00  0.00    -0.059 A 
ATOM     14  H4  5CX d   1      -3.400   3.331  13.416  0.00  0.00     0.084 H 
ATOM     15  C4  5CX d   1      -5.560   2.252  15.768  0.00  0.00     0.079 A 
ATOM     16  H3  5CX d   1      -3.792   1.408  14.931  0.00  0.00     0.085 H 
ATOM     17  C9  5CX d   1      -6.403   3.338  15.814  0.00  0.00    -0.059 A 
ATOM     18  C8  5CX d   1      -6.178   4.409  14.985  0.00  0.00    -0.071 A 
ATOM     19  H6  5CX d   1      -7.241   3.348  16.502  0.00  0.00     0.085 H 
ATOM     20  H5  5CX d   1      -6.875   5.239  14.986  0.00  0.00     0.084 H 
BRANCH  15  21
ATOM     21  S1  5CX d   1      -5.915   0.895  16.826  0.00  0.00     0.256 S 
ATOM     22  O2  5CX d   1      -7.327   0.882  16.770  0.00  0.00    -0.201 OA
ATOM     23  O3  5CX d   1      -5.356   1.033  18.038  0.00  0.00    -0.201 OA
BRANCH  21  24
ATOM     24  N1  5CX d   1      -5.192  -0.439  16.170  0.00  0.00    -0.324 N 
ATOM     25  H1  5CX d   1      -5.449  -0.747  15.254  0.00  0.00     0.169 HD
ATOM     26  H2  5CX d   1      -4.498  -0.938  16.689  0.00  0.00     0.169 HD
ENDBRANCH  21  24
ENDBRANCH  15  21
ENDBRANCH   1  11
BRANCH   6  27
ATOM     27  C16 5CX d   1      -2.589   5.995  13.921  0.00  0.00    -0.035 C 
ATOM     28  H11 5CX d   1      -2.841   5.276  14.715  0.00  0.00     0.046 H 
BRANCH  27  29
ATOM     29  C17 5CX d   1      -1.543   5.444  12.975  0.00  0.00    -0.069 C 
ATOM     30  H12 5CX d   1      -0.633   5.194  13.540  0.00  0.00     0.028 H 
ATOM     31  H13 5CX d   1      -1.305   6.199  12.211  0.00  0.00     0.028 H 
ATOM     32  H14 5CX d   1      -1.931   4.538  12.486  0.00  0.00     0.028 H 
ENDBRANCH  27  29
BRANCH  27  33
ATOM     33  C18 5CX d   1      -2.040   7.290  14.512  0.00  0.00    -0.069 C 
ATOM     34  H15 5CX d   1      -2.778   7.718  15.206  0.00  0.00     0.028 H 
ATOM     35  H16 5CX d   1      -1.840   8.007  13.702  0.00  0.00     0.028 H 
ATOM     36  H17 5CX d   1      -1.106   7.079  15.054  0.00  0.00     0.028 H 
ENDBRANCH  27  33
ENDBRANCH   6  27
TORSDOF 6
