REMARK  19 active torsions:
REMARK  status: ('A' for Active; 'I' for Inactive)
REMARK    1  A    between atoms: N_1  and  CA_2 
REMARK    2  A    between atoms: CA_2  and  C_3 
REMARK    3  A    between atoms: CA_2  and  CB_5 
REMARK       I    between atoms: C_3  and  N_13 
REMARK    4  A    between atoms: CB_5  and  CG_6 
REMARK    5  A    between atoms: CZ_11  and  OH_12 
REMARK    6  A    between atoms: N_13  and  CA_14 
REMARK    7  A    between atoms: CA_14  and  C_15 
REMARK       I    between atoms: C_15  and  N_17 
REMARK    8  A    between atoms: N_17  and  CA_18 
REMARK    9  A    between atoms: CA_18  and  C_19 
REMARK       I    between atoms: C_19  and  N_21 
REMARK   10  A    between atoms: N_21  and  CA_22 
REMARK   11  A    between atoms: CA_22  and  C_23 
REMARK   12  A    between atoms: CA_22  and  CB_25 
REMARK       I    between atoms: C_23  and  N_32 
REMARK   13  A    between atoms: CB_25  and  CG_26 
REMARK   14  A    between atoms: N_32  and  CA_33 
REMARK   15  A    between atoms: CA_33  and  C_34 
REMARK   16  A    between atoms: CA_33  and  CB_36 
REMARK   17  A    between atoms: CB_36  and  CG_37 
REMARK   18  A    between atoms: CG_37  and  CD1_38 
REMARK   19  A    between atoms: CG_37  and  CD2_39 
ROOT
ATOM      1  C   GLY d   1     134.437 -22.430  84.289  0.00  0.00     0.236 C 
ATOM      2  O   GLY d   1     133.321 -21.928  84.422  0.00  0.00    -0.272 OA
ATOM      3  N   PHE d   1     134.870 -22.938  83.141  0.00  0.00    -0.346 N 
ATOM      4  H18 PHE d   1     135.798 -23.306  83.089  0.00  0.00     0.163 HD
ENDROOT
BRANCH   3   5
ATOM      5  CA  PHE d   1     134.025 -22.972  81.957  0.00  0.00     0.093 C 
ATOM      6  H19 PHE d   1     133.202 -22.256  82.094  0.00  0.00     0.088 H 
BRANCH   5   7
ATOM      7  C   PHE d   1     133.430 -24.365  81.787  0.00  0.00     0.241 C 
ATOM      8  O   PHE d   1     133.936 -25.331  82.361  0.00  0.00    -0.271 OA
ATOM      9  N   LEU d   1     132.358 -24.451  80.999  0.00  0.00    -0.345 N 
ATOM     10  H27 LEU d   1     132.072 -23.634  80.498  0.00  0.00     0.163 HD
BRANCH   9  11
ATOM     11  CA  LEU d   1     131.577 -25.677  80.828  0.00  0.00     0.096 C 
ATOM     12  H28 LEU d   1     130.753 -25.463  80.131  0.00  0.00     0.089 H 
BRANCH  11  13
ATOM     13  C   LEU d   1     130.970 -26.117  82.160  0.00  0.00     0.196 C 
ATOM     14  O   LEU d   1     129.777 -25.933  82.397  0.00  0.00    -0.646 OA
ATOM     15  OXT LEU d   1     131.647 -26.660  83.033  0.00  0.00    -0.646 OA
ENDBRANCH  11  13
BRANCH  11  16
ATOM     16  CB  LEU d   1     132.435 -26.797  80.220  0.00  0.00    -0.034 C 
ATOM     17  H29 LEU d   1     133.193 -27.064  80.972  0.00  0.00     0.037 H 
ATOM     18  H30 LEU d   1     132.931 -26.375  79.333  0.00  0.00     0.037 H 
BRANCH  16  19
ATOM     19  CG  LEU d   1     131.765 -28.103  79.778  0.00  0.00    -0.059 C 
ATOM     20  H31 LEU d   1     130.741 -27.869  79.452  0.00  0.00     0.038 H 
BRANCH  19  21
ATOM     21  CD1 LEU d   1     132.522 -28.701  78.602  0.00  0.00    -0.073 C 
ATOM     22  H32 LEU d   1     132.036 -29.637  78.291  0.00  0.00     0.028 H 
ATOM     23  H33 LEU d   1     133.560 -28.909  78.901  0.00  0.00     0.028 H 
ATOM     24  H34 LEU d   1     132.518 -27.989  77.763  0.00  0.00     0.028 H 
ENDBRANCH  19  21
BRANCH  19  25
ATOM     25  CD2 LEU d   1     131.680 -29.117  80.915  0.00  0.00    -0.073 C 
ATOM     26  H35 LEU d   1     131.131 -28.675  81.760  0.00  0.00     0.028 H 
ATOM     27  H36 LEU d   1     132.695 -29.390  81.240  0.00  0.00     0.028 H 
ATOM     28  H37 LEU d   1     131.152 -30.017  80.565  0.00  0.00     0.028 H 
ENDBRANCH  19  25
ENDBRANCH  16  19
ENDBRANCH  11  16
ENDBRANCH   9  11
ENDBRANCH   5   7
BRANCH   5  29
ATOM     29  CB  PHE d   1     134.820 -22.560  80.717  0.00  0.00    -0.014 C 
ATOM     30  H20 PHE d   1     134.152 -22.608  79.844  0.00  0.00     0.043 H 
ATOM     31  H21 PHE d   1     135.649 -23.271  80.584  0.00  0.00     0.043 H 
BRANCH  29  32
ATOM     32  CG  PHE d   1     135.393 -21.172  80.801  0.00  0.00    -0.056 A 
ATOM     33  CD1 PHE d   1     134.662 -20.079  80.365  0.00  0.00    -0.077 A 
ATOM     34  CE1 PHE d   1     135.184 -18.800  80.446  0.00  0.00    -0.082 A 
ATOM     35  H22 PHE d   1     133.669 -20.227  79.956  0.00  0.00     0.084 H 
ATOM     36  CZ  PHE d   1     136.447 -18.603  80.969  0.00  0.00    -0.083 A 
ATOM     37  H24 PHE d   1     134.602 -17.954  80.099  0.00  0.00     0.083 H 
ATOM     38  CE2 PHE d   1     137.185 -19.685  81.410  0.00  0.00    -0.082 A 
ATOM     39  H26 PHE d   1     136.858 -17.602  81.033  0.00  0.00     0.083 H 
ATOM     40  CD2 PHE d   1     136.657 -20.960  81.326  0.00  0.00    -0.077 A 
ATOM     41  H25 PHE d   1     138.177 -19.534  81.821  0.00  0.00     0.083 H 
ATOM     42  H23 PHE d   1     137.240 -21.805  81.675  0.00  0.00     0.084 H 
ENDBRANCH  29  32
ENDBRANCH   5  29
ENDBRANCH   3   5
BRANCH   1  43
ATOM     43  CA  GLY d   1     135.407 -22.492  85.452  0.00  0.00     0.069 C 
ATOM     44  H16 GLY d   1     134.886 -22.908  86.327  0.00  0.00     0.078 H 
ATOM     45  H17 GLY d   1     136.246 -23.148  85.179  0.00  0.00     0.078 H 
BRANCH  43  46
ATOM     46  N   GLY d   1     135.929 -21.184  85.797  0.00  0.00    -0.351 N 
ATOM     47  C   GLY d   1     137.233 -20.931  85.797  0.00  0.00     0.235 C 
ATOM     48  O   GLY d   1     138.081 -21.781  85.523  0.00  0.00    -0.272 OA
ATOM     49  H15 GLY d   1     135.291 -20.454  86.041  0.00  0.00     0.163 HD
BRANCH  47  50
ATOM     50  CA  GLY d   1     137.638 -19.517  86.162  0.00  0.00     0.069 C 
ATOM     51  H13 GLY d   1     137.654 -18.905  85.248  0.00  0.00     0.078 H 
ATOM     52  H14 GLY d   1     136.899 -19.106  86.866  0.00  0.00     0.078 H 
BRANCH  50  53
ATOM     53  N   GLY d   1     138.950 -19.470  86.780  0.00  0.00    -0.351 N 
ATOM     54  C   TYR d   1     139.098 -19.280  88.086  0.00  0.00     0.248 C 
ATOM     55  O   TYR d   1     138.150 -19.112  88.852  0.00  0.00    -0.271 OA
ATOM     56  H12 GLY d   1     139.763 -19.584  86.209  0.00  0.00     0.163 HD
BRANCH  54  57
ATOM     57  CA  TYR d   1     140.529 -19.272  88.605  0.00  0.00     0.179 C 
ATOM     58  H4  TYR d   1     141.209 -19.375  87.746  0.00  0.00     0.099 H 
BRANCH  57  59
ATOM     59  N   TYR d   1     140.835 -18.017  89.282  0.00  0.00    -0.066 N 
ATOM     60  H1  TYR d   1     141.786 -18.038  89.615  0.00  0.00     0.275 HD
ATOM     61  H2  TYR d   1     140.208 -17.895  90.062  0.00  0.00     0.275 HD
ATOM     62  H3  TYR d   1     140.722 -17.251  88.637  0.00  0.00     0.275 HD
ENDBRANCH  57  59
BRANCH  57  63
ATOM     63  CB  TYR d   1     140.755 -20.456  89.546  0.00  0.00    -0.006 C 
ATOM     64  H5  TYR d   1     140.408 -21.371  89.043  0.00  0.00     0.043 H 
ATOM     65  H6  TYR d   1     140.164 -20.292  90.459  0.00  0.00     0.043 H 
BRANCH  63  66
ATOM     66  CG  TYR d   1     142.199 -20.648  89.941  0.00  0.00    -0.056 A 
ATOM     67  CD1 TYR d   1     143.220 -20.462  89.019  0.00  0.00    -0.074 A 
ATOM     68  CE1 TYR d   1     144.544 -20.634  89.375  0.00  0.00    -0.051 A 
ATOM     69  H7  TYR d   1     142.974 -20.177  88.002  0.00  0.00     0.084 H 
ATOM     70  CZ  TYR d   1     144.860 -20.991  90.668  0.00  0.00     0.065 A 
ATOM     71  H9  TYR d   1     145.329 -20.489  88.642  0.00  0.00     0.087 H 
ATOM     72  CE2 TYR d   1     143.864 -21.178  91.603  0.00  0.00    -0.051 A 
ATOM     73  CD2 TYR d   1     142.544 -21.004  91.238  0.00  0.00    -0.074 A 
ATOM     74  H10 TYR d   1     144.116 -21.460  92.619  0.00  0.00     0.087 H 
ATOM     75  H8  TYR d   1     141.764 -21.148  91.977  0.00  0.00     0.084 H 
BRANCH  70  76
ATOM     76  OH  TYR d   1     146.177 -21.162  91.028  0.00  0.00    -0.361 OA
ATOM     77  H11 TYR d   1     146.734 -20.997  90.276  0.00  0.00     0.217 HD
ENDBRANCH  70  76
ENDBRANCH  63  66
ENDBRANCH  57  63
ENDBRANCH  54  57
ENDBRANCH  50  53
ENDBRANCH  47  50
ENDBRANCH  43  46
ENDBRANCH   1  43
TORSDOF 19
