REMARK  20 active torsions:
REMARK  status: ('A' for Active; 'I' for Inactive)
REMARK    1  A    between atoms: N_1  and  CA_2 
REMARK    2  A    between atoms: CA_2  and  C_3 
REMARK    3  A    between atoms: CA_2  and  CB_5 
REMARK       I    between atoms: C_3  and  N_15 
REMARK    4  A    between atoms: CB_5  and  CG_6 
REMARK    5  A    between atoms: N_15  and  CA_16 
REMARK    6  A    between atoms: CA_16  and  C_17 
REMARK    7  A    between atoms: CA_16  and  CB_19 
REMARK       I    between atoms: C_17  and  N_24 
REMARK    8  A    between atoms: CB_19  and  CG_20 
REMARK    9  A    between atoms: CG_20  and  CD_21 
REMARK   10  A    between atoms: N_24  and  CA_25 
REMARK   11  A    between atoms: CA_25  and  C_26 
REMARK   12  A    between atoms: CA_25  and  CB_28 
REMARK       I    between atoms: C_26  and  N_33 
REMARK   13  A    between atoms: CB_28  and  CG_29 
REMARK   14  A    between atoms: CG_29  and  CD_30 
REMARK   15  A    between atoms: N_33  and  CA_34 
REMARK   16  A    between atoms: CA_34  and  C_35 
REMARK   17  A    between atoms: CA_34  and  CB_37 
REMARK   18  A    between atoms: CB_37  and  CG_38 
REMARK   19  A    between atoms: CG_38  and  CD1_39 
REMARK   20  A    between atoms: CG_38  and  CD2_40 
ROOT
ATOM      1  CA  GLU d   1       3.515 -12.417 -25.884  0.00  0.00     0.090 C 
ATOM      2  H14 GLU d   1       4.409 -13.037 -25.723  0.00  0.00     0.087 H 
ENDROOT
BRANCH   1   3
ATOM      3  N   GLU d   1       2.678 -12.494 -24.702  0.00  0.00    -0.346 N 
ATOM      4  C   TRP d   1       3.177 -12.830 -23.520  0.00  0.00     0.249 C 
ATOM      5  O   TRP d   1       4.324 -13.249 -23.370  0.00  0.00    -0.271 OA
ATOM      6  H13 GLU d   1       1.702 -12.289 -24.780  0.00  0.00     0.163 HD
BRANCH   4   7
ATOM      7  CA  TRP d   1       2.248 -12.658 -22.329  0.00  0.00     0.179 C 
ATOM      8  H4  TRP d   1       1.217 -12.585 -22.705  0.00  0.00     0.099 H 
BRANCH   7   9
ATOM      9  N   TRP d   1       2.309 -13.783 -21.401  0.00  0.00    -0.066 N 
ATOM     10  H1  TRP d   1       1.677 -13.620 -20.633  0.00  0.00     0.275 HD
ATOM     11  H2  TRP d   1       3.249 -13.877 -21.049  0.00  0.00     0.275 HD
ATOM     12  H3  TRP d   1       2.043 -14.629 -21.881  0.00  0.00     0.275 HD
ENDBRANCH   7   9
BRANCH   7  13
ATOM     13  CB  TRP d   1       2.601 -11.357 -21.612  0.00  0.00    -0.004 C 
ATOM     14  H5  TRP d   1       2.598 -10.542 -22.351  0.00  0.00     0.044 H 
ATOM     15  H6  TRP d   1       3.609 -11.460 -21.184  0.00  0.00     0.044 H 
BRANCH  13  16
ATOM     16  CG  TRP d   1       1.664 -11.000 -20.520  0.00  0.00    -0.028 A 
ATOM     17  CD1 TRP d   1       1.750 -11.377 -19.216  0.00  0.00    -0.015 A 
ATOM     18  NE1 TRP d   1       0.705 -10.848 -18.503  0.00  0.00    -0.365 N 
ATOM     19  H7  TRP d   1       2.534 -12.007 -18.799  0.00  0.00     0.112 H 
ATOM     20  CE2 TRP d   1      -0.076 -10.099 -19.346  0.00  0.00     0.042 A 
ATOM     21  H8  TRP d   1       0.534 -10.990 -17.497  0.00  0.00     0.165 HD
ATOM     22  CD2 TRP d   1       0.503 -10.174 -20.627  0.00  0.00    -0.002 A 
ATOM     23  CZ2 TRP d   1      -1.232  -9.367 -19.089  0.00  0.00    -0.056 A 
ATOM     24  CE3 TRP d   1      -0.112  -9.492 -21.683  0.00  0.00    -0.070 A 
ATOM     25  CZ3 TRP d   1      -1.261  -8.763 -21.426  0.00  0.00    -0.082 A 
ATOM     26  H9  TRP d   1       0.303  -9.534 -22.683  0.00  0.00     0.084 H 
ATOM     27  CH2 TRP d   1      -1.808  -8.708 -20.143  0.00  0.00    -0.081 A 
ATOM     28  H11 TRP d   1      -1.744  -8.226 -22.235  0.00  0.00     0.083 H 
ATOM     29  H12 TRP d   1      -2.710  -8.130 -19.977  0.00  0.00     0.083 H 
ATOM     30  H10 TRP d   1      -1.660  -9.320 -18.094  0.00  0.00     0.086 H 
ENDBRANCH  13  16
ENDBRANCH   7  13
ENDBRANCH   4   7
ENDBRANCH   1   3
BRANCH   1  31
ATOM     31  C   GLU d   1       3.957 -10.969 -26.088  0.00  0.00     0.241 C 
ATOM     32  O   GLU d   1       3.159 -10.105 -26.450  0.00  0.00    -0.271 OA
ATOM     33  N   GLU d   1       5.237 -10.707 -25.842  0.00  0.00    -0.346 N 
ATOM     34  H19 GLU d   1       5.868 -11.462 -25.662  0.00  0.00     0.163 HD
BRANCH  33  35
ATOM     35  CA  GLU d   1       5.735  -9.340 -25.830  0.00  0.00     0.090 C 
ATOM     36  H20 GLU d   1       4.880  -8.671 -25.651  0.00  0.00     0.087 H 
BRANCH  35  37
ATOM     37  C   GLU d   1       6.372  -8.940 -27.153  0.00  0.00     0.241 C 
ATOM     38  O   GLU d   1       7.467  -9.393 -27.492  0.00  0.00    -0.271 OA
ATOM     39  N   LEU d   1       5.677  -8.087 -27.898  0.00  0.00    -0.345 N 
ATOM     40  H25 LEU d   1       4.772  -7.794 -27.590  0.00  0.00     0.163 HD
BRANCH  39  41
ATOM     41  CA  LEU d   1       6.206  -7.569 -29.155  0.00  0.00     0.096 C 
ATOM     42  H26 LEU d   1       6.657  -8.403 -29.712  0.00  0.00     0.089 H 
BRANCH  41  43
ATOM     43  C   LEU d   1       7.288  -6.523 -28.893  0.00  0.00     0.196 C 
ATOM     44  O   LEU d   1       8.209  -6.358 -29.694  0.00  0.00    -0.646 OA
ATOM     45  OXT LEU d   1       7.259  -5.827 -27.878  0.00  0.00    -0.646 OA
ENDBRANCH  41  43
BRANCH  41  46
ATOM     46  CB  LEU d   1       5.080  -6.972 -30.004  0.00  0.00    -0.034 C 
ATOM     47  H27 LEU d   1       5.515  -6.622 -30.952  0.00  0.00     0.037 H 
ATOM     48  H28 LEU d   1       4.656  -6.117 -29.457  0.00  0.00     0.037 H 
BRANCH  46  49
ATOM     49  CG  LEU d   1       3.942  -7.938 -30.331  0.00  0.00    -0.059 C 
ATOM     50  H29 LEU d   1       3.441  -8.208 -29.390  0.00  0.00     0.038 H 
BRANCH  49  51
ATOM     51  CD1 LEU d   1       2.909  -7.281 -31.248  0.00  0.00    -0.073 C 
ATOM     52  H30 LEU d   1       2.104  -7.998 -31.466  0.00  0.00     0.028 H 
ATOM     53  H31 LEU d   1       3.393  -6.977 -32.188  0.00  0.00     0.028 H 
ATOM     54  H32 LEU d   1       2.487  -6.396 -30.750  0.00  0.00     0.028 H 
ENDBRANCH  49  51
BRANCH  49  55
ATOM     55  CD2 LEU d   1       4.482  -9.202 -30.959  0.00  0.00    -0.073 C 
ATOM     56  H33 LEU d   1       5.222  -9.659 -30.285  0.00  0.00     0.028 H 
ATOM     57  H34 LEU d   1       4.961  -8.959 -31.919  0.00  0.00     0.028 H 
ATOM     58  H35 LEU d   1       3.656  -9.908 -31.130  0.00  0.00     0.028 H 
ENDBRANCH  49  55
ENDBRANCH  46  49
ENDBRANCH  41  46
ENDBRANCH  39  41
ENDBRANCH  35  37
BRANCH  35  59
ATOM     59  CB  GLU d   1       6.734  -9.159 -24.689  0.00  0.00    -0.029 C 
ATOM     60  H21 GLU d   1       6.950  -8.086 -24.581  0.00  0.00     0.037 H 
ATOM     61  H22 GLU d   1       7.659  -9.695 -24.947  0.00  0.00     0.037 H 
BRANCH  59  62
ATOM     62  CG  GLU d   1       6.226  -9.686 -23.355  0.00  0.00     0.018 C 
ATOM     63  H23 GLU d   1       6.364 -10.777 -23.330  0.00  0.00     0.049 H 
ATOM     64  H24 GLU d   1       5.155  -9.450 -23.266  0.00  0.00     0.049 H 
BRANCH  62  65
ATOM     65  CD  GLU d   1       6.957  -9.077 -22.180  0.00  0.00     0.172 C 
ATOM     66  OE1 GLU d   1       7.630  -8.042 -22.376  0.00  0.00    -0.648 OA
ATOM     67  OE2 GLU d   1       6.868  -9.636 -21.068  0.00  0.00    -0.648 OA
ENDBRANCH  62  65
ENDBRANCH  59  62
ENDBRANCH  35  59
ENDBRANCH  33  35
ENDBRANCH   1  31
BRANCH   1  68
ATOM     68  CB  GLU d   1       2.778 -12.950 -27.114  0.00  0.00    -0.029 C 
ATOM     69  H15 GLU d   1       2.025 -12.208 -27.416  0.00  0.00     0.037 H 
ATOM     70  H16 GLU d   1       2.277 -13.890 -26.839  0.00  0.00     0.037 H 
BRANCH  68  71
ATOM     71  CG  GLU d   1       3.685 -13.220 -28.297  0.00  0.00     0.018 C 
ATOM     72  H17 GLU d   1       4.202 -12.286 -28.563  0.00  0.00     0.049 H 
ATOM     73  H18 GLU d   1       3.067 -13.551 -29.145  0.00  0.00     0.049 H 
BRANCH  71  74
ATOM     74  CD  GLU d   1       4.729 -14.289 -28.011  0.00  0.00     0.172 C 
ATOM     75  OE1 GLU d   1       4.454 -15.189 -27.188  0.00  0.00    -0.648 OA
ATOM     76  OE2 GLU d   1       5.828 -14.225 -28.606  0.00  0.00    -0.648 OA
ENDBRANCH  71  74
ENDBRANCH  68  71
ENDBRANCH   1  68
TORSDOF 20
