REMARK  6 active torsions:
REMARK  status: ('A' for Active; 'I' for Inactive)
REMARK    1  A    between atoms: C01_1  and  C02_2 
REMARK       I    between atoms: C02_2  and  N04_4 
REMARK    2  A    between atoms: C06_6  and  N07_7 
REMARK       I    between atoms: N07_7  and  C08_8 
REMARK    3  A    between atoms: N07_7  and  C11_11 
REMARK    4  A    between atoms: C08_8  and  C09_9 
REMARK    5  A    between atoms: C12_12  and  C13_13 
REMARK    6  A    between atoms: C16_16  and  O18_18 
ROOT
ATOM      1  N07 UO1 d   1     -30.761 -10.084  -1.207  0.00  0.00    -0.280 N 
ATOM      2  C08 UO1 d   1     -31.211  -9.470  -2.441  0.00  0.00     0.225 C 
ATOM      3  O10 UO1 d   1     -30.603  -8.523  -2.903  0.00  0.00    -0.273 OA
ENDROOT
BRANCH   1   4
ATOM      4  C06 UO1 d   1     -29.593  -9.586  -0.535  0.00  0.00     0.071 A 
ATOM      5  C05 UO1 d   1     -28.424 -10.303  -0.293  0.00  0.00     0.015 A 
ATOM      6  N04 UO1 d   1     -27.576  -9.477   0.354  0.00  0.00    -0.290 N 
ATOM      7  H4  UO1 d   1     -28.230 -11.337  -0.574  0.00  0.00     0.116 H 
ATOM      8  C02 UO1 d   1     -26.246  -9.840   0.766  0.00  0.00     0.224 C 
ATOM      9  C20 UO1 d   1     -28.154  -8.240   0.556  0.00  0.00     0.054 A 
ATOM     10  O03 UO1 d   1     -25.519  -9.041   1.326  0.00  0.00    -0.273 OA
ATOM     11  C19 UO1 d   1     -29.430  -8.267   0.015  0.00  0.00     0.020 A 
ATOM     12  C21 UO1 d   1     -27.670  -7.056   1.188  0.00  0.00    -0.056 A 
ATOM     13  C24 UO1 d   1     -30.259  -7.111   0.090  0.00  0.00    -0.069 A 
ATOM     14  C23 UO1 d   1     -29.779  -5.952   0.713  0.00  0.00    -0.082 A 
ATOM     15  H18 UO1 d   1     -31.257  -7.128  -0.333  0.00  0.00     0.085 H 
ATOM     16  C22 UO1 d   1     -28.485  -5.924   1.261  0.00  0.00    -0.081 A 
ATOM     17  H17 UO1 d   1     -30.409  -5.072   0.773  0.00  0.00     0.083 H 
ATOM     18  H16 UO1 d   1     -28.119  -5.023   1.741  0.00  0.00     0.083 H 
ATOM     19  H15 UO1 d   1     -26.672  -7.035   1.611  0.00  0.00     0.087 H 
BRANCH   8  20
ATOM     20  C01 UO1 d   1     -25.735 -11.246   0.478  0.00  0.00    -0.002 C 
ATOM     21  H1  UO1 d   1     -26.521 -11.825  -0.029  0.00  0.00     0.040 H 
ATOM     22  H2  UO1 d   1     -25.468 -11.740   1.424  0.00  0.00     0.040 H 
ATOM     23  H3  UO1 d   1     -24.847 -11.188  -0.169  0.00  0.00     0.040 H 
ENDBRANCH   8  20
ENDBRANCH   1   4
BRANCH   1  24
ATOM     24  C11 UO1 d   1     -31.438 -11.218  -0.642  0.00  0.00     0.051 A 
ATOM     25  C12 UO1 d   1     -31.223 -12.484  -1.206  0.00  0.00    -0.035 A 
ATOM     26  C14 UO1 d   1     -31.877 -13.597  -0.661  0.00  0.00    -0.072 A 
ATOM     27  C15 UO1 d   1     -32.724 -13.441   0.437  0.00  0.00    -0.050 A 
ATOM     28  H11 UO1 d   1     -31.725 -14.580  -1.093  0.00  0.00     0.084 H 
ATOM     29  C16 UO1 d   1     -32.924 -12.177   0.996  0.00  0.00     0.067 A 
ATOM     30  H12 UO1 d   1     -33.228 -14.304   0.857  0.00  0.00     0.087 H 
ATOM     31  C17 UO1 d   1     -32.276 -11.059   0.458  0.00  0.00    -0.024 A 
ATOM     32  H13 UO1 d   1     -32.425 -10.078   0.894  0.00  0.00     0.091 H 
BRANCH  25  33
ATOM     33  C13 UO1 d   1     -30.305 -12.656  -2.402  0.00  0.00    -0.049 C 
ATOM     34  H8  UO1 d   1     -30.272 -13.717  -2.689  0.00  0.00     0.033 H 
ATOM     35  H9  UO1 d   1     -29.293 -12.316  -2.139  0.00  0.00     0.033 H 
ATOM     36  H10 UO1 d   1     -30.685 -12.060  -3.245  0.00  0.00     0.033 H 
ENDBRANCH  25  33
BRANCH  29  37
ATOM     37  O18 UO1 d   1     -33.783 -12.029   2.108  0.00  0.00    -0.361 OA
ATOM     38  H14 UO1 d   1     -34.139 -12.877   2.347  0.00  0.00     0.217 HD
ENDBRANCH  29  37
ENDBRANCH   1  24
BRANCH   2  39
ATOM     39  C09 UO1 d   1     -32.434  -9.988  -3.171  0.00  0.00    -0.002 C 
ATOM     40  H5  UO1 d   1     -32.602  -9.387  -4.077  0.00  0.00     0.040 H 
ATOM     41  H6  UO1 d   1     -33.313  -9.913  -2.514  0.00  0.00     0.040 H 
ATOM     42  H7  UO1 d   1     -32.275 -11.040  -3.452  0.00  0.00     0.040 H 
ENDBRANCH   2  39
TORSDOF 6
