REMARK  7 active torsions:
REMARK  status: ('A' for Active; 'I' for Inactive)
REMARK    1  A    between atoms: C12_6  and  C16_3 
REMARK    2  A    between atoms: C08_15  and  C10_4 
REMARK    3  A    between atoms: C02_9  and  C01_8 
REMARK       I    between atoms: N04_11  and  C02_9 
REMARK    4  A    between atoms: N07_14  and  C06_13 
REMARK       I    between atoms: N07_14  and  C08_15 
REMARK    5  A    between atoms: N07_14  and  C20_20 
REMARK    6  A    between atoms: C21_21  and  C22_22 
REMARK    7  A    between atoms: C25_25  and  O27_27 
ROOT
ATOM      1  N07 5KH d   1     -29.659  -9.833  -1.222  0.00  0.00    -0.276 N 
ATOM      2  C08 5KH d   1     -30.060  -9.194  -2.444  0.00  0.00     0.263 C 
ATOM      3  O09 5KH d   1     -29.428  -8.258  -2.895  0.00  0.00    -0.267 OA
ENDROOT
BRANCH   1   4
ATOM      4  C06 5KH d   1     -28.526  -9.360  -0.526  0.00  0.00     0.071 A 
ATOM      5  C05 5KH d   1     -27.351 -10.067  -0.328  0.00  0.00     0.015 A 
ATOM      6  N04 5KH d   1     -26.516  -9.287   0.338  0.00  0.00    -0.290 N 
ATOM      7  H8  5KH d   1     -27.151 -11.084  -0.661  0.00  0.00     0.116 H 
ATOM      8  C02 5KH d   1     -25.212  -9.689   0.704  0.00  0.00     0.224 C 
ATOM      9  C29 5KH d   1     -27.087  -8.059   0.597  0.00  0.00     0.054 A 
ATOM     10  O03 5KH d   1     -24.480  -8.934   1.293  0.00  0.00    -0.273 OA
ATOM     11  C28 5KH d   1     -28.360  -8.065   0.067  0.00  0.00     0.020 A 
ATOM     12  C30 5KH d   1     -26.607  -6.902   1.270  0.00  0.00    -0.056 A 
ATOM     13  C33 5KH d   1     -29.187  -6.921   0.194  0.00  0.00    -0.069 A 
ATOM     14  C32 5KH d   1     -28.712  -5.790   0.855  0.00  0.00    -0.082 A 
ATOM     15  H19 5KH d   1     -30.188  -6.926  -0.223  0.00  0.00     0.085 H 
ATOM     16  C31 5KH d   1     -27.424  -5.783   1.397  0.00  0.00    -0.081 A 
ATOM     17  H18 5KH d   1     -29.343  -4.914   0.949  0.00  0.00     0.083 H 
ATOM     18  H17 5KH d   1     -27.061  -4.904   1.917  0.00  0.00     0.083 H 
ATOM     19  H16 5KH d   1     -25.605  -6.892   1.684  0.00  0.00     0.087 H 
BRANCH   8  20
ATOM     20  C01 5KH d   1     -24.731 -11.076   0.336  0.00  0.00    -0.002 C 
ATOM     21  H5  5KH d   1     -25.532 -11.614  -0.193  0.00  0.00     0.040 H 
ATOM     22  H6  5KH d   1     -24.462 -11.626   1.250  0.00  0.00     0.040 H 
ATOM     23  H7  5KH d   1     -23.849 -10.997  -0.317  0.00  0.00     0.040 H 
ENDBRANCH   8  20
ENDBRANCH   1   4
BRANCH   1  24
ATOM     24  C20 5KH d   1     -30.414 -10.924  -0.749  0.00  0.00     0.051 A 
ATOM     25  C21 5KH d   1     -30.349 -12.161  -1.389  0.00  0.00    -0.035 A 
ATOM     26  C23 5KH d   1     -31.136 -13.202  -0.915  0.00  0.00    -0.072 A 
ATOM     27  C24 5KH d   1     -31.985 -13.007   0.165  0.00  0.00    -0.050 A 
ATOM     28  H12 5KH d   1     -31.087 -14.174  -1.392  0.00  0.00     0.084 H 
ATOM     29  C25 5KH d   1     -32.057 -11.769   0.781  0.00  0.00     0.067 A 
ATOM     30  H13 5KH d   1     -32.594 -13.827   0.528  0.00  0.00     0.087 H 
ATOM     31  C26 5KH d   1     -31.273 -10.727   0.323  0.00  0.00    -0.024 A 
ATOM     32  H14 5KH d   1     -31.329  -9.756   0.801  0.00  0.00     0.091 H 
BRANCH  25  33
ATOM     33  C22 5KH d   1     -29.424 -12.400  -2.581  0.00  0.00    -0.049 C 
ATOM     34  H9  5KH d   1     -29.533 -13.438  -2.927  0.00  0.00     0.033 H 
ATOM     35  H10 5KH d   1     -28.382 -12.222  -2.278  0.00  0.00     0.033 H 
ATOM     36  H11 5KH d   1     -29.692 -11.712  -3.397  0.00  0.00     0.033 H 
ENDBRANCH  25  33
BRANCH  29  37
ATOM     37  O27 5KH d   1     -32.919 -11.576   1.876  0.00  0.00    -0.361 OA
ATOM     38  H15 5KH d   1     -33.381 -12.385   2.060  0.00  0.00     0.217 HD
ENDBRANCH  29  37
ENDBRANCH   1  24
BRANCH   2  39
ATOM     39  C10 5KH d   1     -31.267  -9.714  -3.203  0.00  0.00     0.033 A 
ATOM     40  C15 5KH d   1     -31.150 -10.168  -4.512  0.00  0.00    -0.068 A 
ATOM     41  C14 5KH d   1     -32.264 -10.660  -5.180  0.00  0.00    -0.081 A 
ATOM     42  H2  5KH d   1     -30.189 -10.138  -5.012  0.00  0.00     0.085 H 
ATOM     43  C13 5KH d   1     -33.497 -10.709  -4.544  0.00  0.00    -0.068 A 
ATOM     44  H1  5KH d   1     -32.170 -11.007  -6.203  0.00  0.00     0.083 H 
ATOM     45  C12 5KH d   1     -33.609 -10.258  -3.235  0.00  0.00     0.048 A 
ATOM     46  H4  5KH d   1     -34.365 -11.096  -5.065  0.00  0.00     0.084 H 
ATOM     47  C11 5KH d   1     -32.502  -9.762  -2.583  0.00  0.00    -0.053 A 
ATOM     48  H3  5KH d   1     -32.601  -9.403  -1.565  0.00  0.00     0.086 H 
BRANCH  45  49
ATOM     49  C16 5KH d   1     -34.912 -10.289  -2.468  0.00  0.00     0.417 C 
ATOM     50  F17 5KH d   1     -35.709 -11.255  -2.948  0.00  0.00    -0.166 F 
ATOM     51  F18 5KH d   1     -35.516  -9.095  -2.543  0.00  0.00    -0.166 F 
ATOM     52  F19 5KH d   1     -34.626 -10.559  -1.185  0.00  0.00    -0.166 F 
ENDBRANCH  45  49
ENDBRANCH   2  39
TORSDOF 7
