REMARK  7 active torsions:
REMARK  status: ('A' for Active; 'I' for Inactive)
REMARK    1  A    between atoms: C10_1  and  C04_12 
REMARK    2  A    between atoms: C13_2  and  C28_8 
REMARK    3  A    between atoms: S01_9  and  C02_10 
REMARK    4  A    between atoms: N06_14  and  S01_9 
REMARK    5  A    between atoms: C03_11  and  C09_17 
REMARK       I    between atoms: C04_12  and  N05_13 
REMARK    6  A    between atoms: N05_13  and  C07_15 
REMARK    7  A    between atoms: N06_14  and  C18_23 
ROOT
ATOM      1  C10 5KR d   1     -12.537 -11.969  23.571  0.00  0.00     0.033 A 
ATOM      2  C13 5KR d   1     -10.820 -14.048  24.223  0.00  0.00    -0.039 A 
ATOM      3  C17 5KR d   1     -11.813 -14.241  23.277  0.00  0.00    -0.075 A 
ATOM      4  C02 5KR d   1     -10.692 -12.817  24.843  0.00  0.00     0.086 A 
ATOM      5  C08 5KR d   1     -11.551 -11.777  24.522  0.00  0.00    -0.044 A 
ATOM      6  C16 5KR d   1     -12.674 -13.203  22.957  0.00  0.00    -0.067 A 
ATOM      7  H1  5KR d   1     -11.917 -15.203  22.788  0.00  0.00     0.084 H 
ATOM      8  H10 5KR d   1     -11.450 -10.817  25.015  0.00  0.00     0.087 H 
ATOM      9  H11 5KR d   1     -13.457 -13.357  22.224  0.00  0.00     0.085 H 
ENDROOT
BRANCH   1  10
ATOM     10  C04 5KR d   1     -13.506 -10.839  23.221  0.00  0.00     0.256 C 
ATOM     11  N05 5KR d   1     -14.678 -11.199  22.432  0.00  0.00    -0.322 N 
ATOM     12  H8  5KR d   1     -14.753 -12.154  22.146  0.00  0.00     0.169 HD
ATOM     13  O14 5KR d   1     -13.300  -9.732  23.599  0.00  0.00    -0.267 OA
BRANCH  11  14
ATOM     14  C07 5KR d   1     -15.750 -10.305  22.019  0.00  0.00     0.052 A 
ATOM     15  C03 5KR d   1     -16.539 -10.662  20.937  0.00  0.00     0.067 A 
ATOM     16  C22 5KR d   1     -17.585  -9.846  20.537  0.00  0.00    -0.064 A 
ATOM     17  C29 5KR d   1     -17.851  -8.678  21.233  0.00  0.00    -0.082 A 
ATOM     18  H2  5KR d   1     -18.193 -10.120  19.683  0.00  0.00     0.085 H 
ATOM     19  C30 5KR d   1     -17.073  -8.326  22.323  0.00  0.00    -0.081 A 
ATOM     20  H15 5KR d   1     -18.670  -8.039  20.924  0.00  0.00     0.083 H 
ATOM     21  C27 5KR d   1     -16.028  -9.142  22.724  0.00  0.00    -0.056 A 
ATOM     22  H16 5KR d   1     -17.282  -7.410  22.864  0.00  0.00     0.083 H 
ATOM     23  H14 5KR d   1     -15.429  -8.873  23.586  0.00  0.00     0.086 H 
BRANCH  15  24
ATOM     24  C09 5KR d   1     -16.252 -11.951  20.169  0.00  0.00     0.211 C 
ATOM     25  O15 5KR d   1     -15.276 -12.680  20.493  0.00  0.00    -0.644 OA
ATOM     26  O19 5KR d   1     -16.996 -12.283  19.209  0.00  0.00    -0.644 OA
ENDBRANCH  15  24
ENDBRANCH  11  14
ENDBRANCH   1  10
BRANCH   4  27
ATOM     27  S01 5KR d   1      -9.398 -12.546  26.084  0.00  0.00     0.263 S 
ATOM     28  O11 5KR d   1      -9.721 -13.228  27.338  0.00  0.00    -0.200 OA
ATOM     29  O12 5KR d   1      -9.381 -11.146  26.517  0.00  0.00    -0.200 OA
BRANCH  27  30
ATOM     30  N06 5KR d   1      -7.870 -13.045  25.495  0.00  0.00    -0.281 N 
ATOM     31  H9  5KR d   1      -7.336 -13.733  25.986  0.00  0.00     0.179 HD
BRANCH  30  32
ATOM     32  C18 5KR d   1      -7.365 -12.453  24.274  0.00  0.00     0.042 A 
ATOM     33  C24 5KR d   1      -6.413 -13.115  23.518  0.00  0.00    -0.055 A 
ATOM     34  C25 5KR d   1      -5.941 -12.540  22.350  0.00  0.00    -0.064 A 
ATOM     35  H3  5KR d   1      -6.038 -14.080  23.839  0.00  0.00     0.087 H 
ATOM     36  C20 5KR d   1      -6.427 -11.304  21.951  0.00  0.00     0.011 A 
ATOM     37  H13 5KR d   1      -5.197 -13.053  21.752  0.00  0.00     0.085 H 
ATOM     38  C26 5KR d   1      -7.379 -10.650  22.708  0.00  0.00    -0.064 A 
ATOM     39 BR1  5KR d   1      -5.791 -10.473  20.321  0.00  0.00    -0.051 Br
ATOM     40  C23 5KR d   1      -7.851 -11.221  23.874  0.00  0.00    -0.055 A 
ATOM     41  H4  5KR d   1      -7.757  -9.686  22.387  0.00  0.00     0.085 H 
ATOM     42  H12 5KR d   1      -8.596 -10.708  24.471  0.00  0.00     0.087 H 
ENDBRANCH  30  32
ENDBRANCH  27  30
ENDBRANCH   4  27
BRANCH   2  43
ATOM     43  C28 5KR d   1      -9.870 -15.190  24.575  0.00  0.00    -0.050 C 
ATOM     44  H5  5KR d   1     -10.130 -16.079  23.982  0.00  0.00     0.033 H 
ATOM     45  H6  5KR d   1      -9.960 -15.425  25.646  0.00  0.00     0.033 H 
ATOM     46  H7  5KR d   1      -8.836 -14.889  24.351  0.00  0.00     0.033 H 
ENDBRANCH   2  43
TORSDOF 7
