REMARK  14 active torsions:
REMARK  status: ('A' for Active; 'I' for Inactive)
REMARK    1  A    between atoms: C1_1  and  S1_12 
REMARK    2  A    between atoms: C2_2  and  O21_25 
REMARK    3  A    between atoms: N71_31  and  C3_3 
REMARK    4  A    between atoms: C4_4  and  O4_20 
REMARK    5  A    between atoms: C5_5  and  C6_6 
REMARK    6  A    between atoms: C6_6  and  O6_17 
REMARK    7  A    between atoms: C9_28  and  C12_8 
REMARK    8  A    between atoms: S1_12  and  C11_11 
REMARK    9  A    between atoms: C51_15  and  C61_16 
REMARK   10  A    between atoms: C61_16  and  O61_18 
REMARK   11  A    between atoms: C41_19  and  O41_21 
REMARK   12  A    between atoms: C31_22  and  N7_26 
REMARK   13  A    between atoms: C21_23  and  O2_24 
REMARK   14  A    between atoms: C10_33  and  C22_38 
ROOT
ATOM      1  S1  TD2 d   1      20.937 -10.391  -0.552  0.00  0.00    -0.100 SA
ENDROOT
BRANCH   1   2
ATOM      2  C1  TD2 d   1      20.135  -8.964  -1.133  0.00  0.00     0.112 C 
ATOM      3  C2  TD2 d   1      18.660  -9.240  -1.018  0.00  0.00     0.093 C 
ATOM      4  C3  TD2 d   1      17.900  -7.998  -1.393  0.00  0.00     0.086 C 
ATOM      5  H2  TD2 d   1      18.413  -9.538   0.012  0.00  0.00     0.091 H 
ATOM      6  C4  TD2 d   1      18.420  -6.832  -0.563  0.00  0.00     0.086 C 
ATOM      7  H3  TD2 d   1      18.078  -7.787  -2.458  0.00  0.00     0.083 H 
ATOM      8  C5  TD2 d   1      19.915  -6.680  -0.750  0.00  0.00     0.087 C 
ATOM      9  H4  TD2 d   1      17.927  -5.909  -0.902  0.00  0.00     0.090 H 
ATOM     10  O5  TD2 d   1      20.529  -7.883  -0.332  0.00  0.00    -0.363 OA
ATOM     11  H5  TD2 d   1      20.134  -6.501  -1.813  0.00  0.00     0.090 H 
ATOM     12  H1  TD2 d   1      20.402  -8.764  -2.181  0.00  0.00     0.104 H 
BRANCH   3  13
ATOM     13  O21 TD2 d   1      18.302 -10.279  -1.925  0.00  0.00    -0.390 OA
ATOM     14  H21 TD2 d   1      17.367 -10.440  -1.867  0.00  0.00     0.210 HD
ENDBRANCH   3  13
BRANCH   4  15
ATOM     15  N71 TD2 d   1      16.454  -8.150  -1.188  0.00  0.00    -0.273 N 
ATOM     16  N8  TD2 d   1      15.633  -7.954  -2.300  0.00  0.00     0.005 NA
ATOM     17  N9  TD2 d   1      14.316  -8.125  -1.862  0.00  0.00    -0.158 NA
ATOM     18  C10 TD2 d   1      14.418  -8.406  -0.550  0.00  0.00     0.101 A 
ATOM     19  C71 TD2 d   1      15.732  -8.428  -0.138  0.00  0.00     0.025 A 
ATOM     20  H23 TD2 d   1      16.096  -8.636   0.867  0.00  0.00     0.117 H 
BRANCH  18  21
ATOM     21  C22 TD2 d   1      13.149  -8.648   0.202  0.00  0.00    -0.002 A 
ATOM     22  C23 TD2 d   1      11.983  -9.010  -0.464  0.00  0.00    -0.070 A 
ATOM     23  C24 TD2 d   1      10.815  -9.233   0.252  0.00  0.00    -0.079 A 
ATOM     24  H27 TD2 d   1      11.986  -9.118  -1.543  0.00  0.00     0.084 H 
ATOM     25  C25 TD2 d   1      10.814  -9.105   1.637  0.00  0.00    -0.046 A 
ATOM     26  H28 TD2 d   1       9.904  -9.507  -0.268  0.00  0.00     0.083 H 
ATOM     27  C26 TD2 d   1      11.968  -8.766   2.288  0.00  0.00     0.117 A 
ATOM     28  H29 TD2 d   1       9.902  -9.273   2.198  0.00  0.00     0.088 H 
ATOM     29  C27 TD2 d   1      13.134  -8.507   1.589  0.00  0.00    -0.034 A 
ATOM     30  F28 TD2 d   1      11.908  -8.646   3.626  0.00  0.00    -0.206 F 
ATOM     31  H30 TD2 d   1      14.029  -8.197   2.116  0.00  0.00     0.089 H 
ENDBRANCH  18  21
ENDBRANCH   4  15
BRANCH   6  32
ATOM     32  O4  TD2 d   1      18.113  -7.037   0.813  0.00  0.00    -0.391 OA
ATOM     33  H16 TD2 d   1      17.173  -7.131   0.916  0.00  0.00     0.210 HD
ENDBRANCH   6  32
BRANCH   8  34
ATOM     34  C6  TD2 d   1      20.457  -5.525   0.069  0.00  0.00     0.043 C 
ATOM     35  H6  TD2 d   1      20.298  -5.718   1.140  0.00  0.00     0.078 H 
ATOM     36  H7  TD2 d   1      19.947  -4.593  -0.215  0.00  0.00     0.078 H 
BRANCH  34  37
ATOM     37  O6  TD2 d   1      21.837  -5.419  -0.200  0.00  0.00    -0.398 OA
ATOM     38  H13 TD2 d   1      22.269  -6.229   0.044  0.00  0.00     0.209 HD
ENDBRANCH  34  37
ENDBRANCH   8  34
ENDBRANCH   1   2
BRANCH   1  39
ATOM     39  C11 TD2 d   1      22.587  -9.957  -0.907  0.00  0.00     0.112 C 
ATOM     40  O51 TD2 d   1      23.040 -10.794  -1.973  0.00  0.00    -0.363 OA
ATOM     41  C51 TD2 d   1      24.367 -10.521  -2.345  0.00  0.00     0.087 C 
ATOM     42  C41 TD2 d   1      25.334 -10.741  -1.205  0.00  0.00     0.086 C 
ATOM     43  H10 TD2 d   1      24.428  -9.467  -2.653  0.00  0.00     0.090 H 
ATOM     44  C31 TD2 d   1      24.851  -9.950  -0.018  0.00  0.00     0.086 C 
ATOM     45  H15 TD2 d   1      26.319 -10.356  -1.507  0.00  0.00     0.090 H 
ATOM     46  C21 TD2 d   1      23.409 -10.258   0.323  0.00  0.00     0.093 C 
ATOM     47  H18 TD2 d   1      24.901  -8.884  -0.284  0.00  0.00     0.083 H 
ATOM     48  H19 TD2 d   1      23.303 -11.320   0.588  0.00  0.00     0.091 H 
ATOM     49  H9  TD2 d   1      22.666  -8.895  -1.182  0.00  0.00     0.104 H 
BRANCH  41  50
ATOM     50  C61 TD2 d   1      24.772 -11.404  -3.526  0.00  0.00     0.043 C 
ATOM     51  H11 TD2 d   1      24.420 -12.434  -3.369  0.00  0.00     0.078 H 
ATOM     52  H12 TD2 d   1      25.866 -11.404  -3.643  0.00  0.00     0.078 H 
BRANCH  50  53
ATOM     53  O61 TD2 d   1      24.155 -10.845  -4.676  0.00  0.00    -0.398 OA
ATOM     54  H14 TD2 d   1      23.212 -10.844  -4.559  0.00  0.00     0.209 HD
ENDBRANCH  50  53
ENDBRANCH  41  50
BRANCH  42  55
ATOM     55  O41 TD2 d   1      25.488 -12.123  -0.872  0.00  0.00    -0.391 OA
ATOM     56  H17 TD2 d   1      26.103 -12.208  -0.153  0.00  0.00     0.210 HD
ENDBRANCH  42  55
BRANCH  44  57
ATOM     57  N7  TD2 d   1      25.748 -10.166   1.111  0.00  0.00    -0.273 N 
ATOM     58  C8  TD2 d   1      25.828 -10.950   2.156  0.00  0.00     0.025 A 
ATOM     59  C9  TD2 d   1      26.987 -10.581   2.824  0.00  0.00     0.101 A 
ATOM     60  H22 TD2 d   1      25.127 -11.733   2.443  0.00  0.00     0.117 H 
ATOM     61  N10 TD2 d   1      27.563  -9.555   2.191  0.00  0.00    -0.158 NA
ATOM     62  N11 TD2 d   1      26.798  -9.278   1.082  0.00  0.00     0.005 NA
BRANCH  59  63
ATOM     63  C12 TD2 d   1      27.446 -11.140   4.117  0.00  0.00    -0.002 A 
ATOM     64  C13 TD2 d   1      26.775 -12.252   4.575  0.00  0.00    -0.034 A 
ATOM     65  C14 TD2 d   1      27.081 -12.811   5.799  0.00  0.00     0.117 A 
ATOM     66  H8  TD2 d   1      25.995 -12.694   3.965  0.00  0.00     0.089 H 
ATOM     67  C15 TD2 d   1      28.052 -12.223   6.589  0.00  0.00    -0.046 A 
ATOM     68  F18 TD2 d   1      26.379 -13.944   6.071  0.00  0.00    -0.206 F 
ATOM     69  C16 TD2 d   1      28.697 -11.067   6.157  0.00  0.00    -0.079 A 
ATOM     70  H24 TD2 d   1      28.311 -12.662   7.545  0.00  0.00     0.088 H 
ATOM     71  C17 TD2 d   1      28.383 -10.503   4.924  0.00  0.00    -0.070 A 
ATOM     72  H25 TD2 d   1      29.449 -10.603   6.785  0.00  0.00     0.083 H 
ATOM     73  H26 TD2 d   1      28.859  -9.585   4.599  0.00  0.00     0.084 H 
ENDBRANCH  59  63
ENDBRANCH  44  57
BRANCH  46  74
ATOM     74  O2  TD2 d   1      23.001  -9.456   1.431  0.00  0.00    -0.390 OA
ATOM     75  H20 TD2 d   1      23.084  -8.537   1.203  0.00  0.00     0.210 HD
ENDBRANCH  46  74
ENDBRANCH   1  39
TORSDOF 14
