REMARK  29 active torsions:
REMARK  status: ('A' for Active; 'I' for Inactive)
REMARK    1  A    between atoms: N_1  and  CA_2 
REMARK    2  A    between atoms: CA_2  and  C_3 
REMARK    3  A    between atoms: CA_2  and  CB_5 
REMARK       I    between atoms: C_3  and  N_10 
REMARK    4  A    between atoms: CB_5  and  CG_6 
REMARK    5  A    between atoms: CG_6  and  CD_7 
REMARK    6  A    between atoms: CD_7  and  CE_8 
REMARK    7  A    between atoms: CE_8  and  NZ_9 
REMARK    8  A    between atoms: N_10  and  CA_11 
REMARK    9  A    between atoms: CA_11  and  C_12 
REMARK   10  A    between atoms: CA_11  and  CB_14 
REMARK       I    between atoms: C_12  and  N_16 
REMARK   11  A    between atoms: CB_14  and  OG_15 
REMARK   12  A    between atoms: N_16  and  CA_17 
REMARK   13  A    between atoms: CA_17  and  C_18 
REMARK   14  A    between atoms: CA_17  and  CB_20 
REMARK       I    between atoms: C_18  and  N_25 
REMARK   15  A    between atoms: CB_20  and  CG_21 
REMARK   16  A    between atoms: CG_21  and  CD_22 
REMARK   17  A    between atoms: CD_22  and  CE_23 
REMARK   18  A    between atoms: CE_23  and  NZ_24 
REMARK   19  A    between atoms: N_25  and  CA_26 
REMARK   20  A    between atoms: CA_26  and  C_27 
REMARK   21  A    between atoms: CA_26  and  CB_29 
REMARK       I    between atoms: C_27  and  N_32 
REMARK   22  A    between atoms: CB_29  and  OG1_30 
REMARK   23  A    between atoms: CB_29  and  CG2_31 
REMARK   24  A    between atoms: N_32  and  CA_33 
REMARK   25  A    between atoms: CA_33  and  C_34 
REMARK   26  A    between atoms: CA_33  and  CB_36 
REMARK   27  A    between atoms: C_34  and  OXT_38 
REMARK   28  A    between atoms: CB_36  and  SG_37 
REMARK   29  A    between atoms: OXT_38  and  C1_39 
ROOT
ATOM      1  CA  LYS d   1       9.072 -15.057  11.402  0.00  0.00     0.089 C 
ATOM      2  H22 LYS d   1       9.431 -15.637  12.265  0.00  0.00     0.087 H 
ENDROOT
BRANCH   1   3
ATOM      3  N   LYS d   1       8.671 -16.015  10.377  0.00  0.00    -0.346 N 
ATOM      4  C   SER d   1       8.325 -17.281  10.642  0.00  0.00     0.243 C 
ATOM      5  O   SER d   1       8.378 -17.799  11.753  0.00  0.00    -0.271 OA
ATOM      6  H21 LYS d   1       8.654 -15.709   9.425  0.00  0.00     0.163 HD
BRANCH   4   7
ATOM      7  CA  SER d   1       7.774 -18.079   9.453  0.00  0.00     0.109 C 
ATOM      8  H17 SER d   1       8.071 -17.583   8.517  0.00  0.00     0.090 H 
BRANCH   7   9
ATOM      9  N   SER d   1       8.284 -19.463   9.433  0.00  0.00    -0.344 N 
ATOM     10  C   LYS d   1       9.410 -19.777   8.828  0.00  0.00     0.249 C 
ATOM     11  O   LYS d   1      10.112 -18.925   8.271  0.00  0.00    -0.271 OA
ATOM     12  H16 SER d   1       7.761 -20.181   9.891  0.00  0.00     0.163 HD
BRANCH  10  13
ATOM     13  CA  LYS d   1       9.868 -21.240   8.936  0.00  0.00     0.176 C 
ATOM     14  H4  LYS d   1       9.176 -21.776   9.602  0.00  0.00     0.099 H 
BRANCH  13  15
ATOM     15  N   LYS d   1       9.877 -21.965   7.609  0.00  0.00    -0.067 N 
ATOM     16  H1  LYS d   1      10.185 -22.915   7.747  0.00  0.00     0.275 HD
ATOM     17  H2  LYS d   1      10.505 -21.497   6.975  0.00  0.00     0.275 HD
ATOM     18  H3  LYS d   1       8.947 -21.967   7.221  0.00  0.00     0.275 HD
ENDBRANCH  13  15
BRANCH  13  19
ATOM     19  CB  LYS d   1      11.257 -21.215   9.579  0.00  0.00    -0.030 C 
ATOM     20  H5  LYS d   1      11.141 -20.797  10.590  0.00  0.00     0.036 H 
ATOM     21  H6  LYS d   1      11.884 -20.544   8.975  0.00  0.00     0.036 H 
BRANCH  19  22
ATOM     22  CG  LYS d   1      12.005 -22.527   9.717  0.00  0.00    -0.061 C 
ATOM     23  H7  LYS d   1      12.751 -22.419  10.518  0.00  0.00     0.033 H 
ATOM     24  H8  LYS d   1      12.517 -22.736   8.766  0.00  0.00     0.033 H 
BRANCH  22  25
ATOM     25  CD  LYS d   1      11.124 -23.692  10.046  0.00  0.00    -0.043 C 
ATOM     26  H9  LYS d   1      10.506 -23.939   9.170  0.00  0.00     0.035 H 
ATOM     27  H10 LYS d   1      10.473 -23.427  10.892  0.00  0.00     0.035 H 
BRANCH  25  28
ATOM     28  CE  LYS d   1      11.971 -24.904  10.422  0.00  0.00     0.080 C 
ATOM     29  H11 LYS d   1      12.713 -24.622  11.183  0.00  0.00     0.075 H 
ATOM     30  H12 LYS d   1      12.488 -25.292   9.532  0.00  0.00     0.075 H 
BRANCH  28  31
ATOM     31  NZ  LYS d   1      11.049 -25.941  10.969  0.00  0.00    -0.079 N 
ATOM     32  H13 LYS d   1      11.579 -26.758  11.228  0.00  0.00     0.274 HD
ATOM     33  H14 LYS d   1      10.369 -26.190  10.268  0.00  0.00     0.274 HD
ATOM     34  H15 LYS d   1      10.576 -25.576  11.781  0.00  0.00     0.274 HD
ENDBRANCH  28  31
ENDBRANCH  25  28
ENDBRANCH  22  25
ENDBRANCH  19  22
ENDBRANCH  13  19
ENDBRANCH  10  13
ENDBRANCH   7   9
BRANCH   7  35
ATOM     35  CB  SER d   1       6.247 -18.076   9.569  0.00  0.00     0.044 C 
ATOM     36  H18 SER d   1       5.948 -18.604  10.486  0.00  0.00     0.077 H 
ATOM     37  H19 SER d   1       5.812 -18.583   8.695  0.00  0.00     0.077 H 
BRANCH  35  38
ATOM     38  OG  SER d   1       5.783 -16.744   9.620  0.00  0.00    -0.398 OA
ATOM     39  H20 SER d   1       6.042 -16.289   8.827  0.00  0.00     0.209 HD
ENDBRANCH  35  38
ENDBRANCH   7  35
ENDBRANCH   4   7
ENDBRANCH   1   3
BRANCH   1  40
ATOM     40  C   LYS d   1       7.967 -14.127  11.901  0.00  0.00     0.241 C 
ATOM     41  O   LYS d   1       8.190 -13.339  12.840  0.00  0.00    -0.271 OA
ATOM     42  N   THR d   1       6.795 -14.213  11.278  0.00  0.00    -0.344 N 
ATOM     43  H34 THR d   1       6.665 -14.937  10.601  0.00  0.00     0.163 HD
BRANCH  42  44
ATOM     44  CA  THR d   1       5.677 -13.283  11.545  0.00  0.00     0.113 C 
ATOM     45  H35 THR d   1       5.975 -12.588  12.344  0.00  0.00     0.091 H 
BRANCH  44  46
ATOM     46  C   THR d   1       4.434 -14.043  11.980  0.00  0.00     0.243 C 
ATOM     47  O   THR d   1       3.315 -13.532  12.077  0.00  0.00    -0.271 OA
ATOM     48  N   CMT d   1       4.608 -15.740  12.006  0.00  0.00    -0.345 N 
ATOM     49  H41 CMT d   1       5.443 -16.202  11.707  0.00  0.00     0.163 HD
BRANCH  48  50
ATOM     50  CA  CMT d   1       3.458 -16.451  12.492  0.00  0.00     0.104 C 
ATOM     51  H42 CMT d   1       2.816 -15.825  13.130  0.00  0.00     0.089 H 
BRANCH  50  52
ATOM     52  C   CMT d   1       4.093 -17.575  13.299  0.00  0.00     0.282 C 
ATOM     53  O   CMT d   1       4.901 -18.341  12.803  0.00  0.00    -0.263 OA
BRANCH  52  54
ATOM     54  OXT CMT d   1       3.784 -17.569  14.584  0.00  0.00    -0.325 OA
BRANCH  54  55
ATOM     55  C1  CMT d   1       4.193 -18.787  15.201  0.00  0.00     0.013 C 
ATOM     56  H46 CMT d   1       3.928 -18.764  16.268  0.00  0.00     0.067 H 
ATOM     57  H47 CMT d   1       5.282 -18.904  15.096  0.00  0.00     0.067 H 
ATOM     58  H48 CMT d   1       3.685 -19.633  14.715  0.00  0.00     0.067 H 
ENDBRANCH  54  55
ENDBRANCH  52  54
ENDBRANCH  50  52
BRANCH  50  59
ATOM     59  CB  CMT d   1       2.677 -16.921  11.270  0.00  0.00     0.002 C 
ATOM     60  H43 CMT d   1       3.380 -17.306  10.517  0.00  0.00     0.052 H 
ATOM     61  H44 CMT d   1       2.118 -16.073  10.849  0.00  0.00     0.052 H 
BRANCH  59  62
ATOM     62  SG  CMT d   1       1.511 -18.238  11.730  0.00  0.00    -0.180 SA
ATOM     63  H45 CMT d   1       1.004 -18.537  10.912  0.00  0.00     0.101 HD
ENDBRANCH  59  62
ENDBRANCH  50  59
ENDBRANCH  48  50
ENDBRANCH  44  46
BRANCH  44  64
ATOM     64  CB  THR d   1       5.343 -12.494  10.288  0.00  0.00     0.060 C 
ATOM     65  H36 THR d   1       4.478 -11.839  10.466  0.00  0.00     0.086 H 
BRANCH  64  66
ATOM     66  OG1 THR d   1       5.051 -13.419   9.224  0.00  0.00    -0.393 OA
ATOM     67  H37 THR d   1       5.809 -13.969   9.067  0.00  0.00     0.210 HD
ENDBRANCH  64  66
BRANCH  64  68
ATOM     68  CG2 THR d   1       6.579 -11.654   9.911  0.00  0.00    -0.050 C 
ATOM     69  H38 THR d   1       6.364 -11.072   9.003  0.00  0.00     0.031 H 
ATOM     70  H39 THR d   1       7.433 -12.322   9.725  0.00  0.00     0.031 H 
ATOM     71  H40 THR d   1       6.822 -10.969  10.736  0.00  0.00     0.031 H 
ENDBRANCH  64  68
ENDBRANCH  44  64
ENDBRANCH  42  44
ENDBRANCH   1  40
BRANCH   1  72
ATOM     72  CB  LYS d   1      10.223 -14.188  10.883  0.00  0.00    -0.038 C 
ATOM     73  H23 LYS d   1      10.467 -13.447  11.658  0.00  0.00     0.036 H 
ATOM     74  H24 LYS d   1       9.877 -13.670   9.976  0.00  0.00     0.036 H 
BRANCH  72  75
ATOM     75  CG  LYS d   1      11.491 -14.939  10.538  0.00  0.00    -0.061 C 
ATOM     76  H25 LYS d   1      11.237 -15.946  10.175  0.00  0.00     0.033 H 
ATOM     77  H26 LYS d   1      12.127 -15.021  11.432  0.00  0.00     0.033 H 
BRANCH  75  78
ATOM     78  CD  LYS d   1      12.241 -14.167   9.439  0.00  0.00    -0.043 C 
ATOM     79  H27 LYS d   1      12.925 -13.447   9.911  0.00  0.00     0.035 H 
ATOM     80  H28 LYS d   1      11.511 -13.627   8.819  0.00  0.00     0.035 H 
BRANCH  78  81
ATOM     81  CE  LYS d   1      13.048 -15.109   8.549  0.00  0.00     0.080 C 
ATOM     82  H29 LYS d   1      13.271 -14.591   7.605  0.00  0.00     0.075 H 
ATOM     83  H30 LYS d   1      12.439 -16.001   8.343  0.00  0.00     0.075 H 
BRANCH  81  84
ATOM     84  NZ  LYS d   1      14.333 -15.546   9.163  0.00  0.00    -0.079 N 
ATOM     85  H31 LYS d   1      14.816 -16.163   8.529  0.00  0.00     0.274 HD
ATOM     86  H32 LYS d   1      14.145 -16.032  10.026  0.00  0.00     0.274 HD
ATOM     87  H33 LYS d   1      14.908 -14.739   9.350  0.00  0.00     0.274 HD
ENDBRANCH  81  84
ENDBRANCH  78  81
ENDBRANCH  75  78
ENDBRANCH  72  75
ENDBRANCH   1  72
TORSDOF 29
