REMARK  9 active torsions:
REMARK  status: ('A' for Active; 'I' for Inactive)
REMARK    1  A    between atoms: N1_8  and  C1'_9 
REMARK    2  A    between atoms: C3'_11  and  O3'_12 
REMARK    3  A    between atoms: C4'_14  and  C5'_15 
REMARK    4  A    between atoms: C5'_15  and  O5'_16 
REMARK    5  A    between atoms: O5'_16  and  PA_17 
REMARK    6  A    between atoms: PA_17  and  N3A_20 
REMARK    7  A    between atoms: N3A_20  and  PB_21 
REMARK    8  A    between atoms: PB_21  and  O3B_24 
REMARK    9  A    between atoms: O3B_24  and  PG_25 
ROOT
ATOM      1  C1' DUP d   1     -12.940  11.678   2.191  0.00  0.00     0.116 C 
ATOM      2  C2' DUP d   1     -13.103  11.698   3.724  0.00  0.00     0.002 C 
ATOM      3  C3' DUP d   1     -13.863  10.443   4.017  0.00  0.00     0.066 C 
ATOM      4  O4' DUP d   1     -13.120  10.336   1.787  0.00  0.00    -0.356 OA
ATOM      5  C4' DUP d   1     -13.310   9.507   2.943  0.00  0.00     0.087 C 
ATOM      6  H4  DUP d   1     -11.935  12.027   1.912  0.00  0.00     0.118 H 
ATOM      7  H5  DUP d   1     -13.670  12.584   4.047  0.00  0.00     0.043 H 
ATOM      8  H6  DUP d   1     -12.123  11.688   4.223  0.00  0.00     0.043 H 
ATOM      9  H7  DUP d   1     -14.946  10.591   3.898  0.00  0.00     0.087 H 
ATOM     10  H9  DUP d   1     -12.345   9.107   3.287  0.00  0.00     0.090 H 
ENDROOT
BRANCH   5  11
ATOM     11  C5' DUP d   1     -14.176   8.358   2.567  0.00  0.00     0.057 C 
ATOM     12  H10 DUP d   1     -14.316   7.701   3.438  0.00  0.00     0.079 H 
ATOM     13  H11 DUP d   1     -13.702   7.790   1.752  0.00  0.00     0.079 H 
BRANCH  11  14
ATOM     14  O5' DUP d   1     -15.469   8.862   2.123  0.00  0.00    -0.293 OA
BRANCH  14  15
ATOM     15  PA  DUP d   1     -16.542   7.783   1.535  0.00  0.00     0.368 P 
ATOM     16  O1A DUP d   1     -17.780   8.587   1.106  0.00  0.00    -0.629 OA
ATOM     17  O2A DUP d   1     -16.780   6.712   2.569  0.00  0.00    -0.629 OA
BRANCH  15  18
ATOM     18  N3A DUP d   1     -15.760   7.137   0.202  0.00  0.00    -0.225 N 
ATOM     19  H12 DUP d   1     -15.360   7.794  -0.437  0.00  0.00     0.178 HD
BRANCH  18  20
ATOM     20  PB  DUP d   1     -15.571   5.527  -0.182  0.00  0.00     0.379 P 
ATOM     21  O1B DUP d   1     -15.568   5.431  -1.702  0.00  0.00    -0.629 OA
ATOM     22  O2B DUP d   1     -16.575   4.676   0.554  0.00  0.00    -0.629 OA
BRANCH  20  23
ATOM     23  O3B DUP d   1     -14.095   5.134   0.292  0.00  0.00    -0.178 OA
BRANCH  23  24
ATOM     24  PG  DUP d   1     -13.612   4.372   1.626  0.00  0.00     0.431 P 
ATOM     25  O2G DUP d   1     -13.328   2.974   1.221  0.00  0.00    -0.616 OA
ATOM     26  O1G DUP d   1     -14.676   4.572   2.692  0.00  0.00    -0.616 OA
ATOM     27  O3G DUP d   1     -12.300   5.091   1.960  0.00  0.00    -0.616 OA
ENDBRANCH  23  24
ENDBRANCH  20  23
ENDBRANCH  18  20
ENDBRANCH  15  18
ENDBRANCH  14  15
ENDBRANCH  11  14
ENDBRANCH   5  11
BRANCH   3  28
ATOM     28  O3' DUP d   1     -13.594   9.970   5.341  0.00  0.00    -0.393 OA
ATOM     29  H8  DUP d   1     -14.089   9.174   5.498  0.00  0.00     0.210 HD
ENDBRANCH   3  28
BRANCH   1  30
ATOM     30  N1  DUP d   1     -13.959  12.547   1.550  0.00  0.00    -0.282 N 
ATOM     31  C6  DUP d   1     -15.266  12.090   1.458  0.00  0.00    -0.008 A 
ATOM     32  C5  DUP d   1     -16.235  12.895   0.938  0.00  0.00    -0.002 A 
ATOM     33  H2  DUP d   1     -15.518  11.088   1.802  0.00  0.00     0.112 H 
ATOM     34  C4  DUP d   1     -15.851  14.153   0.439  0.00  0.00     0.250 A 
ATOM     35  H1  DUP d   1     -17.275  12.574   0.910  0.00  0.00     0.094 H 
ATOM     36  O4  DUP d   1     -16.689  14.945  -0.047  0.00  0.00    -0.268 OA
ATOM     37  N3  DUP d   1     -14.548  14.561   0.492  0.00  0.00    -0.275 N 
ATOM     38  C2  DUP d   1     -13.619  13.805   1.067  0.00  0.00     0.331 A 
ATOM     39  H3  DUP d   1     -14.290  15.441   0.092  0.00  0.00     0.173 HD
ATOM     40  O2  DUP d   1     -12.438  14.244   1.078  0.00  0.00    -0.246 OA
ENDBRANCH   1  30
TORSDOF 9
