REMARK  3 active torsions:
REMARK  status: ('A' for Active; 'I' for Inactive)
REMARK    1  A    between atoms: C5_1  and  C16_19 
REMARK    2  A    between atoms: C1_8  and  C7_3 
REMARK    3  A    between atoms: C2_9  and  C9_12 
ROOT
ATOM      1  C5  5M8 d   1       6.250   8.040  19.130  0.00  0.00     0.049 A 
ATOM      2  C6  5M8 d   1       5.789   7.745  21.463  0.00  0.00     0.068 A 
ATOM      3  C8  5M8 d   1       3.769   6.666  22.203  0.00  0.00    -0.049 A 
ATOM      4  C1  5M8 d   1       5.024   7.370  18.753  0.00  0.00     0.077 A 
ATOM      5  C2  5M8 d   1       4.195   6.925  19.753  0.00  0.00     0.006 A 
ATOM      6  C3  5M8 d   1       4.547   7.090  21.121  0.00  0.00     0.006 A 
ATOM      7  N4  5M8 d   1       6.595   8.193  20.428  0.00  0.00    -0.252 NA
ATOM      8  C11 5M8 d   1       6.147   7.910  22.813  0.00  0.00    -0.053 A 
ATOM      9  C12 5M8 d   1       4.180   6.840  23.524  0.00  0.00     0.035 A 
ATOM     10  C14 5M8 d   1       5.391   7.492  23.834  0.00  0.00    -0.060 A 
ATOM     11 CL1  5M8 d   1       3.251   6.273  24.800  0.00  0.00    -0.084 Cl
ATOM     12  H1  5M8 d   1       2.816   6.187  22.009  0.00  0.00     0.087 H 
ATOM     13  H5  5M8 d   1       7.086   8.402  23.038  0.00  0.00     0.087 H 
ATOM     14  H6  5M8 d   1       5.698   7.649  24.862  0.00  0.00     0.086 H 
ENDROOT
BRANCH   5  15
ATOM     15  C9  5M8 d   1       2.909   6.250  19.425  0.00  0.00    -0.024 A 
ATOM     16  C17 5M8 d   1       2.790   4.844  19.566  0.00  0.00    -0.072 A 
ATOM     17  C20 5M8 d   1       1.604   4.159  19.323  0.00  0.00    -0.082 A 
ATOM     18  H2  5M8 d   1       3.661   4.279  19.877  0.00  0.00     0.084 H 
ATOM     19  C21 5M8 d   1       0.506   4.841  18.826  0.00  0.00    -0.083 A 
ATOM     20  H3  5M8 d   1       1.540   3.095  19.522  0.00  0.00     0.083 H 
ATOM     21  C19 5M8 d   1       0.575   6.227  18.649  0.00  0.00    -0.082 A 
ATOM     22  H4  5M8 d   1      -0.402   4.304  18.576  0.00  0.00     0.083 H 
ATOM     23  C18 5M8 d   1       1.746   6.928  18.959  0.00  0.00    -0.072 A 
ATOM     24  H11 5M8 d   1      -0.287   6.763  18.268  0.00  0.00     0.083 H 
ATOM     25  H10 5M8 d   1       1.768   8.005  18.843  0.00  0.00     0.084 H 
ENDBRANCH   5  15
BRANCH   4  26
ATOM     26  C7  5M8 d   1       4.636   7.233  17.344  0.00  0.00     0.212 C 
ATOM     27  O10 5M8 d   1       4.115   8.087  16.638  0.00  0.00    -0.644 OA
ATOM     28  O13 5M8 d   1       4.797   5.989  16.856  0.00  0.00    -0.644 OA
ENDBRANCH   4  26
BRANCH   1  29
ATOM     29  C16 5M8 d   1       7.110   8.531  17.987  0.00  0.00    -0.034 C 
ATOM     30  H7  5M8 d   1       8.009   9.021  18.389  0.00  0.00     0.035 H 
ATOM     31  H8  5M8 d   1       6.540   9.251  17.382  0.00  0.00     0.035 H 
ATOM     32  H9  5M8 d   1       7.407   7.678  17.359  0.00  0.00     0.035 H 
ENDBRANCH   1  29
TORSDOF 3
