REMARK  3 active torsions:
REMARK  status: ('A' for Active; 'I' for Inactive)
REMARK    1  A    between atoms: C2_2  and  N20_20 
REMARK    2  A    between atoms: C3_3  and  C17_17 
REMARK    3  A    between atoms: C4_4  and  C11_11 
ROOT
ATOM      1  N1  5M7 d   1       6.151   8.097  19.716  0.00  0.00    -0.235 NA
ATOM      2  C2  5M7 d   1       5.744   7.918  18.454  0.00  0.00     0.124 A 
ATOM      3  C3  5M7 d   1       4.469   7.250  18.154  0.00  0.00     0.093 A 
ATOM      4  C4  5M7 d   1       3.687   6.787  19.193  0.00  0.00     0.007 A 
ATOM      5  C5  5M7 d   1       5.375   7.639  20.751  0.00  0.00     0.070 A 
ATOM      6  C6  5M7 d   1       4.139   6.970  20.545  0.00  0.00     0.007 A 
ATOM      7  C7  5M7 d   1       3.377   6.507  21.632  0.00  0.00    -0.049 A 
ATOM      8  C8  5M7 d   1       3.836   6.705  22.907  0.00  0.00     0.035 A 
ATOM      9  C9  5M7 d   1       5.068   7.366  23.143  0.00  0.00    -0.060 A 
ATOM     10  C10 5M7 d   1       5.822   7.825  22.098  0.00  0.00    -0.053 A 
ATOM     11 CL1  5M7 d   1       2.912   6.167  24.229  0.00  0.00    -0.084 Cl
ATOM     12  H1  5M7 d   1       2.435   5.998  21.462  0.00  0.00     0.087 H 
ATOM     13  H2  5M7 d   1       5.415   7.509  24.160  0.00  0.00     0.086 H 
ATOM     14  H3  5M7 d   1       6.761   8.331  22.291  0.00  0.00     0.087 H 
ENDROOT
BRANCH   2  15
ATOM     15  N20 5M7 d   1       6.548   8.413  17.353  0.00  0.00    -0.267 NA
ATOM     16  C21 5M7 d   1       6.668   7.495  16.218  0.00  0.00    -0.015 C 
ATOM     17  C24 5M7 d   1       7.820   6.504  16.413  0.00  0.00    -0.054 C 
ATOM     18  H9  5M7 d   1       6.851   8.079  15.304  0.00  0.00     0.056 H 
ATOM     19  H10 5M7 d   1       5.728   6.933  16.112  0.00  0.00     0.056 H 
ATOM     20  C25 5M7 d   1       8.170   6.369  17.881  0.00  0.00    -0.063 C 
ATOM     21  H15 5M7 d   1       8.702   6.864  15.863  0.00  0.00     0.034 H 
ATOM     22  H16 5M7 d   1       7.520   5.521  16.022  0.00  0.00     0.034 H 
ATOM     23  C23 5M7 d   1       8.672   7.692  18.419  0.00  0.00    -0.054 C 
ATOM     24  H17 5M7 d   1       7.274   6.064  18.442  0.00  0.00     0.033 H 
ATOM     25  H18 5M7 d   1       8.954   5.607  18.000  0.00  0.00     0.033 H 
ATOM     26  C22 5M7 d   1       7.866   8.856  17.823  0.00  0.00    -0.015 C 
ATOM     27  H13 5M7 d   1       8.566   7.701  19.514  0.00  0.00     0.034 H 
ATOM     28  H14 5M7 d   1       9.732   7.812  18.152  0.00  0.00     0.034 H 
ATOM     29  H11 5M7 d   1       7.729   9.628  18.595  0.00  0.00     0.056 H 
ATOM     30  H12 5M7 d   1       8.424   9.280  16.975  0.00  0.00     0.056 H 
ENDBRANCH   2  15
BRANCH   3  31
ATOM     31  C17 5M7 d   1       4.021   7.086  16.761  0.00  0.00     0.213 C 
ATOM     32  O18 5M7 d   1       3.788   6.049  16.144  0.00  0.00    -0.644 OA
ATOM     33  O19 5M7 d   1       3.820   8.297  16.143  0.00  0.00    -0.644 OA
ENDBRANCH   3  31
BRANCH   4  34
ATOM     34  C11 5M7 d   1       2.421   6.091  18.934  0.00  0.00    -0.024 A 
ATOM     35  C12 5M7 d   1       2.431   4.686  19.038  0.00  0.00    -0.072 A 
ATOM     36  C15 5M7 d   1       1.269   3.962  18.801  0.00  0.00    -0.082 A 
ATOM     37  H4  5M7 d   1       3.346   4.169  19.303  0.00  0.00     0.084 H 
ATOM     38  C16 5M7 d   1       0.094   4.633  18.449  0.00  0.00    -0.083 A 
ATOM     39  H7  5M7 d   1       1.273   2.882  18.889  0.00  0.00     0.083 H 
ATOM     40  C14 5M7 d   1       0.069   6.020  18.330  0.00  0.00    -0.082 A 
ATOM     41  H8  5M7 d   1      -0.811   4.065  18.266  0.00  0.00     0.083 H 
ATOM     42  C13 5M7 d   1       1.231   6.769  18.580  0.00  0.00    -0.072 A 
ATOM     43  H6  5M7 d   1      -0.848   6.522  18.044  0.00  0.00     0.083 H 
ATOM     44  H5  5M7 d   1       1.216   7.850  18.503  0.00  0.00     0.084 H 
ENDBRANCH   4  34
TORSDOF 3
