REMARK  9 active torsions:
REMARK  status: ('A' for Active; 'I' for Inactive)
REMARK    1  A    between atoms: N1_8  and  C1'_9 
REMARK    2  A    between atoms: C3'_11  and  O3'_12 
REMARK    3  A    between atoms: C4'_14  and  C5'_15 
REMARK    4  A    between atoms: C5'_15  and  O5'_16 
REMARK    5  A    between atoms: O5'_16  and  PA_17 
REMARK    6  A    between atoms: PA_17  and  N3A_20 
REMARK    7  A    between atoms: N3A_20  and  PB_21 
REMARK    8  A    between atoms: PB_21  and  O3B_24 
REMARK    9  A    between atoms: O3B_24  and  PG_25 
ROOT
ATOM      1  C1' DUP d   1      16.752  -5.494  -1.219  0.00  0.00     0.115 C 
ATOM      2  C2' DUP d   1      16.883  -5.593  -2.745  0.00  0.00     0.002 C 
ATOM      3  C3' DUP d   1      16.144  -6.868  -3.110  0.00  0.00     0.066 C 
ATOM      4  O4' DUP d   1      15.661  -6.338  -0.875  0.00  0.00    -0.356 OA
ATOM      5  C4' DUP d   1      15.051  -6.874  -2.045  0.00  0.00     0.087 C 
ATOM      6  H4  DUP d   1      16.542  -4.460  -0.909  0.00  0.00     0.118 H 
ATOM      7  H5  DUP d   1      17.941  -5.659  -3.041  0.00  0.00     0.043 H 
ATOM      8  H6  DUP d   1      16.419  -4.722  -3.232  0.00  0.00     0.043 H 
ATOM      9  H7  DUP d   1      16.801  -7.739  -2.972  0.00  0.00     0.087 H 
ATOM     10  H9  DUP d   1      14.221  -6.234  -2.379  0.00  0.00     0.090 H 
ENDROOT
BRANCH   5  11
ATOM     11  C5' DUP d   1      14.495  -8.239  -1.683  0.00  0.00     0.057 C 
ATOM     12  H10 DUP d   1      14.052  -8.709  -2.573  0.00  0.00     0.079 H 
ATOM     13  H11 DUP d   1      13.727  -8.134  -0.903  0.00  0.00     0.079 H 
BRANCH  11  14
ATOM     14  O5' DUP d   1      15.592  -9.056  -1.188  0.00  0.00    -0.293 OA
BRANCH  14  15
ATOM     15  PA  DUP d   1      15.230 -10.539  -0.660  0.00  0.00     0.368 P 
ATOM     16  O1A DUP d   1      14.382 -11.144  -1.728  0.00  0.00    -0.629 OA
ATOM     17  O2A DUP d   1      16.569 -11.197  -0.303  0.00  0.00    -0.629 OA
BRANCH  15  18
ATOM     18  N3A DUP d   1      14.317 -10.243   0.695  0.00  0.00    -0.225 N 
ATOM     19  H12 DUP d   1      14.729  -9.619   1.359  0.00  0.00     0.178 HD
BRANCH  18  20
ATOM     20  PB  DUP d   1      12.813 -10.834   1.110  0.00  0.00     0.379 P 
ATOM     21  O1B DUP d   1      12.639 -12.170   0.372  0.00  0.00    -0.629 OA
ATOM     22  O2B DUP d   1      12.786 -10.839   2.648  0.00  0.00    -0.629 OA
BRANCH  20  23
ATOM     23  O3B DUP d   1      11.683  -9.777   0.604  0.00  0.00    -0.178 OA
BRANCH  23  24
ATOM     24  PG  DUP d   1      10.774  -9.800  -0.767  0.00  0.00     0.431 P 
ATOM     25  O2G DUP d   1      11.512 -10.580  -1.844  0.00  0.00    -0.616 OA
ATOM     26  O1G DUP d   1       9.527 -10.480  -0.254  0.00  0.00    -0.616 OA
ATOM     27  O3G DUP d   1      10.758  -8.290  -1.062  0.00  0.00    -0.616 OA
ENDBRANCH  23  24
ENDBRANCH  20  23
ENDBRANCH  18  20
ENDBRANCH  15  18
ENDBRANCH  14  15
ENDBRANCH  11  14
ENDBRANCH   5  11
BRANCH   3  28
ATOM     28  O3' DUP d   1      15.684  -6.893  -4.467  0.00  0.00    -0.393 OA
ATOM     29  H8  DUP d   1      15.232  -7.712  -4.632  0.00  0.00     0.210 HD
ENDBRANCH   3  28
BRANCH   1  30
ATOM     30  N1  DUP d   1      18.020  -5.943  -0.613  0.00  0.00    -0.294 N 
ATOM     31  C6  DUP d   1      18.310  -7.242  -0.556  0.00  0.00    -0.010 A 
ATOM     32  C5  DUP d   1      19.511  -7.638  -0.009  0.00  0.00    -0.016 A 
ATOM     33  H2  DUP d   1      17.607  -7.981  -0.937  0.00  0.00     0.112 H 
ATOM     34  C4  DUP d   1      20.376  -6.692   0.509  0.00  0.00     0.183 A 
ATOM     35  H1  DUP d   1      19.778  -8.693   0.015  0.00  0.00     0.092 H 
ATOM     36  O4  DUP d   1      21.564  -7.077   1.006  0.00  0.00    -0.172 OA
ATOM     37  N3  DUP d   1      20.041  -5.392   0.456  0.00  0.00    -0.298 N 
ATOM     38  C2  DUP d   1      18.887  -5.024  -0.133  0.00  0.00     0.262 A 
ATOM     39  H3  DUP d   1      20.646  -4.701   0.852  0.00  0.00     0.171 HD
ATOM     40  O2  DUP d   1      18.584  -3.702  -0.194  0.00  0.00    -0.151 OA
ENDBRANCH   1  30
TORSDOF 9
