REMARK  8 active torsions:
REMARK  status: ('A' for Active; 'I' for Inactive)
REMARK    1  A    between atoms: C2A_15  and  CM2_1 
REMARK    2  A    between atoms: C4A_13  and  N4A_2 
REMARK    3  A    between atoms: C4_10  and  CM4_3 
REMARK    4  A    between atoms: C7_5  and  O1_4 
REMARK    5  A    between atoms: C6_6  and  C7_5 
REMARK    6  A    between atoms: C5_9  and  C6_6 
REMARK    7  A    between atoms: C7A_12  and  N3_11 
REMARK    8  A    between atoms: C5A_18  and  C7A_12 
ROOT
ATOM      1  C2  VIB d   1       8.980  17.553  57.693  0.00  0.00     0.018 A 
ATOM      2  S1  VIB d   1       9.681  16.565  56.701  0.00  0.00    -0.087 SA
ATOM      3  C5  VIB d   1      11.076  17.182  56.424  0.00  0.00     0.008 A 
ATOM      4  C4  VIB d   1      11.211  18.398  57.189  0.00  0.00     0.021 A 
ATOM      5  N3  VIB d   1       9.879  18.633  57.985  0.00  0.00    -0.349 N 
ATOM      6  H14 VIB d   1       7.975  17.439  58.096  0.00  0.00     0.123 H 
ENDROOT
BRANCH   5   7
ATOM      7  C7A VIB d   1       9.695  19.811  58.827  0.00  0.00     0.028 C 
ATOM      8  H15 VIB d   1       9.269  20.626  58.223  0.00  0.00     0.072 H 
ATOM      9  H16 VIB d   1      10.669  20.125  59.230  0.00  0.00     0.072 H 
BRANCH   7  10
ATOM     10  C5A VIB d   1       8.742  19.491  59.993  0.00  0.00     0.023 A 
ATOM     11  C4A VIB d   1       8.823  18.582  61.016  0.00  0.00     0.132 A 
ATOM     12  N3A VIB d   1       7.851  18.502  61.927  0.00  0.00    -0.216 NA
ATOM     13  C2A VIB d   1       6.765  19.317  61.828  0.00  0.00     0.124 A 
ATOM     14  N1A VIB d   1       6.678  20.228  60.807  0.00  0.00    -0.245 NA
ATOM     15  C6A VIB d   1       7.659  20.325  59.873  0.00  0.00     0.015 A 
ATOM     16  H17 VIB d   1       7.589  21.038  59.059  0.00  0.00     0.116 H 
BRANCH  11  17
ATOM     17  N4A VIB d   1       9.987  17.727  61.102  0.00  0.00    -0.383 N 
ATOM     18  H4  VIB d   1      10.731  17.797  60.393  0.00  0.00     0.157 HD
ATOM     19  H5  VIB d   1      10.072  17.048  61.872  0.00  0.00     0.157 HD
ENDBRANCH  11  17
BRANCH  13  20
ATOM     20  CM2 VIB d   1       5.677  19.182  62.907  0.00  0.00    -0.019 C 
ATOM     21  H1  VIB d   1       5.961  18.392  63.617  0.00  0.00     0.037 H 
ATOM     22  H2  VIB d   1       4.720  18.921  62.432  0.00  0.00     0.037 H 
ATOM     23  H3  VIB d   1       5.572  20.137  63.444  0.00  0.00     0.037 H 
ENDBRANCH  13  20
ENDBRANCH   7  10
ENDBRANCH   5   7
BRANCH   4  24
ATOM     24  CM4 VIB d   1      12.396  19.369  57.248  0.00  0.00    -0.036 C 
ATOM     25  H6  VIB d   1      13.210  18.993  56.611  0.00  0.00     0.035 H 
ATOM     26  H7  VIB d   1      12.751  19.451  58.286  0.00  0.00     0.035 H 
ATOM     27  H8  VIB d   1      12.077  20.359  56.890  0.00  0.00     0.035 H 
ENDBRANCH   4  24
BRANCH   3  28
ATOM     28  C6  VIB d   1      12.155  16.607  55.524  0.00  0.00    -0.013 C 
ATOM     29  H12 VIB d   1      11.747  16.415  54.521  0.00  0.00     0.044 H 
ATOM     30  H13 VIB d   1      12.997  17.310  55.448  0.00  0.00     0.044 H 
BRANCH  28  31
ATOM     31  C7  VIB d   1      12.615  15.314  56.152  0.00  0.00     0.021 C 
ATOM     32  H10 VIB d   1      11.743  14.704  56.430  0.00  0.00     0.074 H 
ATOM     33  H11 VIB d   1      13.241  14.756  55.440  0.00  0.00     0.074 H 
BRANCH  31  34
ATOM     34  O1  VIB d   1      13.367  15.629  57.307  0.00  0.00    -0.401 OA
ATOM     35  H9  VIB d   1      13.666  14.826  57.717  0.00  0.00     0.209 HD
ENDBRANCH  31  34
ENDBRANCH  28  31
ENDBRANCH   3  28
TORSDOF 8
