REMARK  9 active torsions:
REMARK  status: ('A' for Active; 'I' for Inactive)
REMARK    1  A    between atoms: N1_3  and  O1_1 
REMARK       I    between atoms: N1_3  and  C1_4 
REMARK    2  A    between atoms: C1_4  and  C2_5 
REMARK    3  A    between atoms: C2_5  and  C3_6 
REMARK    4  A    between atoms: C3_6  and  C4_7 
REMARK    5  A    between atoms: C4_7  and  C5_8 
REMARK    6  A    between atoms: C5_8  and  C6_9 
REMARK    7  A    between atoms: C6_9  and  C7_10 
REMARK    8  A    between atoms: C7_10  and  C8_11 
REMARK       I    between atoms: C8_11  and  N2_13 
REMARK    9  A    between atoms: N2_13  and  C9_14 
ROOT
ATOM      1  C6  SHH d   1       6.392  -2.272  -1.759  0.00  0.00    -0.057 C 
ATOM      2  H11 SHH d   1       6.112  -2.647  -2.754  0.00  0.00     0.033 H 
ATOM      3  H12 SHH d   1       7.487  -2.183  -1.695  0.00  0.00     0.033 H 
ENDROOT
BRANCH   1   4
ATOM      4  C5  SHH d   1       5.910  -3.248  -0.706  0.00  0.00    -0.065 C 
ATOM      5  H9  SHH d   1       6.293  -2.946   0.280  0.00  0.00     0.033 H 
ATOM      6  H10 SHH d   1       4.810  -3.256  -0.686  0.00  0.00     0.033 H 
BRANCH   4   7
ATOM      7  C4  SHH d   1       6.425  -4.640  -1.050  0.00  0.00    -0.065 C 
ATOM      8  H7  SHH d   1       6.426  -4.765  -2.143  0.00  0.00     0.033 H 
ATOM      9  H8  SHH d   1       7.450  -4.750  -0.668  0.00  0.00     0.033 H 
BRANCH   7  10
ATOM     10  C3  SHH d   1       5.546  -5.704  -0.429  0.00  0.00    -0.057 C 
ATOM     11  H5  SHH d   1       4.526  -5.309  -0.316  0.00  0.00     0.033 H 
ATOM     12  H6  SHH d   1       5.527  -6.586  -1.086  0.00  0.00     0.033 H 
BRANCH  10  13
ATOM     13  C2  SHH d   1       6.077  -6.107   0.929  0.00  0.00     0.011 C 
ATOM     14  H3  SHH d   1       7.045  -6.612   0.793  0.00  0.00     0.047 H 
ATOM     15  H4  SHH d   1       6.219  -5.200   1.535  0.00  0.00     0.047 H 
BRANCH  13  16
ATOM     16  C1  SHH d   1       5.145  -7.040   1.667  0.00  0.00     0.240 C 
ATOM     17  O2  SHH d   1       5.039  -7.031   2.886  0.00  0.00    -0.271 OA
ATOM     18  N1  SHH d   1       4.439  -7.886   0.954  0.00  0.00    -0.237 N 
ATOM     19  H2  SHH d   1       4.541  -7.926  -0.040  0.00  0.00     0.197 HD
BRANCH  18  20
ATOM     20  O1  SHH d   1       3.558  -8.714   1.604  0.00  0.00    -0.287 OA
ATOM     21  H1  SHH d   1       2.915  -8.190   2.067  0.00  0.00     0.244 HD
ENDBRANCH  18  20
ENDBRANCH  13  16
ENDBRANCH  10  13
ENDBRANCH   7  10
ENDBRANCH   4   7
ENDBRANCH   1   4
BRANCH   1  22
ATOM     22  C7  SHH d   1       5.766  -0.901  -1.547  0.00  0.00     0.010 C 
ATOM     23  H13 SHH d   1       4.671  -1.001  -1.537  0.00  0.00     0.047 H 
ATOM     24  H14 SHH d   1       6.066  -0.235  -2.369  0.00  0.00     0.047 H 
BRANCH  22  25
ATOM     25  C8  SHH d   1       6.223  -0.308  -0.234  0.00  0.00     0.222 C 
ATOM     26  O3  SHH d   1       5.433  -0.154   0.685  0.00  0.00    -0.273 OA
ATOM     27  N2  SHH d   1       7.517  -0.011  -0.199  0.00  0.00    -0.327 N 
ATOM     28  H15 SHH d   1       8.033  -0.204  -1.034  0.00  0.00     0.169 HD
BRANCH  27  29
ATOM     29  C9  SHH d   1       8.254   0.542   0.868  0.00  0.00     0.034 A 
ATOM     30  C10 SHH d   1       9.632   0.408   0.820  0.00  0.00    -0.057 A 
ATOM     31  C11 SHH d   1      10.435   0.943   1.822  0.00  0.00    -0.081 A 
ATOM     32  H16 SHH d   1      10.090  -0.120  -0.008  0.00  0.00     0.086 H 
ATOM     33  C12 SHH d   1       9.859   1.649   2.868  0.00  0.00    -0.083 A 
ATOM     34  H17 SHH d   1      11.510   0.808   1.786  0.00  0.00     0.083 H 
ATOM     35  C13 SHH d   1       8.486   1.787   2.933  0.00  0.00    -0.081 A 
ATOM     36  H18 SHH d   1      10.486   2.092   3.634  0.00  0.00     0.083 H 
ATOM     37  C14 SHH d   1       7.688   1.250   1.935  0.00  0.00    -0.057 A 
ATOM     38  H19 SHH d   1       8.033   2.315   3.764  0.00  0.00     0.083 H 
ATOM     39  H20 SHH d   1       6.613   1.380   1.981  0.00  0.00     0.086 H 
ENDBRANCH  27  29
ENDBRANCH  22  25
ENDBRANCH   1  22
TORSDOF 9
