REMARK  11 active torsions:
REMARK  status: ('A' for Active; 'I' for Inactive)
REMARK    1  A    between atoms: N1_4  and  O1_1 
REMARK       I    between atoms: C13_18  and  N1_4 
REMARK    2  A    between atoms: C4_9  and  N2_5 
REMARK    3  A    between atoms: N2_5  and  C17_21 
REMARK    4  A    between atoms: N2_5  and  C16_22 
REMARK    5  A    between atoms: C7_12  and  C1_6 
REMARK    6  A    between atoms: C8_13  and  C7_12 
REMARK    7  A    between atoms: C9_14  and  C8_13 
REMARK    8  A    between atoms: C8_13  and  C14_19 
REMARK    9  A    between atoms: C11_16  and  C10_15 
REMARK   10  A    between atoms: C10_15  and  C15_20 
REMARK   11  A    between atoms: C12_17  and  C13_18 
ROOT
ATOM      1  C8  TSN d   1      -1.344  28.314  -4.325  0.00  0.00     0.022 C 
ATOM      2  H7  TSN d   1      -1.424  29.369  -4.626  0.00  0.00     0.058 H 
ENDROOT
BRANCH   1   3
ATOM      3  C7  TSN d   1      -0.349  27.584  -5.181  0.00  0.00     0.166 C 
ATOM      4  O3  TSN d   1       0.018  26.451  -4.885  0.00  0.00    -0.292 OA
BRANCH   3   5
ATOM      5  C1  TSN d   1       0.146  28.236  -6.436  0.00  0.00     0.011 A 
ATOM      6  C2  TSN d   1       1.052  27.564  -7.245  0.00  0.00    -0.067 A 
ATOM      7  C3  TSN d   1       1.510  28.157  -8.412  0.00  0.00    -0.057 A 
ATOM      8  H3  TSN d   1       1.401  26.577  -6.965  0.00  0.00     0.085 H 
ATOM      9  C4  TSN d   1       1.078  29.431  -8.766  0.00  0.00     0.029 A 
ATOM     10  H4  TSN d   1       2.207  27.626  -9.050  0.00  0.00     0.086 H 
ATOM     11  C5  TSN d   1       0.177  30.109  -7.949  0.00  0.00    -0.057 A 
ATOM     12  C6  TSN d   1      -0.290  29.515  -6.782  0.00  0.00    -0.067 A 
ATOM     13  H5  TSN d   1      -0.161  31.102  -8.223  0.00  0.00     0.086 H 
ATOM     14  H6  TSN d   1      -0.990  30.043  -6.144  0.00  0.00     0.085 H 
BRANCH   9  15
ATOM     15  N2  TSN d   1       1.544  30.012  -9.905  0.00  0.00    -0.390 N 
BRANCH  15  16
ATOM     16  C17 TSN d   1       1.116  31.351 -10.272  0.00  0.00    -0.019 C 
ATOM     17  H17 TSN d   1       1.597  31.644 -11.217  0.00  0.00     0.056 H 
ATOM     18  H18 TSN d   1       1.403  32.058  -9.480  0.00  0.00     0.056 H 
ATOM     19  H19 TSN d   1       0.023  31.365 -10.398  0.00  0.00     0.056 H 
ENDBRANCH  15  16
BRANCH  15  20
ATOM     20  C16 TSN d   1       2.489  29.299 -10.755  0.00  0.00    -0.019 C 
ATOM     21  H20 TSN d   1       2.696  28.309 -10.323  0.00  0.00     0.056 H 
ATOM     22  H21 TSN d   1       3.426  29.872 -10.823  0.00  0.00     0.056 H 
ATOM     23  H22 TSN d   1       2.059  29.178 -11.760  0.00  0.00     0.056 H 
ENDBRANCH  15  20
ENDBRANCH   9  15
ENDBRANCH   3   5
ENDBRANCH   1   3
BRANCH   1  24
ATOM     24  C9  TSN d   1      -2.646  27.583  -4.553  0.00  0.00    -0.086 C 
ATOM     25  C10 TSN d   1      -3.882  28.103  -4.503  0.00  0.00    -0.065 C 
ATOM     26  H8  TSN d   1      -2.574  26.521  -4.782  0.00  0.00     0.078 H 
BRANCH  25  27
ATOM     27  C11 TSN d   1      -4.999  27.160  -4.714  0.00  0.00    -0.072 C 
ATOM     28  C12 TSN d   1      -6.298  27.454  -4.813  0.00  0.00    -0.015 C 
ATOM     29  H10 TSN d   1      -6.673  28.476  -4.804  0.00  0.00     0.092 H 
ATOM     30  H9  TSN d   1      -4.734  26.107  -4.798  0.00  0.00     0.084 H 
BRANCH  28  31
ATOM     31  C13 TSN d   1      -7.190  26.270  -4.937  0.00  0.00     0.264 C 
ATOM     32  O2  TSN d   1      -7.058  25.401  -5.788  0.00  0.00    -0.266 OA
ATOM     33  N1  TSN d   1      -8.125  26.221  -3.984  0.00  0.00    -0.234 N 
ATOM     34  H2  TSN d   1      -8.136  26.972  -3.324  0.00  0.00     0.197 HD
BRANCH  33  35
ATOM     35  O1  TSN d   1      -9.083  25.229  -3.820  0.00  0.00    -0.287 OA
ATOM     36  H1  TSN d   1      -9.624  25.434  -3.067  0.00  0.00     0.244 HD
ENDBRANCH  33  35
ENDBRANCH  28  31
ENDBRANCH  25  27
BRANCH  25  37
ATOM     37  C15 TSN d   1      -4.138  29.549  -4.148  0.00  0.00    -0.051 C 
ATOM     38  H14 TSN d   1      -3.178  30.075  -4.036  0.00  0.00     0.033 H 
ATOM     39  H15 TSN d   1      -4.697  29.601  -3.202  0.00  0.00     0.033 H 
ATOM     40  H16 TSN d   1      -4.725  30.024  -4.948  0.00  0.00     0.033 H 
ENDBRANCH  25  37
ENDBRANCH   1  24
BRANCH   1  41
ATOM     41  C14 TSN d   1      -0.948  28.220  -2.851  0.00  0.00    -0.063 C 
ATOM     42  H11 TSN d   1       0.000  28.754  -2.691  0.00  0.00     0.028 H 
ATOM     43  H12 TSN d   1      -0.826  27.163  -2.571  0.00  0.00     0.028 H 
ATOM     44  H13 TSN d   1      -1.734  28.675  -2.230  0.00  0.00     0.028 H 
ENDBRANCH   1  41
TORSDOF 11
