REMARK  5 active torsions:
REMARK  status: ('A' for Active; 'I' for Inactive)
REMARK       I    between atoms: C12_2  and  N2_3 
REMARK    1  A    between atoms: C12_2  and  C11_5 
REMARK    2  A    between atoms: C10_6  and  C9_7 
REMARK    3  A    between atoms: C7_12  and  S_13 
REMARK    4  A    between atoms: S_13  and  N1_16 
REMARK    5  A    between atoms: N1_16  and  C1_17 
ROOT
ATOM      1  C9  5OG d   1      30.180  99.972  31.968  0.00  0.00    -0.035 A 
ATOM      2  C8  5OG d   1      31.356  99.414  32.446  0.00  0.00    -0.051 A 
ATOM      3  C13 5OG d   1      29.663 101.042  32.701  0.00  0.00    -0.073 A 
ATOM      4  C14 5OG d   1      30.303 101.501  33.843  0.00  0.00    -0.081 A 
ATOM      5  C15 5OG d   1      31.472 100.913  34.278  0.00  0.00    -0.060 A 
ATOM      6  C7  5OG d   1      32.008  99.831  33.576  0.00  0.00     0.080 A 
ATOM      7  H3  5OG d   1      31.789  98.592  31.887  0.00  0.00     0.087 H 
ATOM      8  H4  5OG d   1      28.748 101.521  32.373  0.00  0.00     0.084 H 
ATOM      9  H5  5OG d   1      29.880 102.330  34.399  0.00  0.00     0.083 H 
ATOM     10  H6  5OG d   1      31.974 101.289  35.162  0.00  0.00     0.085 H 
ENDROOT
BRANCH   6  11
ATOM     11  S   5OG d   1      33.529  99.140  34.164  0.00  0.00     0.263 S 
ATOM     12  O1  5OG d   1      33.376  98.331  35.567  0.00  0.00    -0.200 OA
ATOM     13  O2  5OG d   1      33.975  97.891  33.250  0.00  0.00    -0.200 OA
BRANCH  11  14
ATOM     14  N1  5OG d   1      34.795 100.164  34.144  0.00  0.00    -0.281 N 
ATOM     15  H7  5OG d   1      35.450 100.095  34.896  0.00  0.00     0.179 HD
BRANCH  14  16
ATOM     16  C1  5OG d   1      35.047 101.138  33.160  0.00  0.00     0.042 A 
ATOM     17  C6  5OG d   1      35.741 100.825  31.973  0.00  0.00    -0.057 A 
ATOM     18  C5  5OG d   1      35.956 101.786  31.010  0.00  0.00    -0.081 A 
ATOM     19  H8  5OG d   1      36.109  99.817  31.817  0.00  0.00     0.086 H 
ATOM     20  C4  5OG d   1      35.475 103.075  31.172  0.00  0.00    -0.083 A 
ATOM     21  H9  5OG d   1      36.509 101.530  30.113  0.00  0.00     0.083 H 
ATOM     22  C3  5OG d   1      34.772 103.388  32.317  0.00  0.00    -0.081 A 
ATOM     23  H10 5OG d   1      35.648 103.827  30.410  0.00  0.00     0.083 H 
ATOM     24  C2  5OG d   1      34.550 102.441  33.293  0.00  0.00    -0.057 A 
ATOM     25  H11 5OG d   1      34.389 104.393  32.451  0.00  0.00     0.083 H 
ATOM     26  H12 5OG d   1      33.982 102.708  34.177  0.00  0.00     0.086 H 
ENDBRANCH  14  16
ENDBRANCH  11  14
ENDBRANCH   6  11
BRANCH   1  27
ATOM     27  C10 5OG d   1      29.538  99.454  30.756  0.00  0.00    -0.068 C 
ATOM     28  C11 5OG d   1      28.339  99.719  30.284  0.00  0.00    -0.013 C 
ATOM     29  H1  5OG d   1      27.796 100.587  30.654  0.00  0.00     0.092 H 
ATOM     30  H2  5OG d   1      30.133  98.757  30.168  0.00  0.00     0.085 H 
BRANCH  28  31
ATOM     31  C12 5OG d   1      27.709  98.841  29.242  0.00  0.00     0.292 C 
ATOM     32  O3  5OG d   1      28.303  98.260  28.407  0.00  0.00    -0.264 OA
ATOM     33  N2  5OG d   1      26.284  98.742  29.364  0.00  0.00    -0.055 NA
ATOM     34  O4  5OG d   1      25.658  97.984  28.497  0.00  0.00    -0.058 OA
ENDBRANCH  28  31
ENDBRANCH   1  27
TORSDOF 5
