REMARK  8 active torsions:
REMARK  status: ('A' for Active; 'I' for Inactive)
REMARK       I    between atoms: C7_2  and  N2_3 
REMARK    1  A    between atoms: C7_2  and  C6_13 
REMARK    2  A    between atoms: N2_3  and  C14_4 
REMARK    3  A    between atoms: N2_3  and  C8_7 
REMARK    4  A    between atoms: C14_4  and  C15_5 
REMARK    5  A    between atoms: C15_5  and  O3_6 
REMARK    6  A    between atoms: C6_13  and  C5_14 
REMARK    7  A    between atoms: C2_19  and  C1_20 
REMARK       I    between atoms: C1_20  and  N1_22 
REMARK    8  A    between atoms: N1_22  and  O2_23 
ROOT
ATOM      1  O4  5OJ d   1      -8.877  14.887  27.829  0.00  0.00    -0.273 OA
ATOM      2  C7  5OJ d   1      -8.065  15.746  28.116  0.00  0.00     0.228 C 
ATOM      3  N2  5OJ d   1      -7.477  15.677  29.415  0.00  0.00    -0.316 N 
ENDROOT
BRANCH   2   4
ATOM      4  C6  5OJ d   1      -7.728  16.826  27.071  0.00  0.00     0.034 C 
ATOM      5  H11 5OJ d   1      -6.665  17.081  27.189  0.00  0.00     0.054 H 
ATOM      6  H12 5OJ d   1      -8.344  17.709  27.296  0.00  0.00     0.054 H 
BRANCH   4   7
ATOM      7  C5  5OJ d   1      -7.955  16.469  25.605  0.00  0.00    -0.049 A 
ATOM      8  C4  5OJ d   1      -8.636  17.313  24.728  0.00  0.00    -0.075 A 
ATOM      9  C3  5OJ d   1      -8.851  16.998  23.394  0.00  0.00    -0.067 A 
ATOM     10  H13 5OJ d   1      -9.014  18.256  25.105  0.00  0.00     0.084 H 
ATOM     11  C2  5OJ d   1      -8.392  15.803  22.847  0.00  0.00     0.034 A 
ATOM     12  H14 5OJ d   1      -9.388  17.698  22.764  0.00  0.00     0.085 H 
ATOM     13  C17 5OJ d   1      -7.708  14.947  23.709  0.00  0.00    -0.067 A 
ATOM     14  C16 5OJ d   1      -7.502  15.276  25.043  0.00  0.00    -0.075 A 
ATOM     15  H16 5OJ d   1      -7.329  14.005  23.330  0.00  0.00     0.085 H 
ATOM     16  H15 5OJ d   1      -6.966  14.576  25.674  0.00  0.00     0.084 H 
BRANCH  11  17
ATOM     17  C1  5OJ d   1      -8.569  15.424  21.413  0.00  0.00     0.275 C 
ATOM     18  O1  5OJ d   1      -8.784  16.207  20.512  0.00  0.00    -0.265 OA
ATOM     19  N1  5OJ d   1      -8.406  14.007  21.138  0.00  0.00    -0.233 N 
ATOM     20  H17 5OJ d   1      -8.203  13.345  21.859  0.00  0.00     0.197 HD
BRANCH  19  21
ATOM     21  O2  5OJ d   1      -8.544  13.647  19.863  0.00  0.00    -0.287 OA
ATOM     22  H18 5OJ d   1      -8.421  12.708  19.785  0.00  0.00     0.244 HD
ENDBRANCH  19  21
ENDBRANCH  11  17
ENDBRANCH   4   7
ENDBRANCH   2   4
BRANCH   3  23
ATOM     23  C14 5OJ d   1      -7.825  14.613  30.388  0.00  0.00     0.022 C 
ATOM     24  H1  5OJ d   1      -8.912  14.448  30.353  0.00  0.00     0.068 H 
ATOM     25  H2  5OJ d   1      -7.538  14.951  31.395  0.00  0.00     0.068 H 
BRANCH  23  26
ATOM     26  C15 5OJ d   1      -7.101  13.250  30.091  0.00  0.00     0.032 C 
ATOM     27  H3  5OJ d   1      -6.013  13.368  30.200  0.00  0.00     0.076 H 
ATOM     28  H4  5OJ d   1      -7.333  12.914  29.070  0.00  0.00     0.076 H 
BRANCH  26  29
ATOM     29  O3  5OJ d   1      -7.579  12.323  31.022  0.00  0.00    -0.399 OA
ATOM     30  H5  5OJ d   1      -7.162  11.482  30.873  0.00  0.00     0.209 HD
ENDBRANCH  26  29
ENDBRANCH  23  26
ENDBRANCH   3  23
BRANCH   3  31
ATOM     31  C8  5OJ d   1      -6.476  16.669  29.854  0.00  0.00     0.037 A 
ATOM     32  C13 5OJ d   1      -6.787  18.031  30.084  0.00  0.00    -0.057 A 
ATOM     33  C12 5OJ d   1      -5.812  18.938  30.502  0.00  0.00    -0.081 A 
ATOM     34  H6  5OJ d   1      -7.803  18.376  29.932  0.00  0.00     0.086 H 
ATOM     35  C11 5OJ d   1      -4.494  18.535  30.721  0.00  0.00    -0.083 A 
ATOM     36  H7  5OJ d   1      -6.084  19.976  30.660  0.00  0.00     0.083 H 
ATOM     37  C10 5OJ d   1      -4.176  17.202  30.505  0.00  0.00    -0.081 A 
ATOM     38  H8  5OJ d   1      -3.741  19.242  31.050  0.00  0.00     0.083 H 
ATOM     39  C9  5OJ d   1      -5.140  16.287  30.080  0.00  0.00    -0.057 A 
ATOM     40  H9  5OJ d   1      -3.159  16.865  30.670  0.00  0.00     0.083 H 
ATOM     41  H10 5OJ d   1      -4.852  15.254  29.919  0.00  0.00     0.086 H 
ENDBRANCH   3  31
TORSDOF 8
