REMARK  12 active torsions:
REMARK  status: ('A' for Active; 'I' for Inactive)
REMARK    1  A    between atoms: PG_1  and  O3B_5 
REMARK    2  A    between atoms: O3B_5  and  PB_6 
REMARK    3  A    between atoms: PB_6  and  O3A_9 
REMARK    4  A    between atoms: O3A_9  and  PA_10 
REMARK    5  A    between atoms: PA_10  and  O5'_13 
REMARK    6  A    between atoms: O5'_13  and  C5'_14 
REMARK    7  A    between atoms: C5'_14  and  C4'_15 
REMARK    8  A    between atoms: C3'_17  and  O3'_18 
REMARK    9  A    between atoms: C2'_19  and  O2'_20 
REMARK   10  A    between atoms: C1'_21  and  N9_22 
REMARK   11  A    between atoms: N7_24  and  CM7_25 
REMARK   12  A    between atoms: C2_30  and  N2_31 
ROOT
ATOM      1  C4' MGT d   1      30.459  33.250  23.857  0.00  0.00     0.089 C 
ATOM      2  O4' MGT d   1      31.564  34.070  24.249  0.00  0.00    -0.353 OA
ATOM      3  C3' MGT d   1      31.056  32.197  22.944  0.00  0.00     0.091 C 
ATOM      4  C2' MGT d   1      32.505  32.064  23.369  0.00  0.00     0.105 C 
ATOM      5  C1' MGT d   1      32.787  33.493  23.777  0.00  0.00     0.139 C 
ATOM      6  H3  MGT d   1      29.717  33.848  23.308  0.00  0.00     0.090 H 
ATOM      7  H4  MGT d   1      30.521  31.237  22.985  0.00  0.00     0.091 H 
ATOM      8  H6  MGT d   1      32.646  31.341  24.186  0.00  0.00     0.093 H 
ATOM      9  H8  MGT d   1      33.107  34.017  22.865  0.00  0.00     0.122 H 
ENDROOT
BRANCH   5  10
ATOM     10  N9  MGT d   1      33.797  33.788  24.814  0.00  0.00    -0.296 N 
ATOM     11  C8  MGT d   1      33.509  33.333  26.188  0.00  0.00     0.049 A 
ATOM     12  N7  MGT d   1      34.715  33.925  26.772  0.00  0.00    -0.340 N 
ATOM     13  H9  MGT d   1      32.689  32.759  26.617  0.00  0.00     0.141 H 
ATOM     14  C5  MGT d   1      35.506  34.586  25.918  0.00  0.00     0.149 A 
ATOM     15  C6  MGT d   1      36.773  35.312  26.054  0.00  0.00     0.290 A 
ATOM     16  C4  MGT d   1      34.886  34.507  24.594  0.00  0.00     0.159 A 
ATOM     17  O6  MGT d   1      37.367  35.437  27.140  0.00  0.00    -0.265 OA
ATOM     18  N1  MGT d   1      37.255  35.851  24.929  0.00  0.00    -0.154 N 
ATOM     19  C2  MGT d   1      36.650  35.753  23.728  0.00  0.00     0.680 A 
ATOM     20  H13 MGT d   1      38.116  36.357  24.982  0.00  0.00     0.187 HD
ATOM     21  N3  MGT d   1      35.485  35.092  23.542  0.00  0.00    -0.174 N 
ATOM     22  H16 MGT d   1      35.061  35.037  22.605  0.00  0.00     0.186 HD
BRANCH  12  23
ATOM     23  CM7 MGT d   1      34.864  33.713  28.248  0.00  0.00    -0.013 C 
ATOM     24  H10 MGT d   1      34.018  33.117  28.620  0.00  0.00     0.057 H 
ATOM     25  H11 MGT d   1      34.879  34.687  28.759  0.00  0.00     0.057 H 
ATOM     26  H12 MGT d   1      35.805  33.179  28.449  0.00  0.00     0.057 H 
ENDBRANCH  12  23
BRANCH  19  27
ATOM     27  N2  MGT d   1      37.244  36.337  22.655  0.00  0.00    -0.234 N 
ATOM     28  H14 MGT d   1      36.803  36.277  21.726  0.00  0.00     0.174 HD
ATOM     29  H15 MGT d   1      38.136  36.840  22.770  0.00  0.00     0.174 HD
ENDBRANCH  19  27
ENDBRANCH   5  10
BRANCH   4  30
ATOM     30  O2' MGT d   1      33.330  31.745  22.250  0.00  0.00    -0.388 OA
ATOM     31  H7  MGT d   1      33.262  32.435  21.601  0.00  0.00     0.210 HD
ENDBRANCH   4  30
BRANCH   1  32
ATOM     32  C5' MGT d   1      29.787  32.627  25.080  0.00  0.00     0.058 C 
ATOM     33  H1  MGT d   1      29.518  33.423  25.790  0.00  0.00     0.079 H 
ATOM     34  H2  MGT d   1      28.878  32.096  24.763  0.00  0.00     0.079 H 
BRANCH  32  35
ATOM     35  O5' MGT d   1      30.670  31.708  25.717  0.00  0.00    -0.287 OA
BRANCH  35  36
ATOM     36  PA  MGT d   1      30.210  30.182  25.906  0.00  0.00     0.417 P 
ATOM     37  O1A MGT d   1      30.830  29.666  27.183  0.00  0.00    -0.624 OA
ATOM     38  O2A MGT d   1      28.723  30.094  25.636  0.00  0.00    -0.624 OA
BRANCH  36  39
ATOM     39  O3A MGT d   1      30.941  29.533  24.638  0.00  0.00    -0.180 OA
BRANCH  39  40
ATOM     40  PB  MGT d   1      31.207  27.963  24.478  0.00  0.00     0.428 P 
ATOM     41  O1B MGT d   1      32.500  27.657  25.212  0.00  0.00    -0.624 OA
ATOM     42  O2B MGT d   1      29.936  27.216  24.793  0.00  0.00    -0.624 OA
BRANCH  40  43
ATOM     43  O3B MGT d   1      31.401  27.920  22.880  0.00  0.00    -0.173 OA
BRANCH  43  44
ATOM     44  PG  MGT d   1      32.785  28.311  22.144  0.00  0.00     0.431 P 
ATOM     45  O1G MGT d   1      32.346  29.303  21.091  0.00  0.00    -0.616 OA
ATOM     46  O2G MGT d   1      33.676  28.915  23.203  0.00  0.00    -0.616 OA
ATOM     47  O3G MGT d   1      33.267  26.986  21.599  0.00  0.00    -0.616 OA
ENDBRANCH  43  44
ENDBRANCH  40  43
ENDBRANCH  39  40
ENDBRANCH  36  39
ENDBRANCH  35  36
ENDBRANCH  32  35
ENDBRANCH   1  32
BRANCH   3  48
ATOM     48  O3' MGT d   1      31.012  32.792  21.646  0.00  0.00    -0.390 OA
ATOM     49  H5  MGT d   1      31.373  32.187  21.009  0.00  0.00     0.210 HD
ENDBRANCH   3  48
TORSDOF 12
