REMARK  10 active torsions:
REMARK  status: ('A' for Active; 'I' for Inactive)
REMARK    1  A    between atoms: PG_1  and  O3B_5 
REMARK    2  A    between atoms: O3B_5  and  PB_6 
REMARK    3  A    between atoms: PB_6  and  O3A_9 
REMARK    4  A    between atoms: O3A_9  and  PA_10 
REMARK    5  A    between atoms: PA_10  and  O5'_13 
REMARK    6  A    between atoms: O5'_13  and  C5'_14 
REMARK    7  A    between atoms: C5'_14  and  C4'_15 
REMARK    8  A    between atoms: C3'_17  and  O3'_18 
REMARK    9  A    between atoms: C2'_19  and  O2'_20 
REMARK   10  A    between atoms: C1'_21  and  N9_22 
ROOT
ATOM      1  C4' GTP d   1      32.402  30.410  26.248  0.00  0.00     0.089 C 
ATOM      2  O4' GTP d   1      33.429  31.333  25.925  0.00  0.00    -0.353 OA
ATOM      3  C3' GTP d   1      31.117  31.216  26.346  0.00  0.00     0.091 C 
ATOM      4  C2' GTP d   1      31.422  32.546  25.692  0.00  0.00     0.105 C 
ATOM      5  C1' GTP d   1      32.933  32.655  25.801  0.00  0.00     0.139 C 
ATOM      6  H3  GTP d   1      32.608  29.931  27.217  0.00  0.00     0.090 H 
ATOM      7  H4  GTP d   1      30.272  30.702  25.864  0.00  0.00     0.091 H 
ATOM      8  H6  GTP d   1      31.093  32.563  24.643  0.00  0.00     0.093 H 
ATOM      9  H8  GTP d   1      33.188  33.241  26.696  0.00  0.00     0.122 H 
ENDROOT
BRANCH   1  10
ATOM     10  C5' GTP d   1      32.355  29.335  25.161  0.00  0.00     0.058 C 
ATOM     11  H1  GTP d   1      33.379  29.082  24.848  0.00  0.00     0.079 H 
ATOM     12  H2  GTP d   1      31.858  28.435  25.553  0.00  0.00     0.079 H 
BRANCH  10  13
ATOM     13  O5' GTP d   1      31.631  29.831  24.055  0.00  0.00    -0.287 OA
BRANCH  13  14
ATOM     14  PA  GTP d   1      31.782  29.267  22.548  0.00  0.00     0.417 P 
ATOM     15  O1A GTP d   1      31.531  30.405  21.588  0.00  0.00    -0.624 OA
ATOM     16  O2A GTP d   1      33.165  28.695  22.331  0.00  0.00    -0.624 OA
BRANCH  14  17
ATOM     17  O3A GTP d   1      30.634  28.148  22.324  0.00  0.00    -0.180 OA
BRANCH  17  18
ATOM     18  PB  GTP d   1      30.069  27.116  23.436  0.00  0.00     0.428 P 
ATOM     19  O1B GTP d   1      29.032  26.212  22.809  0.00  0.00    -0.624 OA
ATOM     20  O2B GTP d   1      31.210  26.294  23.994  0.00  0.00    -0.624 OA
BRANCH  18  21
ATOM     21  O3B GTP d   1      29.391  27.981  24.619  0.00  0.00    -0.173 OA
BRANCH  21  22
ATOM     22  PG  GTP d   1      28.137  28.964  24.362  0.00  0.00     0.431 P 
ATOM     23  O1G GTP d   1      28.196  29.554  22.971  0.00  0.00    -0.616 OA
ATOM     24  O2G GTP d   1      26.853  28.194  24.582  0.00  0.00    -0.616 OA
ATOM     25  O3G GTP d   1      28.193  30.084  25.377  0.00  0.00    -0.616 OA
ENDBRANCH  21  22
ENDBRANCH  18  21
ENDBRANCH  17  18
ENDBRANCH  14  17
ENDBRANCH  13  14
ENDBRANCH  10  13
ENDBRANCH   1  10
BRANCH   3  26
ATOM     26  O3' GTP d   1      30.861  31.466  27.708  0.00  0.00    -0.390 OA
ATOM     27  H5  GTP d   1      31.585  31.956  28.080  0.00  0.00     0.210 HD
ENDBRANCH   3  26
BRANCH   5  28
ATOM     28  N9  GTP d   1      33.570  33.284  24.624  0.00  0.00    -0.295 N 
ATOM     29  C8  GTP d   1      33.246  33.134  23.299  0.00  0.00     0.071 A 
ATOM     30  N7  GTP d   1      34.109  33.866  22.554  0.00  0.00    -0.234 NA
ATOM     31  H9  GTP d   1      32.430  32.527  22.910  0.00  0.00     0.144 H 
ATOM     32  C5  GTP d   1      34.978  34.486  23.388  0.00  0.00     0.171 A 
ATOM     33  C6  GTP d   1      36.050  35.337  23.165  0.00  0.00     0.292 A 
ATOM     34  C4  GTP d   1      34.655  34.113  24.682  0.00  0.00     0.161 A 
ATOM     35  O6  GTP d   1      36.354  35.675  22.019  0.00  0.00    -0.265 OA
ATOM     36  N1  GTP d   1      36.768  35.801  24.245  0.00  0.00    -0.154 N 
ATOM     37  C2  GTP d   1      36.432  35.419  25.525  0.00  0.00     0.680 A 
ATOM     38  H10 GTP d   1      37.539  36.420  24.099  0.00  0.00     0.187 HD
ATOM     39  N2  GTP d   1      37.125  35.861  26.571  0.00  0.00    -0.234 N 
ATOM     40  N3  GTP d   1      35.365  34.576  25.736  0.00  0.00    -0.174 N 
ATOM     41  H11 GTP d   1      36.864  35.568  27.523  0.00  0.00     0.174 HD
ATOM     42  H12 GTP d   1      37.923  36.496  26.429  0.00  0.00     0.174 HD
ATOM     43  H13 GTP d   1      35.108  34.298  26.694  0.00  0.00     0.186 HD
ENDBRANCH   5  28
BRANCH   4  44
ATOM     44  O2' GTP d   1      30.804  33.593  26.412  0.00  0.00    -0.388 OA
ATOM     45  H7  GTP d   1      31.133  33.600  27.303  0.00  0.00     0.210 HD
ENDBRANCH   4  44
TORSDOF 10
