REMARK  11 active torsions:
REMARK  status: ('A' for Active; 'I' for Inactive)
REMARK    1  A    between atoms: O01_1  and  C02_2 
REMARK    2  A    between atoms: C02_2  and  C03_3 
REMARK    3  A    between atoms: C02_2  and  O02_12 
REMARK    4  A    between atoms: C02_2  and  C30_13 
REMARK    5  A    between atoms: C03_3  and  C04_4 
REMARK    6  A    between atoms: C04_4  and  C05_5 
REMARK    7  A    between atoms: C05_5  and  C06_6 
REMARK    8  A    between atoms: C06_6  and  C07_7 
REMARK    9  A    between atoms: C07_7  and  C08_8 
REMARK   10  A    between atoms: CA_24  and  CB_27 
REMARK   11  A    between atoms: CA_29  and  CB_30 
ROOT
ATOM      1  C08 5OM d   1      -1.570  29.158  -3.332  0.00  0.00     0.248 A 
ATOM      2  N09 5OM d   1      -1.102  30.449  -2.959  0.00  0.00    -0.077 NA
ATOM      3  C27 5OM d   1      -0.840  28.439  -4.456  0.00  0.00     0.276 C 
ATOM      4  O28 5OM d   1      -0.676  27.234  -4.355  0.00  0.00    -0.268 OA
ATOM      5  N   DPR d   1      -0.352  29.080  -5.670  0.00  0.00    -0.328 N 
ATOM      6  CA  DPR d   1      -0.440  30.587  -6.065  0.00  0.00     0.108 C 
ATOM      7  CB  DPR d   1      -0.298  30.536  -7.597  0.00  0.00    -0.075 C 
ATOM      8  CG  DPR d   1       0.437  29.485  -7.848  0.00  0.00    -0.087 C 
ATOM      9  CD  DPR d   1       0.223  28.459  -6.636  0.00  0.00     0.014 C 
ATOM     10  C   DPR d   1       0.641  31.274  -5.555  0.00  0.00     0.245 C 
ATOM     11  O   DPR d   1       1.737  30.729  -5.385  0.00  0.00    -0.271 OA
ATOM     12  H16 DPR d   1      -1.387  31.046  -5.744  0.00  0.00     0.094 H 
ATOM     13  H17 DPR d   1      -0.722  31.231  -8.321  0.00  0.00     0.080 H 
ATOM     14  H18 DPR d   1       1.075  29.335  -8.718  0.00  0.00     0.079 H 
ATOM     15  H19 DPR d   1      -0.409  27.622  -6.967  0.00  0.00     0.070 H 
ATOM     16  H20 DPR d   1       1.197  28.073  -6.301  0.00  0.00     0.070 H 
ATOM     17  N   ALA d   1       0.440  32.661  -5.181  0.00  0.00    -0.346 N 
ATOM     18  CA  ALA d   1       1.472  33.531  -4.683  0.00  0.00     0.086 C 
ATOM     19  C   ALA d   1       2.386  32.930  -3.634  0.00  0.00     0.240 C 
ATOM     20  O   ALA d   1       3.602  33.034  -3.831  0.00  0.00    -0.271 OA
ATOM     21  H21 ALA d   1      -0.481  33.039  -5.276  0.00  0.00     0.163 HD
ATOM     22  H22 ALA d   1       2.112  33.790  -5.539  0.00  0.00     0.086 H 
ATOM     23  N   DAL d   1       1.960  32.268  -2.427  0.00  0.00    -0.347 N 
ATOM     24  CA  DAL d   1       0.617  32.068  -2.032  0.00  0.00     0.083 C 
ATOM     25  C   DAL d   1       0.208  30.657  -2.431  0.00  0.00     0.248 C 
ATOM     26  O   DAL d   1       0.987  29.706  -2.347  0.00  0.00    -0.275 OA
ATOM     27  OXT DAL d   1      -0.920  30.403  -2.856  0.00  0.00    -0.253 OA
ATOM     28  H26 DAL d   1       2.673  31.921  -1.818  0.00  0.00     0.163 HD
ATOM     29  H27 DAL d   1      -0.038  32.812  -2.508  0.00  0.00     0.086 H 
ENDROOT
BRANCH   1  30
ATOM     30  C07 5OM d   1      -3.033  29.332  -3.746  0.00  0.00    -0.010 C 
ATOM     31  H10 5OM d   1      -3.543  29.951  -2.993  0.00  0.00     0.040 H 
ATOM     32  H11 5OM d   1      -3.067  29.839  -4.722  0.00  0.00     0.040 H 
BRANCH  30  33
ATOM     33  C06 5OM d   1      -3.775  27.976  -3.862  0.00  0.00    -0.060 C 
ATOM     34  H8  5OM d   1      -3.305  27.366  -4.647  0.00  0.00     0.033 H 
ATOM     35  H9  5OM d   1      -3.719  27.443  -2.901  0.00  0.00     0.033 H 
BRANCH  33  36
ATOM     36  C05 5OM d   1      -5.270  28.234  -4.228  0.00  0.00    -0.065 C 
ATOM     37  H6  5OM d   1      -5.701  28.923  -3.486  0.00  0.00     0.033 H 
ATOM     38  H7  5OM d   1      -5.314  28.695  -5.226  0.00  0.00     0.033 H 
BRANCH  36  39
ATOM     39  C04 5OM d   1      -6.112  26.929  -4.244  0.00  0.00    -0.060 C 
ATOM     40  H4  5OM d   1      -5.532  26.128  -4.726  0.00  0.00     0.033 H 
ATOM     41  H5  5OM d   1      -6.351  26.638  -3.210  0.00  0.00     0.033 H 
BRANCH  39  42
ATOM     42  C03 5OM d   1      -7.412  27.148  -5.020  0.00  0.00    -0.011 C 
ATOM     43  H2  5OM d   1      -7.993  27.934  -4.516  0.00  0.00     0.041 H 
ATOM     44  H3  5OM d   1      -7.161  27.474  -6.040  0.00  0.00     0.041 H 
BRANCH  42  45
ATOM     45  C02 5OM d   1      -8.277  25.880  -5.110  0.00  0.00     0.188 C 
BRANCH  45  46
ATOM     46  O01 5OM d   1      -7.640  24.863  -5.830  0.00  0.00    -0.363 OA
ATOM     47  H1  5OM d   1      -7.423  25.180  -6.699  0.00  0.00     0.213 HD
ENDBRANCH  45  46
BRANCH  45  48
ATOM     48  O02 5OM d   1      -8.619  25.438  -3.793  0.00  0.00    -0.363 OA
ATOM     49  H12 5OM d   1      -9.049  26.144  -3.325  0.00  0.00     0.213 HD
ENDBRANCH  45  48
BRANCH  45  50
ATOM     50  C30 5OM d   1      -9.465  26.338  -5.973  0.00  0.00     0.112 A 
ATOM     51  C31 5OM d   1     -10.345  27.222  -5.286  0.00  0.00     0.049 A 
ATOM     52  O32 5OM d   1     -10.710  25.825  -5.494  0.00  0.00    -0.376 OA
ATOM     53  H14 5OM d   1     -10.869  28.017  -5.837  0.00  0.00     0.078 H 
ATOM     54  H15 5OM d   1     -10.090  27.581  -4.278  0.00  0.00     0.078 H 
ATOM     55  H13 5OM d   1      -9.224  26.441  -7.041  0.00  0.00     0.095 H 
ENDBRANCH  45  50
ENDBRANCH  42  45
ENDBRANCH  39  42
ENDBRANCH  36  39
ENDBRANCH  33  36
ENDBRANCH  30  33
ENDBRANCH   1  30
BRANCH  24  56
ATOM     56  CB  DAL d   1       0.525  32.167  -0.516  0.00  0.00    -0.050 C 
ATOM     57  H28 DAL d   1      -0.518  32.012  -0.201  0.00  0.00     0.030 H 
ATOM     58  H29 DAL d   1       0.862  33.163  -0.192  0.00  0.00     0.030 H 
ATOM     59  H30 DAL d   1       1.164  31.397  -0.059  0.00  0.00     0.030 H 
ENDBRANCH  24  56
BRANCH  18  60
ATOM     60  CB  ALA d   1       0.823  34.815  -4.185  0.00  0.00    -0.049 C 
ATOM     61  H23 ALA d   1       1.599  35.493  -3.800  0.00  0.00     0.030 H 
ATOM     62  H24 ALA d   1       0.111  34.578  -3.380  0.00  0.00     0.030 H 
ATOM     63  H25 ALA d   1       0.290  35.302  -5.015  0.00  0.00     0.030 H 
ENDBRANCH  18  60
TORSDOF 11
