REMARK  6 active torsions:
REMARK  status: ('A' for Active; 'I' for Inactive)
REMARK    1  A    between atoms: C23_4  and  N2_5 
REMARK    2  A    between atoms: C20_12  and  C19_13 
REMARK       I    between atoms: C19_13  and  N1_15 
REMARK    3  A    between atoms: N1_15  and  C10_16 
REMARK    4  A    between atoms: C10_16  and  C13_22 
REMARK    5  A    between atoms: C7_31  and  C28_36 
REMARK    6  A    between atoms: C1_34  and  C_35 
ROOT
ATOM      1  C10 5NY d   1     -15.839 -36.436 -13.398  0.00  0.00     0.077 C 
ATOM      2  C9  5NY d   1     -15.404 -35.252 -12.470  0.00  0.00     0.028 C 
ATOM      3  N   5NY d   1     -14.000 -35.444 -12.034  0.00  0.00    -0.346 N 
ATOM      4  C4  5NY d   1     -13.438 -34.987 -10.835  0.00  0.00     0.046 A 
ATOM      5  C3  5NY d   1     -14.037 -34.267  -9.806  0.00  0.00    -0.056 A 
ATOM      6  C2  5NY d   1     -13.251 -33.950  -8.705  0.00  0.00    -0.075 A 
ATOM      7  C11 5NY d   1     -14.783 -36.515 -14.522  0.00  0.00    -0.031 C 
ATOM      8  C12 5NY d   1     -13.369 -36.844 -14.018  0.00  0.00    -0.023 C 
ATOM      9  C8  5NY d   1     -13.055 -36.160 -12.716  0.00  0.00     0.027 A 
ATOM     10  C7  5NY d   1     -11.858 -36.188 -11.992  0.00  0.00     0.048 A 
ATOM     11  C5  5NY d   1     -12.124 -35.407 -10.785  0.00  0.00     0.007 A 
ATOM     12  C6  5NY d   1     -11.364 -35.057  -9.672  0.00  0.00    -0.064 A 
ATOM     13  C1  5NY d   1     -11.907 -34.326  -8.626  0.00  0.00    -0.061 A 
ATOM     14  H7  5NY d   1     -16.059 -35.221 -11.587  0.00  0.00     0.069 H 
ATOM     15  H8  5NY d   1     -15.488 -34.305 -13.023  0.00  0.00     0.069 H 
ATOM     16  H9  5NY d   1     -15.077 -33.965  -9.861  0.00  0.00     0.087 H 
ATOM     17  H10 5NY d   1     -13.692 -33.396  -7.885  0.00  0.00     0.084 H 
ATOM     18  H16 5NY d   1     -14.751 -35.544 -15.037  0.00  0.00     0.037 H 
ATOM     19  H17 5NY d   1     -15.089 -37.297 -15.232  0.00  0.00     0.037 H 
ATOM     20  H18 5NY d   1     -12.639 -36.519 -14.774  0.00  0.00     0.042 H 
ATOM     21  H19 5NY d   1     -13.288 -37.932 -13.875  0.00  0.00     0.042 H 
ATOM     22  H20 5NY d   1     -10.325 -35.363  -9.622  0.00  0.00     0.085 H 
ENDROOT
BRANCH   1  23
ATOM     23  N1  5NY d   1     -15.761 -37.631 -12.539  0.00  0.00    -0.342 N 
ATOM     24  C19 5NY d   1     -15.908 -38.896 -12.986  0.00  0.00     0.254 C 
ATOM     25  O   5NY d   1     -16.233 -39.161 -14.143  0.00  0.00    -0.268 OA
ATOM     26  H6  5NY d   1     -15.588 -37.496 -11.563  0.00  0.00     0.164 HD
BRANCH  24  27
ATOM     27  C20 5NY d   1     -15.756 -39.983 -11.977  0.00  0.00     0.053 A 
ATOM     28  C25 5NY d   1     -14.629 -40.185 -11.174  0.00  0.00     0.051 A 
ATOM     29 CL   5NY d   1     -13.282 -39.090 -11.238  0.00  0.00    -0.083 Cl
ATOM     30  C24 5NY d   1     -14.526 -41.287 -10.341  0.00  0.00    -0.035 A 
ATOM     31  C23 5NY d   1     -15.570 -42.214 -10.301  0.00  0.00     0.043 A 
ATOM     32  H1  5NY d   1     -13.644 -41.428  -9.726  0.00  0.00     0.089 H 
ATOM     33  C22 5NY d   1     -16.695 -42.025 -11.086  0.00  0.00    -0.056 A 
ATOM     34  C21 5NY d   1     -16.790 -40.921 -11.909  0.00  0.00    -0.064 A 
ATOM     35  H4  5NY d   1     -17.504 -42.746 -11.054  0.00  0.00     0.087 H 
ATOM     36  H5  5NY d   1     -17.680 -40.779 -12.512  0.00  0.00     0.085 H 
BRANCH  31  37
ATOM     37  N2  5NY d   1     -15.458 -43.380  -9.478  0.00  0.00    -0.297 N 
ATOM     38  C27 5NY d   1     -14.861 -43.490  -8.262  0.00  0.00     0.093 A 
ATOM     39  N4  5NY d   1     -15.005 -44.692  -7.781  0.00  0.00    -0.144 NA
ATOM     40  H2  5NY d   1     -14.333 -42.682  -7.758  0.00  0.00     0.147 H 
ATOM     41  N3  5NY d   1     -15.712 -45.425  -8.726  0.00  0.00    -0.144 NA
ATOM     42  C26 5NY d   1     -15.958 -44.621  -9.722  0.00  0.00     0.093 A 
ATOM     43  H3  5NY d   1     -16.492 -44.905 -10.628  0.00  0.00     0.147 H 
ENDBRANCH  31  37
ENDBRANCH  24  27
ENDBRANCH   1  23
BRANCH   1  44
ATOM     44  C13 5NY d   1     -17.264 -36.217 -13.935  0.00  0.00    -0.029 A 
ATOM     45  C18 5NY d   1     -18.368 -36.797 -13.311  0.00  0.00    -0.074 A 
ATOM     46  C17 5NY d   1     -19.654 -36.542 -13.761  0.00  0.00    -0.082 A 
ATOM     47  H11 5NY d   1     -18.219 -37.456 -12.463  0.00  0.00     0.084 H 
ATOM     48  C16 5NY d   1     -19.860 -35.705 -14.835  0.00  0.00    -0.083 A 
ATOM     49  H12 5NY d   1     -20.501 -37.003 -13.266  0.00  0.00     0.083 H 
ATOM     50  C15 5NY d   1     -18.779 -35.122 -15.467  0.00  0.00    -0.082 A 
ATOM     51  H13 5NY d   1     -20.867 -35.504 -15.183  0.00  0.00     0.083 H 
ATOM     52  C14 5NY d   1     -17.491 -35.376 -15.023  0.00  0.00    -0.074 A 
ATOM     53  H14 5NY d   1     -18.939 -34.464 -16.313  0.00  0.00     0.083 H 
ATOM     54  H15 5NY d   1     -16.650 -34.915 -15.528  0.00  0.00     0.084 H 
ENDBRANCH   1  44
BRANCH  10  55
ATOM     55  C28 5NY d   1     -10.613 -36.849 -12.343  0.00  0.00     0.182 A 
ATOM     56  N8  5NY d   1     -10.403 -37.605 -13.431  0.00  0.00    -0.239 N 
ATOM     57  N7  5NY d   1      -9.110 -37.967 -13.387  0.00  0.00    -0.046 NA
ATOM     58  H24 5NY d   1     -11.093 -37.857 -14.153  0.00  0.00     0.192 HD
ATOM     59  N6  5NY d   1      -8.550 -37.452 -12.322  0.00  0.00    -0.023 NA
ATOM     60  N5  5NY d   1      -9.465 -36.750 -11.655  0.00  0.00    -0.108 NA
ENDBRANCH  10  55
BRANCH  13  61
ATOM     61  C   5NY d   1     -11.067 -33.965  -7.420  0.00  0.00    -0.051 C 
ATOM     62  H21 5NY d   1     -11.676 -33.389  -6.708  0.00  0.00     0.033 H 
ATOM     63  H22 5NY d   1     -10.207 -33.359  -7.740  0.00  0.00     0.033 H 
ATOM     64  H23 5NY d   1     -10.708 -34.885  -6.935  0.00  0.00     0.033 H 
ENDBRANCH  13  61
TORSDOF 6
