REMARK  15 active torsions:
REMARK  status: ('A' for Active; 'I' for Inactive)
REMARK    1  A    between atoms: C1_1  and  C2_2 
REMARK    2  A    between atoms: C2_2  and  C3_3 
REMARK    3  A    between atoms: C3_3  and  C4_4 
REMARK    4  A    between atoms: C4_4  and  N5_5 
REMARK    5  A    between atoms: N11_12  and  C33_13 
REMARK    6  A    between atoms: C33_13  and  C34_14 
REMARK    7  A    between atoms: C12_17  and  C14_18 
REMARK    8  A    between atoms: C14_18  and  S15_19 
REMARK    9  A    between atoms: S15_19  and  C16_20 
REMARK   10  A    between atoms: C21_24  and  C26_25 
REMARK   11  A    between atoms: C23_28  and  C25_29 
REMARK   12  A    between atoms: C22_30  and  C27_31 
REMARK   13  A    between atoms: C27_31  and  C28_32 
REMARK   14  A    between atoms: C28_32  and  C29_33 
REMARK   15  A    between atoms: C29_33  and  C30_34 
ROOT
ATOM      1  C14 5NQ d   1       8.457  27.913  66.031  0.00  0.00     0.039 C 
ATOM      2  H16 5NQ d   1       8.566  28.148  67.100  0.00  0.00     0.061 H 
ATOM      3  H17 5NQ d   1       8.964  26.962  65.811  0.00  0.00     0.061 H 
ENDROOT
BRANCH   1   4
ATOM      4  C12 5NQ d   1       9.038  28.999  65.212  0.00  0.00     0.119 A 
ATOM      5  N11 5NQ d   1       9.363  29.009  63.931  0.00  0.00    -0.327 N 
ATOM      6  C9  5NQ d   1       9.826  30.280  63.649  0.00  0.00     0.151 A 
ATOM      7  C8  5NQ d   1      10.276  30.869  62.526  0.00  0.00     0.280 A 
ATOM      8  C10 5NQ d   1       9.769  31.013  64.800  0.00  0.00     0.168 A 
ATOM      9  N7  5NQ d   1      10.644  32.244  62.593  0.00  0.00    -0.273 N 
ATOM     10  O32 5NQ d   1      10.388  30.270  61.427  0.00  0.00    -0.265 OA
ATOM     11  C6  5NQ d   1      10.584  32.948  63.789  0.00  0.00     0.331 A 
ATOM     12  H10 5NQ d   1      10.951  32.711  61.764  0.00  0.00     0.173 HD
ATOM     13  N5  5NQ d   1      10.161  32.300  64.911  0.00  0.00    -0.282 N 
ATOM     14  O31 5NQ d   1      10.965  34.110  63.804  0.00  0.00    -0.246 OA
ATOM     15  N13 5NQ d   1       9.275  30.202  65.734  0.00  0.00    -0.214 NA
BRANCH   5  16
ATOM     16  C33 5NQ d   1       9.258  27.829  63.072  0.00  0.00    -0.002 C 
ATOM     17  H11 5NQ d   1       8.767  28.093  62.124  0.00  0.00     0.064 H 
ATOM     18  H12 5NQ d   1       8.680  27.042  63.578  0.00  0.00     0.064 H 
BRANCH  16  19
ATOM     19  C34 5NQ d   1      10.659  27.356  62.814  0.00  0.00    -0.061 C 
ATOM     20  H13 5NQ d   1      10.632  26.465  62.169  0.00  0.00     0.029 H 
ATOM     21  H14 5NQ d   1      11.142  27.102  63.769  0.00  0.00     0.029 H 
ATOM     22  H15 5NQ d   1      11.229  28.153  62.315  0.00  0.00     0.029 H 
ENDBRANCH  16  19
ENDBRANCH   5  16
BRANCH  13  23
ATOM     23  C4  5NQ d   1       9.974  33.057  66.199  0.00  0.00     0.006 C 
ATOM     24  H8  5NQ d   1       9.310  33.911  65.998  0.00  0.00     0.065 H 
ATOM     25  H9  5NQ d   1       9.495  32.382  66.923  0.00  0.00     0.065 H 
BRANCH  23  26
ATOM     26  C3  5NQ d   1      11.244  33.589  66.825  0.00  0.00    -0.050 C 
ATOM     27  H6  5NQ d   1      11.896  32.763  67.146  0.00  0.00     0.035 H 
ATOM     28  H7  5NQ d   1      11.788  34.232  66.118  0.00  0.00     0.035 H 
BRANCH  26  29
ATOM     29  C2  5NQ d   1      10.754  34.405  68.042  0.00  0.00    -0.067 C 
ATOM     30  H4  5NQ d   1      11.452  35.229  68.252  0.00  0.00     0.032 H 
ATOM     31  H5  5NQ d   1       9.752  34.814  67.846  0.00  0.00     0.032 H 
BRANCH  29  32
ATOM     32  C1  5NQ d   1      10.708  33.454  69.208  0.00  0.00    -0.076 C 
ATOM     33  H1  5NQ d   1      10.363  33.990  70.105  0.00  0.00     0.027 H 
ATOM     34  H2  5NQ d   1      11.714  33.046  69.389  0.00  0.00     0.027 H 
ATOM     35  H3  5NQ d   1      10.014  32.631  68.983  0.00  0.00     0.027 H 
ENDBRANCH  29  32
ENDBRANCH  26  29
ENDBRANCH  23  26
ENDBRANCH  13  23
ENDBRANCH   1   4
BRANCH   1  36
ATOM     36  S15 5NQ d   1       6.616  27.789  65.577  0.00  0.00    -0.080 SA
BRANCH  36  37
ATOM     37  C16 5NQ d   1       5.869  26.920  66.962  0.00  0.00     0.227 A 
ATOM     38  N20 5NQ d   1       4.584  26.555  67.055  0.00  0.00    -0.033 NA
ATOM     39  C19 5NQ d   1       4.446  25.980  68.253  0.00  0.00     0.752 A 
ATOM     40  N18 5NQ d   1       5.626  26.029  68.891  0.00  0.00    -0.061 N 
ATOM     41  N24 5NQ d   1       3.423  25.457  68.926  0.00  0.00    -0.065 NA
ATOM     42  N17 5NQ d   1       6.529  26.608  68.079  0.00  0.00    -0.124 NA
ATOM     43  C21 5NQ d   1       5.881  25.550  70.121  0.00  0.00     0.059 A 
ATOM     44  C22 5NQ d   1       4.849  24.970  70.800  0.00  0.00    -0.008 A 
ATOM     45  C23 5NQ d   1       3.579  24.985  70.181  0.00  0.00     0.058 A 
BRANCH  43  46
ATOM     46  C26 5NQ d   1       7.184  25.657  70.676  0.00  0.00    -0.034 C 
ATOM     47  H18 5NQ d   1       7.192  25.211  71.681  0.00  0.00     0.035 H 
ATOM     48  H19 5NQ d   1       7.468  26.718  70.743  0.00  0.00     0.035 H 
ATOM     49  H20 5NQ d   1       7.901  25.125  70.033  0.00  0.00     0.035 H 
ENDBRANCH  43  46
BRANCH  44  50
ATOM     50  C27 5NQ d   1       5.055  24.503  72.106  0.00  0.00    -0.037 C 
ATOM     51  H24 5NQ d   1       6.127  24.298  72.242  0.00  0.00     0.040 H 
ATOM     52  H25 5NQ d   1       4.484  23.573  72.242  0.00  0.00     0.040 H 
BRANCH  50  53
ATOM     53  C28 5NQ d   1       4.616  25.498  73.156  0.00  0.00    -0.062 C 
ATOM     54  H26 5NQ d   1       3.561  25.752  72.978  0.00  0.00     0.033 H 
ATOM     55  H27 5NQ d   1       5.233  26.404  73.060  0.00  0.00     0.033 H 
BRANCH  53  56
ATOM     56  C29 5NQ d   1       4.756  24.956  74.607  0.00  0.00    -0.068 C 
ATOM     57  H28 5NQ d   1       5.767  24.568  74.799  0.00  0.00     0.032 H 
ATOM     58  H29 5NQ d   1       4.016  24.171  74.820  0.00  0.00     0.032 H 
BRANCH  56  59
ATOM     59  C30 5NQ d   1       4.475  26.236  75.417  0.00  0.00    -0.077 C 
ATOM     60  H30 5NQ d   1       4.539  26.011  76.492  0.00  0.00     0.027 H 
ATOM     61  H31 5NQ d   1       3.467  26.607  75.179  0.00  0.00     0.027 H 
ATOM     62  H32 5NQ d   1       5.219  27.004  75.159  0.00  0.00     0.027 H 
ENDBRANCH  56  59
ENDBRANCH  53  56
ENDBRANCH  50  53
ENDBRANCH  44  50
BRANCH  45  63
ATOM     63  C25 5NQ d   1       2.454  24.365  70.781  0.00  0.00    -0.034 C 
ATOM     64  H21 5NQ d   1       2.718  24.029  71.795  0.00  0.00     0.035 H 
ATOM     65  H22 5NQ d   1       2.147  23.499  70.176  0.00  0.00     0.035 H 
ATOM     66  H23 5NQ d   1       1.625  25.086  70.838  0.00  0.00     0.035 H 
ENDBRANCH  45  63
ENDBRANCH  36  37
ENDBRANCH   1  36
TORSDOF 15
