REMARK  3 active torsions:
REMARK  status: ('A' for Active; 'I' for Inactive)
REMARK    1  A    between atoms: C2_3  and  C1_5 
REMARK    2  A    between atoms: C4_4  and  S5_11 
REMARK    3  A    between atoms: S5_11  and  N6_8 
ROOT
ATOM      1  C11 XCZ d   1      17.518   4.509  14.450  0.00  0.00    -0.043 A 
ATOM      2  C10 XCZ d   1      18.214   3.555  15.206  0.00  0.00     0.007 A 
ATOM      3  C2  XCZ d   1      16.095   4.457  14.440  0.00  0.00     0.035 A 
ATOM      4  C4  XCZ d   1      16.173   2.609  15.838  0.00  0.00     0.267 A 
ATOM      5  N9  XCZ d   1      17.518   2.612  15.888  0.00  0.00    -0.230 NA
ATOM      6  N3  XCZ d   1      15.467   3.479  15.136  0.00  0.00    -0.223 NA
ATOM      7  H1  XCZ d   1      18.050   5.267  13.887  0.00  0.00     0.088 H 
ATOM      8  H2  XCZ d   1      19.297   3.571  15.245  0.00  0.00     0.114 H 
ENDROOT
BRANCH   4   9
ATOM      9  S5  XCZ d   1      15.323   1.368  16.741  0.00  0.00     0.292 S 
ATOM     10  O7  XCZ d   1      15.779   1.528  18.112  0.00  0.00    -0.198 OA
ATOM     11  O8  XCZ d   1      13.872   1.580  16.552  0.00  0.00    -0.198 OA
BRANCH   9  12
ATOM     12  N6  XCZ d   1      15.822  -0.060  16.116  0.00  0.00    -0.322 N 
ATOM     13  H6  XCZ d   1      15.463  -0.919  16.482  0.00  0.00     0.169 HD
ATOM     14  H7  XCZ d   1      16.485  -0.074  15.368  0.00  0.00     0.169 HD
ENDBRANCH   9  12
ENDBRANCH   4   9
BRANCH   3  15
ATOM     15  C1  XCZ d   1      15.264   5.448  13.672  0.00  0.00    -0.035 C 
ATOM     16  H3  XCZ d   1      14.197   5.216  13.809  0.00  0.00     0.035 H 
ATOM     17  H4  XCZ d   1      15.518   5.389  12.603  0.00  0.00     0.035 H 
ATOM     18  H5  XCZ d   1      15.469   6.463  14.043  0.00  0.00     0.035 H 
ENDBRANCH   3  15
TORSDOF 3
