REMARK  3 active torsions:
REMARK  status: ('A' for Active; 'I' for Inactive)
REMARK    1  A    between atoms: C07_7  and  O08_8 
REMARK    2  A    between atoms: O08_8  and  C09_9 
REMARK    3  A    between atoms: C09_9  and  C10_10 
ROOT
ATOM      1 CL1  5O5 d   1      15.472   5.895  15.389  0.00  0.00    -0.082 Cl
ATOM      2  C02 5O5 d   1      15.605   4.589  14.274  0.00  0.00     0.058 A 
ATOM      3  C03 5O5 d   1      15.122   4.759  13.013  0.00  0.00     0.056 A 
ATOM      4 CL2  5O5 d   1      14.398   6.267  12.517  0.00  0.00    -0.083 Cl
ATOM      5  C05 5O5 d   1      15.220   3.715  12.107  0.00  0.00    -0.058 A 
ATOM      6  C06 5O5 d   1      15.800   2.515  12.478  0.00  0.00    -0.049 A 
ATOM      7  C07 5O5 d   1      16.274   2.340  13.761  0.00  0.00     0.071 A 
ATOM      8  C15 5O5 d   1      16.200   3.397  14.648  0.00  0.00    -0.028 A 
ATOM      9  H1  5O5 d   1      14.839   3.840  11.100  0.00  0.00     0.086 H 
ATOM     10  H2  5O5 d   1      15.882   1.709  11.757  0.00  0.00     0.087 H 
ATOM     11  H6  5O5 d   1      16.612   3.292  15.645  0.00  0.00     0.090 H 
ENDROOT
BRANCH   7  12
ATOM     12  O08 5O5 d   1      16.805   1.067  14.070  0.00  0.00    -0.344 OA
BRANCH  12  13
ATOM     13  C09 5O5 d   1      17.399   0.904  15.317  0.00  0.00     0.083 C 
ATOM     14  H3  5O5 d   1      18.132   1.707  15.486  0.00  0.00     0.087 H 
ATOM     15  H4  5O5 d   1      17.907  -0.071  15.361  0.00  0.00     0.087 H 
BRANCH  13  16
ATOM     16  C10 5O5 d   1      16.332   0.965  16.368  0.00  0.00     0.170 A 
ATOM     17  N11 5O5 d   1      15.168   0.304  16.390  0.00  0.00    -0.241 N 
ATOM     18  N12 5O5 d   1      14.529   0.689  17.510  0.00  0.00    -0.047 NA
ATOM     19  H5  5O5 d   1      14.828  -0.368  15.687  0.00  0.00     0.192 HD
ATOM     20  N13 5O5 d   1      15.294   1.545  18.159  0.00  0.00    -0.023 NA
ATOM     21  N14 5O5 d   1      16.408   1.743  17.450  0.00  0.00    -0.112 NA
ENDBRANCH  13  16
ENDBRANCH  12  13
ENDBRANCH   7  12
TORSDOF 3
