REMARK  12 active torsions:
REMARK  status: ('A' for Active; 'I' for Inactive)
REMARK    1  A    between atoms: N2_1  and  C20_23 
REMARK    2  A    between atoms: C7_3  and  C8_2 
REMARK    3  A    between atoms: C19_6  and  N3_8 
REMARK    4  A    between atoms: C1_21  and  N1_22 
REMARK    5  A    between atoms: C20_23  and  C21_24 
REMARK    6  A    between atoms: C21_24  and  C22_25 
REMARK    7  A    between atoms: C22_25  and  C24_26 
REMARK    8  A    between atoms: C24_26  and  C25_27 
REMARK    9  A    between atoms: C25_27  and  C26_28 
REMARK   10  A    between atoms: N6_31  and  C28_33 
REMARK   11  A    between atoms: C28_33  and  C29_34 
REMARK   12  A    between atoms: C29_34  and  N7_35 
ROOT
ATOM      1  C22 5O2 d   1      34.964  21.841   7.590  0.00  0.00    -0.063 C 
ATOM      2  H21 5O2 d   1      35.578  21.740   8.497  0.00  0.00     0.033 H 
ATOM      3  H22 5O2 d   1      34.498  20.873   7.353  0.00  0.00     0.033 H 
ENDROOT
BRANCH   1   4
ATOM      4  C21 5O2 d   1      35.918  22.182   6.432  0.00  0.00    -0.050 C 
ATOM      5  H19 5O2 d   1      36.881  21.688   6.630  0.00  0.00     0.035 H 
ATOM      6  H20 5O2 d   1      35.483  21.779   5.505  0.00  0.00     0.035 H 
BRANCH   4   7
ATOM      7  C20 5O2 d   1      36.189  23.674   6.216  0.00  0.00    -0.004 C 
ATOM      8  H17 5O2 d   1      35.904  23.902   5.178  0.00  0.00     0.064 H 
ATOM      9  H18 5O2 d   1      35.529  24.220   6.906  0.00  0.00     0.064 H 
BRANCH   7  10
ATOM     10  N2  5O2 d   1      37.559  24.215   6.414  0.00  0.00    -0.367 N 
ATOM     11  C7  5O2 d   1      37.774  25.205   7.451  0.00  0.00     0.064 A 
ATOM     12  C14 5O2 d   1      39.067  25.975   7.521  0.00  0.00    -0.018 A 
ATOM     13  H1  5O2 d   1      37.313  25.977   6.818  0.00  0.00     0.088 H 
ATOM     14  C15 5O2 d   1      39.344  26.859   8.574  0.00  0.00    -0.049 A 
ATOM     15  C16 5O2 d   1      40.097  25.788   6.443  0.00  0.00    -0.015 A 
ATOM     16  C19 5O2 d   1      40.538  27.571   8.593  0.00  0.00     0.026 A 
ATOM     17  H9  5O2 d   1      38.625  26.988   9.375  0.00  0.00     0.087 H 
ATOM     18  C18 5O2 d   1      41.513  27.374   7.608  0.00  0.00    -0.057 A 
ATOM     19  C17 5O2 d   1      41.298  26.507   6.530  0.00  0.00    -0.069 A 
ATOM     20  H3  5O2 d   1      42.455  27.905   7.682  0.00  0.00     0.086 H 
ATOM     21  H10 5O2 d   1      42.057  26.392   5.765  0.00  0.00     0.085 H 
ATOM     22  C4  5O2 d   1      39.850  24.782   5.356  0.00  0.00     0.001 A 
ATOM     23  C6  5O2 d   1      38.563  24.052   5.317  0.00  0.00     0.044 A 
ATOM     24  C3  5O2 d   1      40.811  24.552   4.352  0.00  0.00    -0.068 A 
ATOM     25  C5  5O2 d   1      38.371  23.103   4.198  0.00  0.00    -0.031 A 
ATOM     26  C1  5O2 d   1      39.358  22.944   3.209  0.00  0.00     0.027 A 
ATOM     27  H2  5O2 d   1      37.457  22.523   4.140  0.00  0.00     0.090 H 
ATOM     28  C2  5O2 d   1      40.575  23.642   3.303  0.00  0.00    -0.057 A 
ATOM     29  H14 5O2 d   1      41.344  23.477   2.557  0.00  0.00     0.086 H 
ATOM     30  H13 5O2 d   1      41.753  25.087   4.388  0.00  0.00     0.085 H 
BRANCH  11  31
ATOM     31  C8  5O2 d   1      36.781  25.467   8.545  0.00  0.00    -0.031 A 
ATOM     32  C13 5O2 d   1      36.119  26.704   8.624  0.00  0.00    -0.074 A 
ATOM     33  C12 5O2 d   1      35.232  26.966   9.680  0.00  0.00    -0.082 A 
ATOM     34  H8  5O2 d   1      36.294  27.459   7.866  0.00  0.00     0.084 H 
ATOM     35  C11 5O2 d   1      34.977  25.982  10.645  0.00  0.00    -0.083 A 
ATOM     36  H7  5O2 d   1      34.743  27.931   9.749  0.00  0.00     0.083 H 
ATOM     37  C10 5O2 d   1      35.650  24.754  10.571  0.00  0.00    -0.082 A 
ATOM     38  H6  5O2 d   1      34.266  26.169  11.441  0.00  0.00     0.083 H 
ATOM     39  C9  5O2 d   1      36.579  24.508   9.546  0.00  0.00    -0.074 A 
ATOM     40  H11 5O2 d   1      35.452  23.988  11.311  0.00  0.00     0.083 H 
ATOM     41  H12 5O2 d   1      37.138  23.579   9.530  0.00  0.00     0.084 H 
ENDBRANCH  11  31
BRANCH  16  42
ATOM     42  N3  5O2 d   1      40.767  28.450   9.590  0.00  0.00    -0.399 N 
ATOM     43  H4  5O2 d   1      40.054  28.600  10.318  0.00  0.00     0.156 HD
ATOM     44  H5  5O2 d   1      41.655  28.971   9.623  0.00  0.00     0.156 HD
ENDBRANCH  16  42
BRANCH  26  45
ATOM     45  N1  5O2 d   1      39.156  22.077   2.181  0.00  0.00    -0.399 N 
ATOM     46  H15 5O2 d   1      38.266  21.563   2.108  0.00  0.00     0.156 HD
ATOM     47  H16 5O2 d   1      39.893  21.934   1.476  0.00  0.00     0.156 HD
ENDBRANCH  26  45
ENDBRANCH   7  10
ENDBRANCH   4   7
ENDBRANCH   1   4
BRANCH   1  48
ATOM     48  C24 5O2 d   1      33.832  22.820   7.917  0.00  0.00    -0.060 C 
ATOM     49  H23 5O2 d   1      33.700  23.526   7.084  0.00  0.00     0.033 H 
ATOM     50  H24 5O2 d   1      34.076  23.377   8.834  0.00  0.00     0.033 H 
BRANCH  48  51
ATOM     51  C25 5O2 d   1      32.550  22.024   8.125  0.00  0.00    -0.022 C 
ATOM     52  H25 5O2 d   1      32.764  20.964   7.923  0.00  0.00     0.042 H 
ATOM     53  H26 5O2 d   1      31.797  22.389   7.411  0.00  0.00     0.042 H 
BRANCH  51  54
ATOM     54  C26 5O2 d   1      31.975  22.136   9.525  0.00  0.00     0.069 A 
ATOM     55  N4  5O2 d   1      31.534  21.083  10.258  0.00  0.00    -0.163 NA
ATOM     56  N5  5O2 d   1      31.035  21.556  11.475  0.00  0.00     0.004 NA
ATOM     57  N6  5O2 d   1      31.183  22.949  11.389  0.00  0.00    -0.282 N 
ATOM     58  C27 5O2 d   1      31.733  23.306  10.235  0.00  0.00     0.020 A 
ATOM     59  H27 5O2 d   1      31.953  24.321   9.907  0.00  0.00     0.116 H 
BRANCH  57  60
ATOM     60  C28 5O2 d   1      30.722  23.739  12.537  0.00  0.00     0.028 C 
ATOM     61  H28 5O2 d   1      29.750  24.196  12.298  0.00  0.00     0.069 H 
ATOM     62  H29 5O2 d   1      31.456  24.530  12.753  0.00  0.00     0.069 H 
BRANCH  60  63
ATOM     63  C29 5O2 d   1      30.571  22.844  13.760  0.00  0.00     0.009 C 
ATOM     64  H30 5O2 d   1      31.401  23.054  14.450  0.00  0.00     0.066 H 
ATOM     65  H31 5O2 d   1      30.623  21.795  13.432  0.00  0.00     0.066 H 
BRANCH  63  66
ATOM     66  N7  5O2 d   1      29.327  23.040  14.469  0.00  0.00    -0.387 N 
ATOM     67  C30 5O2 d   1      28.160  22.466  14.093  0.00  0.00     0.053 A 
ATOM     68  C31 5O2 d   1      27.112  23.281  13.397  0.00  0.00     0.020 A 
ATOM     69  C39 5O2 d   1      27.807  21.057  14.443  0.00  0.00     0.020 A 
ATOM     70  C32 5O2 d   1      27.295  24.629  13.079  0.00  0.00    -0.069 A 
ATOM     71  C33 5O2 d   1      25.788  22.658  13.151  0.00  0.00     0.070 A 
ATOM     72  C36 5O2 d   1      26.259  25.350  12.482  0.00  0.00    -0.082 A 
ATOM     73  H33 5O2 d   1      28.240  25.114  13.295  0.00  0.00     0.085 H 
ATOM     74  C35 5O2 d   1      25.036  24.746  12.192  0.00  0.00    -0.081 A 
ATOM     75  H36 5O2 d   1      26.408  26.396  12.240  0.00  0.00     0.083 H 
ATOM     76  C34 5O2 d   1      24.793  23.409  12.526  0.00  0.00    -0.054 A 
ATOM     77  H35 5O2 d   1      24.261  25.322  11.700  0.00  0.00     0.083 H 
ATOM     78  H34 5O2 d   1      23.834  22.958  12.299  0.00  0.00     0.087 H 
ATOM     79  N8  5O2 d   1      25.563  21.359  13.446  0.00  0.00    -0.247 NA
ATOM     80  C37 5O2 d   1      26.457  20.546  14.043  0.00  0.00     0.070 A 
ATOM     81  C38 5O2 d   1      26.056  19.089  14.260  0.00  0.00    -0.054 C 
ATOM     82  C42 5O2 d   1      26.757  18.513  15.476  0.00  0.00    -0.081 C 
ATOM     83  H37 5O2 d   1      25.364  18.541  13.631  0.00  0.00     0.087 H 
ATOM     84  C41 5O2 d   1      28.247  18.806  15.645  0.00  0.00    -0.082 C 
ATOM     85  H40 5O2 d   1      26.218  17.913  16.201  0.00  0.00     0.083 H 
ATOM     86  C40 5O2 d   1      28.791  20.170  15.191  0.00  0.00    -0.069 C 
ATOM     87  H39 5O2 d   1      28.909  18.065  16.078  0.00  0.00     0.083 H 
ATOM     88  H38 5O2 d   1      29.810  20.480  15.391  0.00  0.00     0.085 H 
ATOM     89  H32 5O2 d   1      29.328  23.646  15.302  0.00  0.00     0.159 HD
ENDBRANCH  63  66
ENDBRANCH  60  63
ENDBRANCH  57  60
ENDBRANCH  51  54
ENDBRANCH  48  51
ENDBRANCH   1  48
TORSDOF 12
