REMARK  5 active torsions:
REMARK  status: ('A' for Active; 'I' for Inactive)
REMARK    1  A    between atoms: C1_1  and  C8_18 
REMARK    2  A    between atoms: C12_4  and  C23_12 
REMARK    3  A    between atoms: C12_4  and  N22_23 
REMARK    4  A    between atoms: C4_14  and  N9_19 
REMARK    5  A    between atoms: C6_16  and  N7_17 
ROOT
ATOM      1  C11 5OD d   1      26.886  41.393   3.817  0.00  0.00    -0.019 C 
ATOM      2  C12 5OD d   1      27.197  42.738   3.044  0.00  0.00     0.123 C 
ATOM      3  C13 5OD d   1      25.866  43.502   2.724  0.00  0.00    -0.019 C 
ATOM      4  C14 5OD d   1      24.759  42.612   2.101  0.00  0.00    -0.001 C 
ATOM      5  N9  5OD d   1      24.609  41.420   2.963  0.00  0.00    -0.364 N 
ATOM      6  C10 5OD d   1      25.767  40.553   3.126  0.00  0.00    -0.001 C 
ATOM      7  H2  5OD d   1      26.562  41.640   4.839  0.00  0.00     0.039 H 
ATOM      8  H3  5OD d   1      27.805  40.790   3.860  0.00  0.00     0.039 H 
ATOM      9  H4  5OD d   1      26.095  44.314   2.018  0.00  0.00     0.039 H 
ATOM     10  H5  5OD d   1      25.479  43.929   3.661  0.00  0.00     0.039 H 
ATOM     11  H6  5OD d   1      25.050  42.306   1.085  0.00  0.00     0.064 H 
ATOM     12  H7  5OD d   1      23.810  43.167   2.059  0.00  0.00     0.064 H 
ATOM     13  H16 5OD d   1      25.504  39.689   3.754  0.00  0.00     0.064 H 
ATOM     14  H17 5OD d   1      26.114  40.201   2.143  0.00  0.00     0.064 H 
ENDROOT
BRANCH   5  15
ATOM     15  C4  5OD d   1      23.431  41.172   3.609  0.00  0.00     0.145 A 
ATOM     16  C3  5OD d   1      22.304  41.987   3.389  0.00  0.00     0.047 A 
ATOM     17  N2  5OD d   1      21.139  41.731   4.009  0.00  0.00    -0.253 NA
ATOM     18  H1  5OD d   1      22.377  42.831   2.712  0.00  0.00     0.120 H 
ATOM     19  C1  5OD d   1      21.051  40.736   4.933  0.00  0.00     0.114 A 
ATOM     20  C6  5OD d   1      22.183  39.926   5.201  0.00  0.00     0.153 A 
ATOM     21  N5  5OD d   1      23.342  40.180   4.545  0.00  0.00    -0.210 NA
BRANCH  19  22
ATOM     22  C8  5OD d   1      19.696  40.540   5.509  0.00  0.00     0.020 A 
ATOM     23  C15 5OD d   1      19.432  40.762   6.864  0.00  0.00     0.068 A 
ATOM     24  C16 5OD d   1      18.137  40.596   7.370  0.00  0.00     0.056 A 
ATOM     25 CL1  5OD d   1      20.682  41.345   7.913  0.00  0.00    -0.082 Cl
ATOM     26  C17 5OD d   1      17.085  40.187   6.524  0.00  0.00    -0.060 A 
ATOM     27 CL2  5OD d   1      17.842  40.955   9.052  0.00  0.00    -0.083 Cl
ATOM     28  C18 5OD d   1      17.352  39.899   5.169  0.00  0.00    -0.080 A 
ATOM     29  H8  5OD d   1      16.077  40.094   6.913  0.00  0.00     0.086 H 
ATOM     30  C19 5OD d   1      18.648  40.110   4.658  0.00  0.00    -0.069 A 
ATOM     31  H9  5OD d   1      16.567  39.519   4.526  0.00  0.00     0.083 H 
ATOM     32  H10 5OD d   1      18.845  39.942   3.605  0.00  0.00     0.085 H 
ENDBRANCH  19  22
BRANCH  20  33
ATOM     33  N7  5OD d   1      22.178  38.897   6.080  0.00  0.00    -0.382 N 
ATOM     34  H14 5OD d   1      23.034  38.345   6.231  0.00  0.00     0.157 HD
ATOM     35  H15 5OD d   1      21.318  38.666   6.598  0.00  0.00     0.157 HD
ENDBRANCH  20  33
ENDBRANCH   5  15
BRANCH   2  36
ATOM     36  C23 5OD d   1      27.981  42.452   1.732  0.00  0.00    -0.045 C 
ATOM     37  H11 5OD d   1      28.912  41.916   1.970  0.00  0.00     0.030 H 
ATOM     38  H12 5OD d   1      28.223  43.403   1.234  0.00  0.00     0.030 H 
ATOM     39  H13 5OD d   1      27.364  41.835   1.063  0.00  0.00     0.030 H 
ENDBRANCH   2  36
BRANCH   2  40
ATOM     40  N22 5OD d   1      28.086  43.579   3.875  0.00  0.00    -0.071 N 
ATOM     41  H18 5OD d   1      27.626  43.797   4.745  0.00  0.00     0.275 HD
ATOM     42  H19 5OD d   1      28.297  44.433   3.383  0.00  0.00     0.275 HD
ATOM     43  H20 5OD d   1      28.941  43.080   4.063  0.00  0.00     0.275 HD
ENDBRANCH   2  40
TORSDOF 5
