REMARK  7 active torsions:
REMARK  status: ('A' for Active; 'I' for Inactive)
REMARK    1  A    between atoms: C02_2  and  C04_4 
REMARK    2  A    between atoms: C05_5  and  C06_6 
REMARK    3  A    between atoms: C08_8  and  O09_9 
REMARK    4  A    between atoms: O09_9  and  C10_10 
REMARK    5  A    between atoms: C10_10  and  C11_11 
REMARK    6  A    between atoms: C15_15  and  C16_16 
REMARK    7  A    between atoms: C16_16  and  C17_17 
ROOT
ATOM      1  C10 5ON d   1      18.500   6.175  13.526  0.00  0.00     0.050 C 
ATOM      2  H4  5ON d   1      19.462   5.644  13.472  0.00  0.00     0.082 H 
ATOM      3  H5  5ON d   1      18.215   6.519  12.521  0.00  0.00     0.082 H 
ENDROOT
BRANCH   1   4
ATOM      4  O09 5ON d   1      18.593   7.281  14.422  0.00  0.00    -0.347 OA
BRANCH   4   5
ATOM      5  C08 5ON d   1      19.587   8.218  14.195  0.00  0.00     0.070 A 
ATOM      6  C07 5ON d   1      20.380   8.122  13.063  0.00  0.00    -0.041 A 
ATOM      7  C06 5ON d   1      21.369   9.069  12.857  0.00  0.00    -0.033 A 
ATOM      8  H3  5ON d   1      20.229   7.319  12.351  0.00  0.00     0.089 H 
ATOM      9  C23 5ON d   1      21.545  10.100  13.759  0.00  0.00    -0.073 A 
ATOM     10  C22 5ON d   1      20.734  10.194  14.883  0.00  0.00    -0.080 A 
ATOM     11  H14 5ON d   1      22.320  10.839  13.589  0.00  0.00     0.084 H 
ATOM     12  C21 5ON d   1      19.753   9.248  15.107  0.00  0.00    -0.051 A 
ATOM     13  H13 5ON d   1      20.871  11.009  15.584  0.00  0.00     0.083 H 
ATOM     14  H12 5ON d   1      19.121   9.310  15.985  0.00  0.00     0.087 H 
BRANCH   7  15
ATOM     15  C05 5ON d   1      22.246   8.979  11.635  0.00  0.00    -0.067 C 
ATOM     16  C04 5ON d   1      23.340   9.757  11.565  0.00  0.00    -0.009 C 
ATOM     17  H1  5ON d   1      23.588  10.433  12.382  0.00  0.00     0.094 H 
ATOM     18  H2  5ON d   1      21.998   8.296  10.824  0.00  0.00     0.085 H 
BRANCH  16  19
ATOM     19  C02 5ON d   1      24.224   9.684  10.338  0.00  0.00     0.198 C 
ATOM     20  O01 5ON d   1      25.386  10.173  10.371  0.00  0.00    -0.645 OA
ATOM     21  O03 5ON d   1      23.788   9.152   9.282  0.00  0.00    -0.645 OA
ENDBRANCH  16  19
ENDBRANCH   7  15
ENDBRANCH   4   5
ENDBRANCH   1   4
BRANCH   1  22
ATOM     22  C11 5ON d   1      17.435   5.274  14.093  0.00  0.00    -0.034 A 
ATOM     23  C12 5ON d   1      16.093   5.627  14.003  0.00  0.00    -0.075 A 
ATOM     24  C13 5ON d   1      15.136   4.819  14.555  0.00  0.00    -0.082 A 
ATOM     25  H6  5ON d   1      15.805   6.541  13.496  0.00  0.00     0.084 H 
ATOM     26  C14 5ON d   1      15.489   3.638  15.168  0.00  0.00    -0.076 A 
ATOM     27  H7  5ON d   1      14.093   5.111  14.509  0.00  0.00     0.083 H 
ATOM     28  C15 5ON d   1      16.814   3.252  15.259  0.00  0.00    -0.048 A 
ATOM     29  H8  5ON d   1      14.717   3.001  15.585  0.00  0.00     0.084 H 
ATOM     30  C20 5ON d   1      17.786   4.074  14.706  0.00  0.00    -0.068 A 
ATOM     31  H11 5ON d   1      18.828   3.779  14.752  0.00  0.00     0.085 H 
BRANCH  28  32
ATOM     32  C16 5ON d   1      17.220   1.944  15.939  0.00  0.00     0.039 C 
ATOM     33  H9  5ON d   1      17.058   2.040  17.023  0.00  0.00     0.056 H 
ATOM     34  H10 5ON d   1      18.286   1.756  15.743  0.00  0.00     0.056 H 
BRANCH  32  35
ATOM     35  C17 5ON d   1      16.405   0.762  15.420  0.00  0.00     0.176 C 
ATOM     36  O18 5ON d   1      15.345   0.404  16.048  0.00  0.00    -0.648 OA
ATOM     37  O19 5ON d   1      16.800   0.096  14.404  0.00  0.00    -0.648 OA
ENDBRANCH  32  35
ENDBRANCH  28  32
ENDBRANCH   1  22
TORSDOF 7
