REMARK  10 active torsions:
REMARK  status: ('A' for Active; 'I' for Inactive)
REMARK    1  A    between atoms: C2_17  and  N2_6 
REMARK    2  A    between atoms: CAQ_14  and  CAW_13 
REMARK    3  A    between atoms: CAQ_14  and  N7_15 
REMARK    4  A    between atoms: N9_18  and  CBD_19 
REMARK    5  A    between atoms: CBB_21  and  OAF_22 
REMARK    6  A    between atoms: CBA_23  and  OAE_24 
REMARK    7  A    between atoms: CBC_25  and  CAP_26 
REMARK    8  A    between atoms: CAP_26  and  NAS_27 
REMARK    9  A    between atoms: NAS_27  and  SBH_28 
REMARK   10  A    between atoms: SBH_28  and  CBG_31 
ROOT
ATOM      1  C4  5O8 d   1       5.288 -10.485  -4.538  0.00  0.00     0.159 A 
ATOM      2  C5  5O8 d   1       4.702 -11.125  -5.621  0.00  0.00     0.150 A 
ATOM      3  C6  5O8 d   1       3.341 -11.388  -5.629  0.00  0.00     0.290 A 
ATOM      4  C8  5O8 d   1       6.828 -10.905  -6.003  0.00  0.00     0.050 A 
ATOM      5  N1  5O8 d   1       2.583 -10.996  -4.527  0.00  0.00    -0.154 N 
ATOM      6  N3  5O8 d   1       4.543 -10.116  -3.487  0.00  0.00    -0.174 N 
ATOM      7  N7  5O8 d   1       5.677 -11.354  -6.484  0.00  0.00    -0.331 N 
ATOM      8  O6  5O8 d   1       2.815 -11.954  -6.585  0.00  0.00    -0.265 OA
ATOM      9  C2  5O8 d   1       3.223 -10.355  -3.459  0.00  0.00     0.680 A 
ATOM     10  N9  5O8 d   1       6.588 -10.368  -4.808  0.00  0.00    -0.296 N 
ATOM     11  H1  5O8 d   1       7.797 -10.965  -6.497  0.00  0.00     0.141 H 
ATOM     12  H2  5O8 d   1       1.599 -11.170  -4.499  0.00  0.00     0.187 HD
ATOM     13  H5  5O8 d   1       4.990  -9.642  -2.689  0.00  0.00     0.186 HD
ENDROOT
BRANCH  10  14
ATOM     14  CBD 5O8 d   1       7.635  -9.754  -3.953  0.00  0.00     0.139 C 
ATOM     15  OAU 5O8 d   1       8.481 -10.845  -3.457  0.00  0.00    -0.354 OA
ATOM     16  CBC 5O8 d   1       8.207 -11.050  -2.052  0.00  0.00     0.084 C 
ATOM     17  CBA 5O8 d   1       7.094 -10.048  -1.698  0.00  0.00     0.091 C 
ATOM     18  H18 5O8 d   1       9.105 -10.812  -1.463  0.00  0.00     0.090 H 
ATOM     19  CBB 5O8 d   1       7.149  -8.964  -2.774  0.00  0.00     0.105 C 
ATOM     20  H16 5O8 d   1       6.106 -10.529  -1.653  0.00  0.00     0.091 H 
ATOM     21  H14 5O8 d   1       6.171  -8.494  -2.953  0.00  0.00     0.093 H 
ATOM     22  H13 5O8 d   1       8.235  -9.080  -4.583  0.00  0.00     0.122 H 
BRANCH  16  23
ATOM     23  CAP 5O8 d   1       7.822 -12.542  -1.765  0.00  0.00     0.029 C 
ATOM     24  H19 5O8 d   1       8.111 -12.813  -0.739  0.00  0.00     0.069 H 
ATOM     25  H20 5O8 d   1       8.334 -13.205  -2.478  0.00  0.00     0.069 H 
BRANCH  23  26
ATOM     26  NAS 5O8 d   1       6.354 -12.665  -1.926  0.00  0.00    -0.310 N 
ATOM     27  H21 5O8 d   1       5.705 -12.147  -1.369  0.00  0.00     0.172 HD
BRANCH  26  28
ATOM     28  SBH 5O8 d   1       5.875 -13.726  -3.100  0.00  0.00     0.329 S 
ATOM     29  OAC 5O8 d   1       6.876 -13.737  -4.217  0.00  0.00    -0.197 OA
ATOM     30  OAD 5O8 d   1       4.527 -13.331  -3.626  0.00  0.00    -0.197 OA
BRANCH  28  31
ATOM     31  CBG 5O8 d   1       5.783 -15.375  -2.334  0.00  0.00     0.517 C 
ATOM     32  FAH 5O8 d   1       6.982 -15.716  -1.872  0.00  0.00    -0.155 F 
ATOM     33  FAI 5O8 d   1       4.913 -15.348  -1.330  0.00  0.00    -0.155 F 
ATOM     34  FAG 5O8 d   1       5.388 -16.264  -3.240  0.00  0.00    -0.155 F 
ENDBRANCH  28  31
ENDBRANCH  26  28
ENDBRANCH  23  26
ENDBRANCH  16  23
BRANCH  17  35
ATOM     35  OAE 5O8 d   1       7.439  -9.459  -0.463  0.00  0.00    -0.390 OA
ATOM     36  H17 5O8 d   1       8.316  -9.098  -0.520  0.00  0.00     0.210 HD
ENDBRANCH  17  35
BRANCH  19  37
ATOM     37  OAF 5O8 d   1       8.129  -7.986  -2.417  0.00  0.00    -0.388 OA
ATOM     38  H15 5O8 d   1       7.819  -7.487  -1.670  0.00  0.00     0.210 HD
ENDBRANCH  19  37
ENDBRANCH  10  14
BRANCH   7  39
ATOM     39  CAQ 5O8 d   1       5.520 -12.022  -7.779  0.00  0.00     0.025 C 
ATOM     40  H11 5O8 d   1       4.488 -11.901  -8.139  0.00  0.00     0.072 H 
ATOM     41  H12 5O8 d   1       6.217 -11.587  -8.511  0.00  0.00     0.072 H 
BRANCH  39  42
ATOM     42  CAW 5O8 d   1       5.831 -13.504  -7.583  0.00  0.00    -0.040 A 
ATOM     43  CAM 5O8 d   1       7.127 -13.976  -7.751  0.00  0.00    -0.075 A 
ATOM     44  CAK 5O8 d   1       7.402 -15.327  -7.571  0.00  0.00    -0.082 A 
ATOM     45  H6  5O8 d   1       7.923 -13.292  -8.022  0.00  0.00     0.084 H 
ATOM     46  CAJ 5O8 d   1       6.382 -16.206  -7.223  0.00  0.00    -0.083 A 
ATOM     47  H7  5O8 d   1       8.413 -15.696  -7.702  0.00  0.00     0.083 H 
ATOM     48  CAL 5O8 d   1       5.085 -15.735  -7.054  0.00  0.00    -0.082 A 
ATOM     49  H8  5O8 d   1       6.598 -17.259  -7.083  0.00  0.00     0.083 H 
ATOM     50  CAN 5O8 d   1       4.811 -14.384  -7.235  0.00  0.00    -0.075 A 
ATOM     51  H9  5O8 d   1       4.290 -16.419  -6.782  0.00  0.00     0.083 H 
ATOM     52  H10 5O8 d   1       3.800 -14.015  -7.105  0.00  0.00     0.084 H 
ENDBRANCH  39  42
ENDBRANCH   7  39
BRANCH   9  53
ATOM     53  N2  5O8 d   1       2.511  -9.976  -2.402  0.00  0.00    -0.234 N 
ATOM     54  H3  5O8 d   1       2.973  -9.504  -1.612  0.00  0.00     0.174 HD
ATOM     55  H4  5O8 d   1       1.497 -10.155  -2.373  0.00  0.00     0.174 HD
ENDBRANCH   9  53
TORSDOF 10
