REMARK  7 active torsions:
REMARK  status: ('A' for Active; 'I' for Inactive)
REMARK    1  A    between atoms: CAK_7  and  NAI_8 
REMARK    2  A    between atoms: NAI_8  and  CAH_9 
REMARK    3  A    between atoms: CAH_9  and  SAJ_10 
REMARK    4  A    between atoms: CAH_9  and  NAG_11 
REMARK    5  A    between atoms: NAG_11  and  CAD_12 
REMARK    6  A    between atoms: CAA_15  and  SAR_16 
REMARK    7  A    between atoms: SAR_16  and  NAU_19 
ROOT
ATOM      1  NAG 5OT d   1      -3.600   5.352  13.817  0.00  0.00    -0.361 N 
ATOM      2  H8  5OT d   1      -2.590   5.229  13.660  0.00  0.00     0.162 HD
ENDROOT
BRANCH   1   3
ATOM      3  CAH 5OT d   1      -4.214   6.530  13.252  0.00  0.00     0.119 C 
ATOM      4  H6  5OT d   1      -4.551   7.198  14.058  0.00  0.00     0.124 H 
BRANCH   3   5
ATOM      5  NAI 5OT d   1      -3.131   7.165  12.515  0.00  0.00    -0.360 N 
ATOM      6  H5  5OT d   1      -3.084   7.150  11.486  0.00  0.00     0.162 HD
BRANCH   5   7
ATOM      7  CAK 5OT d   1      -2.119   7.822  13.327  0.00  0.00     0.031 A 
ATOM      8  CAP 5OT d   1      -0.937   8.275  12.775  0.00  0.00    -0.042 A 
ATOM      9  CAO 5OT d   1      -0.002   8.905  13.587  0.00  0.00     0.008 A 
ATOM     10  H1  5OT d   1      -0.740   8.140  11.717  0.00  0.00     0.088 H 
ATOM     11  IAQ 5OT d   1       1.809   9.598  12.750  0.00  0.00    -0.045 I 
ATOM     12  CAN 5OT d   1      -0.233   9.099  14.940  0.00  0.00    -0.067 A 
ATOM     13  CAM 5OT d   1      -1.412   8.647  15.492  0.00  0.00    -0.080 A 
ATOM     14  H2  5OT d   1       0.505   9.600  15.556  0.00  0.00     0.085 H 
ATOM     15  CAL 5OT d   1      -2.340   8.007  14.684  0.00  0.00    -0.057 A 
ATOM     16  H3  5OT d   1      -1.612   8.790  16.548  0.00  0.00     0.083 H 
ATOM     17  H4  5OT d   1      -3.261   7.642  15.124  0.00  0.00     0.086 H 
ENDBRANCH   5   7
ENDBRANCH   3   5
BRANCH   3  18
ATOM     18  SAJ 5OT d   1      -5.656   6.126  12.225  0.00  0.00    -0.136 SA
ATOM     19  H7  5OT d   1      -6.363   5.691  12.797  0.00  0.00     0.105 HD
ENDBRANCH   3  18
ENDBRANCH   1   3
BRANCH   1  20
ATOM     20  CAD 5OT d   1      -4.272   4.335  14.579  0.00  0.00     0.030 A 
ATOM     21  CAC 5OT d   1      -5.597   4.406  14.970  0.00  0.00    -0.056 A 
ATOM     22  CAB 5OT d   1      -6.127   3.362  15.709  0.00  0.00    -0.058 A 
ATOM     23  H9  5OT d   1      -6.208   5.261  14.703  0.00  0.00     0.087 H 
ATOM     24  CAA 5OT d   1      -5.315   2.288  16.041  0.00  0.00     0.079 A 
ATOM     25  H10 5OT d   1      -7.164   3.384  16.024  0.00  0.00     0.086 H 
ATOM     26  CAF 5OT d   1      -4.003   2.233  15.650  0.00  0.00    -0.058 A 
ATOM     27  CAE 5OT d   1      -3.486   3.262  14.910  0.00  0.00    -0.056 A 
ATOM     28  H13 5OT d   1      -3.383   1.387  15.923  0.00  0.00     0.086 H 
ATOM     29  H14 5OT d   1      -2.452   3.228  14.585  0.00  0.00     0.087 H 
BRANCH  24  30
ATOM     30  SAR 5OT d   1      -5.941   0.885  16.992  0.00  0.00     0.256 S 
ATOM     31  OAS 5OT d   1      -5.354   1.029  18.500  0.00  0.00    -0.201 OA
ATOM     32  OAT 5OT d   1      -7.559   0.948  16.895  0.00  0.00    -0.201 OA
BRANCH  30  33
ATOM     33  NAU 5OT d   1      -5.338  -0.529  16.250  0.00  0.00    -0.324 N 
ATOM     34  H11 5OT d   1      -5.569  -1.427  16.624  0.00  0.00     0.169 HD
ATOM     35  H12 5OT d   1      -4.754  -0.459  15.441  0.00  0.00     0.169 HD
ENDBRANCH  30  33
ENDBRANCH  24  30
ENDBRANCH   1  20
TORSDOF 7
