REMARK  4 active torsions:
REMARK  status: ('A' for Active; 'I' for Inactive)
REMARK    1  A    between atoms: N3_6  and  CAI_14 
REMARK    2  A    between atoms: CAT_8  and  CAU_7 
REMARK    3  A    between atoms: CAT_8  and  N7_9 
REMARK    4  A    between atoms: CAI_14  and  CAJ_15 
ROOT
ATOM      1  C4  5OU d   1     -24.385  -6.827  77.243  0.00  0.00     0.168 A 
ATOM      2  C5  5OU d   1     -23.516  -5.916  77.826  0.00  0.00     0.151 A 
ATOM      3  C6  5OU d   1     -22.281  -5.750  77.326  0.00  0.00     0.280 A 
ATOM      4  C8  5OU d   1     -25.418  -5.951  78.908  0.00  0.00     0.069 A 
ATOM      5  N1  5OU d   1     -21.947  -6.494  76.162  0.00  0.00    -0.273 N 
ATOM      6  N3  5OU d   1     -24.026  -7.542  76.151  0.00  0.00    -0.277 N 
ATOM      7  N7  5OU d   1     -24.187  -5.395  78.875  0.00  0.00    -0.334 N 
ATOM      8  N9  5OU d   1     -25.559  -6.833  77.929  0.00  0.00    -0.223 NA
ATOM      9  O6  5OU d   1     -21.359  -4.984  77.740  0.00  0.00    -0.265 OA
ATOM     10  C2  5OU d   1     -22.847  -7.376  75.589  0.00  0.00     0.331 A 
ATOM     11  O2  5OU d   1     -22.435  -7.964  74.607  0.00  0.00    -0.246 OA
ATOM     12  H1  5OU d   1     -26.188  -5.708  79.638  0.00  0.00     0.143 H 
ATOM     13  H2  5OU d   1     -21.044  -6.378  75.749  0.00  0.00     0.173 HD
ENDROOT
BRANCH   6  14
ATOM     14  CAI 5OU d   1     -25.029  -8.423  75.532  0.00  0.00     0.030 C 
ATOM     15  H8  5OU d   1     -25.676  -8.847  76.314  0.00  0.00     0.072 H 
ATOM     16  H9  5OU d   1     -24.520  -9.238  74.996  0.00  0.00     0.072 H 
BRANCH  14  17
ATOM     17  CAJ 5OU d   1     -25.826  -7.672  74.610  0.00  0.00    -0.040 A 
ATOM     18  CAK 5OU d   1     -26.996  -7.040  75.014  0.00  0.00    -0.074 A 
ATOM     19  CAL 5OU d   1     -27.724  -6.296  74.089  0.00  0.00    -0.061 A 
ATOM     20  H10 5OU d   1     -27.338  -7.125  76.039  0.00  0.00     0.084 H 
ATOM     21  CAM 5OU d   1     -27.341  -6.114  72.782  0.00  0.00     0.034 A 
ATOM     22  H11 5OU d   1     -28.647  -5.833  74.419  0.00  0.00     0.086 H 
ATOM     23 CL   5OU d   1     -28.381  -5.137  71.623  0.00  0.00    -0.084 Cl
ATOM     24  CAN 5OU d   1     -26.161  -6.712  72.365  0.00  0.00    -0.061 A 
ATOM     25  CAO 5OU d   1     -25.392  -7.485  73.292  0.00  0.00    -0.074 A 
ATOM     26  H12 5OU d   1     -25.823  -6.594  71.342  0.00  0.00     0.086 H 
ATOM     27  H13 5OU d   1     -24.459  -7.933  72.969  0.00  0.00     0.084 H 
ENDBRANCH  14  17
ENDBRANCH   6  14
BRANCH   7  28
ATOM     28  CAT 5OU d   1     -23.664  -4.380  79.797  0.00  0.00    -0.002 C 
ATOM     29  H6  5OU d   1     -24.218  -4.423  80.746  0.00  0.00     0.064 H 
ATOM     30  H7  5OU d   1     -22.597  -4.568  79.986  0.00  0.00     0.064 H 
BRANCH  28  31
ATOM     31  CAU 5OU d   1     -23.836  -3.007  79.169  0.00  0.00    -0.061 C 
ATOM     32  H3  5OU d   1     -23.446  -2.239  79.854  0.00  0.00     0.029 H 
ATOM     33  H4  5OU d   1     -24.904  -2.822  78.980  0.00  0.00     0.029 H 
ATOM     34  H5  5OU d   1     -23.282  -2.966  78.219  0.00  0.00     0.029 H 
ENDBRANCH  28  31
ENDBRANCH   7  28
TORSDOF 4
