REMARK  9 active torsions:
REMARK  status: ('A' for Active; 'I' for Inactive)
REMARK    1  A    between atoms: C02_2  and  N07_7 
REMARK    2  A    between atoms: C05_5  and  S12_12 
REMARK       I    between atoms: N07_7  and  C08_8 
REMARK    3  A    between atoms: C08_8  and  C11_11 
REMARK    4  A    between atoms: C11_11  and  N10_10 
REMARK    5  A    between atoms: N10_10  and  C16_16 
REMARK    6  A    between atoms: S12_12  and  N15_15 
REMARK    7  A    between atoms: C16_16  and  C17_17 
REMARK    8  A    between atoms: C17_17  and  C18_18 
REMARK    9  A    between atoms: C18_18  and  C19_19 
ROOT
ATOM      1  N07 TG5 d   1       0.428   4.938  83.294  0.00  0.00    -0.326 N 
ATOM      2  C08 TG5 d   1      -0.068   6.082  82.577  0.00  0.00     0.247 C 
ATOM      3  O09 TG5 d   1       0.742   6.771  81.975  0.00  0.00    -0.271 OA
ATOM      4  H5  TG5 d   1       1.418   4.806  83.239  0.00  0.00     0.169 HD
ENDROOT
BRANCH   2   5
ATOM      5  C11 TG5 d   1      -1.548   6.496  82.492  0.00  0.00     0.154 C 
ATOM      6  H8  TG5 d   1      -1.829   7.037  83.407  0.00  0.00     0.090 H 
ATOM      7  H9  TG5 d   1      -2.173   5.597  82.391  0.00  0.00     0.090 H 
BRANCH   5   8
ATOM      8  N10 TG5 d   1      -1.754   7.360  81.337  0.00  0.00    -0.067 N 
ATOM      9  H6  TG5 d   1      -0.990   7.248  80.689  0.00  0.00     0.277 HD
ATOM     10  H7  TG5 d   1      -1.802   8.321  81.637  0.00  0.00     0.277 HD
BRANCH   8  11
ATOM     11  C16 TG5 d   1      -2.992   6.990  80.696  0.00  0.00     0.082 C 
ATOM     12  H12 TG5 d   1      -3.831   7.158  81.387  0.00  0.00     0.075 H 
ATOM     13  H13 TG5 d   1      -2.958   5.928  80.411  0.00  0.00     0.075 H 
BRANCH  11  14
ATOM     14  C17 TG5 d   1      -3.176   7.853  79.444  0.00  0.00    -0.043 C 
ATOM     15  H14 TG5 d   1      -2.283   7.769  78.807  0.00  0.00     0.035 H 
ATOM     16  H15 TG5 d   1      -3.317   8.903  79.741  0.00  0.00     0.035 H 
BRANCH  14  17
ATOM     17  C18 TG5 d   1      -4.419   7.370  78.654  0.00  0.00    -0.067 C 
ATOM     18  H16 TG5 d   1      -5.200   7.049  79.359  0.00  0.00     0.032 H 
ATOM     19  H17 TG5 d   1      -4.138   6.525  78.009  0.00  0.00     0.032 H 
BRANCH  17  20
ATOM     20  C19 TG5 d   1      -4.948   8.512  77.794  0.00  0.00    -0.076 C 
ATOM     21  H18 TG5 d   1      -5.830   8.170  77.233  0.00  0.00     0.027 H 
ATOM     22  H19 TG5 d   1      -4.167   8.832  77.089  0.00  0.00     0.027 H 
ATOM     23  H20 TG5 d   1      -5.229   9.357  78.439  0.00  0.00     0.027 H 
ENDBRANCH  17  20
ENDBRANCH  14  17
ENDBRANCH  11  14
ENDBRANCH   8  11
ENDBRANCH   5   8
ENDBRANCH   2   5
BRANCH   1  24
ATOM     24  C02 TG5 d   1      -0.257   3.967  84.066  0.00  0.00     0.034 A 
ATOM     25  C01 TG5 d   1       0.511   2.956  84.641  0.00  0.00    -0.056 A 
ATOM     26  C06 TG5 d   1      -0.093   1.979  85.402  0.00  0.00    -0.058 A 
ATOM     27  H1  TG5 d   1       1.584   2.938  84.489  0.00  0.00     0.087 H 
ATOM     28  C05 TG5 d   1      -1.480   2.004  85.611  0.00  0.00     0.079 A 
ATOM     29  H4  TG5 d   1       0.505   1.189  85.841  0.00  0.00     0.086 H 
ATOM     30  C04 TG5 d   1      -2.259   3.000  85.033  0.00  0.00    -0.058 A 
ATOM     31  C03 TG5 d   1      -1.642   3.973  84.278  0.00  0.00    -0.056 A 
ATOM     32  H3  TG5 d   1      -3.334   3.011  85.174  0.00  0.00     0.086 H 
ATOM     33  H2  TG5 d   1      -2.242   4.761  83.838  0.00  0.00     0.087 H 
BRANCH  28  34
ATOM     34  S12 TG5 d   1      -2.265   0.739  86.587  0.00  0.00     0.256 S 
ATOM     35  O13 TG5 d   1      -3.685   0.886  86.454  0.00  0.00    -0.201 OA
ATOM     36  O14 TG5 d   1      -1.909   0.927  87.965  0.00  0.00    -0.201 OA
BRANCH  34  37
ATOM     37  N15 TG5 d   1      -1.732  -0.688  86.006  0.00  0.00    -0.324 N 
ATOM     38  H10 TG5 d   1      -2.050  -1.544  86.414  0.00  0.00     0.169 HD
ATOM     39  H11 TG5 d   1      -1.087  -0.707  85.242  0.00  0.00     0.169 HD
ENDBRANCH  34  37
ENDBRANCH  28  34
ENDBRANCH   1  24
TORSDOF 9
