REMARK  5 active torsions:
REMARK  status: ('A' for Active; 'I' for Inactive)
REMARK    1  A    between atoms: P9_2  and  C8_5 
REMARK    2  A    between atoms: C8_5  and  C7_6 
REMARK    3  A    between atoms: C7_6  and  O13_7 
REMARK    4  A    between atoms: C7_6  and  C6_8 
REMARK    5  A    between atoms: C6_8  and  N2_9 
ROOT
ATOM      1  C7  5LD d   1     -40.937 -21.085   9.945  0.00  0.00     0.065 C 
ATOM      2  H3  5LD d   1     -39.904 -20.847  10.238  0.00  0.00     0.086 H 
ENDROOT
BRANCH   1   3
ATOM      3  C8  5LD d   1     -41.463 -22.136  10.912  0.00  0.00     0.064 C 
ATOM      4  H1  5LD d   1     -41.526 -21.672  11.907  0.00  0.00     0.057 H 
ATOM      5  H2  5LD d   1     -42.471 -22.423  10.577  0.00  0.00     0.057 H 
BRANCH   3   6
ATOM      6  P9  5LD d   1     -40.480 -23.658  11.074  0.00  0.00     0.262 P 
ATOM      7  O10 5LD d   1     -41.020 -24.302  12.327  0.00  0.00    -0.640 OA
ATOM      8  O11 5LD d   1     -39.011 -23.291  11.232  0.00  0.00    -0.640 OA
ATOM      9  O12 5LD d   1     -40.663 -24.468   9.823  0.00  0.00    -0.640 OA
ENDBRANCH   3   6
ENDBRANCH   1   3
BRANCH   1  10
ATOM     10  O13 5LD d   1     -41.756 -19.898  10.031  0.00  0.00    -0.393 OA
ATOM     11  H4  5LD d   1     -42.653 -20.116   9.805  0.00  0.00     0.210 HD
ENDBRANCH   1  10
BRANCH   1  12
ATOM     12  C6  5LD d   1     -40.944 -21.476   8.491  0.00  0.00     0.042 C 
ATOM     13  H5  5LD d   1     -41.950 -21.302   8.081  0.00  0.00     0.071 H 
ATOM     14  H6  5LD d   1     -40.694 -22.544   8.409  0.00  0.00     0.071 H 
BRANCH  12  15
ATOM     15  N2  5LD d   1     -39.969 -20.697   7.707  0.00  0.00    -0.260 N 
ATOM     16  N1  5LD d   1     -39.844 -19.326   7.917  0.00  0.00    -0.165 NA
ATOM     17  C5  5LD d   1     -38.914 -18.946   7.017  0.00  0.00     0.107 A 
ATOM     18  N4  5LD d   1     -38.499 -20.005   6.301  0.00  0.00    -0.234 NA
ATOM     19  H7  5LD d   1     -38.551 -17.927   6.889  0.00  0.00     0.149 H 
ATOM     20  C3  5LD d   1     -39.150 -21.075   6.736  0.00  0.00     0.084 A 
ATOM     21  H8  5LD d   1     -39.032 -22.090   6.360  0.00  0.00     0.146 H 
ENDBRANCH  12  15
ENDBRANCH   1  12
TORSDOF 5
