REMARK  4 active torsions:
REMARK  status: ('A' for Active; 'I' for Inactive)
REMARK    1  A    between atoms: C19_5  and  O20_6 
REMARK    2  A    between atoms: C04_12  and  C05_14 
REMARK    3  A    between atoms: C10_16  and  O11_17 
REMARK    4  A    between atoms: C08_18  and  O09_19 
ROOT
ATOM      1 CL1  7LU d   1      -1.019   3.082  21.118  0.00  0.00    -0.084 Cl
ATOM      2  C16 7LU d   1      -0.511   1.684  22.003  0.00  0.00     0.039 A 
ATOM      3  C15 7LU d   1      -0.494   1.740  23.380  0.00  0.00    -0.028 A 
ATOM      4  C18 7LU d   1      -0.173   0.542  21.310  0.00  0.00    -0.029 A 
ATOM      5  C19 7LU d   1       0.176  -0.594  22.012  0.00  0.00     0.084 A 
ATOM      6  C21 7LU d   1       0.195  -0.588  23.419  0.00  0.00     0.081 A 
ATOM      7  C02 7LU d   1       0.536  -1.755  24.195  0.00  0.00     0.190 A 
ATOM      8  O01 7LU d   1       0.814  -2.839  23.664  0.00  0.00    -0.287 OA
ATOM      9  C14 7LU d   1      -0.146   0.602  24.069  0.00  0.00     0.094 A 
ATOM     10  O13 7LU d   1      -0.175   0.686  25.448  0.00  0.00    -0.309 OA
ATOM     11  C04 7LU d   1       0.134  -0.412  26.193  0.00  0.00     0.090 A 
ATOM     12  C03 7LU d   1       0.493  -1.577  25.624  0.00  0.00    -0.000 A 
ATOM     13  H1  7LU d   1      -0.748   2.654  23.904  0.00  0.00     0.090 H 
ATOM     14  H2  7LU d   1      -0.181   0.536  20.226  0.00  0.00     0.090 H 
ATOM     15  H4  7LU d   1       0.760  -2.415  26.266  0.00  0.00     0.094 H 
ENDROOT
BRANCH  11  16
ATOM     16  C05 7LU d   1      -0.058  -0.168  27.628  0.00  0.00     0.001 A 
ATOM     17  C12 7LU d   1      -1.078   0.678  28.058  0.00  0.00    -0.036 A 
ATOM     18  C10 7LU d   1      -1.305   0.859  29.415  0.00  0.00     0.099 A 
ATOM     19  H5  7LU d   1      -1.695   1.195  27.332  0.00  0.00     0.089 H 
ATOM     20  C08 7LU d   1      -0.504   0.202  30.351  0.00  0.00     0.098 A 
ATOM     21  C07 7LU d   1       0.516  -0.632  29.918  0.00  0.00    -0.047 A 
ATOM     22  C06 7LU d   1       0.736  -0.814  28.567  0.00  0.00    -0.068 A 
ATOM     23  H8  7LU d   1       1.142  -1.142  30.642  0.00  0.00     0.087 H 
ATOM     24  H9  7LU d   1       1.536  -1.467  28.236  0.00  0.00     0.085 H 
BRANCH  18  25
ATOM     25  O11 7LU d   1      -2.314   1.655  29.855  0.00  0.00    -0.358 OA
ATOM     26  H6  7LU d   1      -2.320   1.661  30.805  0.00  0.00     0.217 HD
ENDBRANCH  18  25
BRANCH  20  27
ATOM     27  O09 7LU d   1      -0.741   0.386  31.677  0.00  0.00    -0.358 OA
ATOM     28  H7  7LU d   1      -0.118  -0.123  32.182  0.00  0.00     0.217 HD
ENDBRANCH  20  27
ENDBRANCH  11  16
BRANCH   5  29
ATOM     29  O20 7LU d   1       0.489  -1.716  21.313  0.00  0.00    -0.360 OA
ATOM     30  H3  7LU d   1       0.708  -2.414  21.919  0.00  0.00     0.217 HD
ENDBRANCH   5  29
TORSDOF 4
