REMARK  14 active torsions:
REMARK  status: ('A' for Active; 'I' for Inactive)
REMARK    1  A    between atoms: C21_2  and  C22_3 
REMARK    2  A    between atoms: O20_24  and  C21_2 
REMARK    3  A    between atoms: C22_3  and  N23_25 
REMARK    4  A    between atoms: C02_7  and  C01_6 
REMARK    5  A    between atoms: O03_8  and  C02_7 
REMARK    6  A    between atoms: C04_9  and  O03_8 
REMARK    7  A    between atoms: C07_12  and  C08_13 
REMARK    8  A    between atoms: C08_13  and  C09_14 
REMARK    9  A    between atoms: N13_18  and  C12_17 
REMARK       I    between atoms: C14_19  and  N13_18 
REMARK   10  A    between atoms: C16_21  and  C14_19 
REMARK   11  A    between atoms: C19_23  and  O20_24 
REMARK   12  A    between atoms: C29_29  and  C30_30 
REMARK   13  A    between atoms: C30_30  and  O32_32 
REMARK   14  A    between atoms: O32_32  and  C33_33 
ROOT
ATOM      1  C17 5QN d   1      34.085   0.005  80.771  0.00  0.00    -0.065 A 
ATOM      2  C16 5QN d   1      34.433   1.077  80.049  0.00  0.00     0.033 A 
ATOM      3  C18 5QN d   1      33.042   0.155  81.630  0.00  0.00    -0.049 A 
ATOM      4  C19 5QN d   1      32.403   1.324  81.833  0.00  0.00     0.085 A 
ATOM      5  C29 5QN d   1      32.771   2.469  81.140  0.00  0.00     0.073 A 
ATOM      6  C34 5QN d   1      33.837   2.318  80.236  0.00  0.00    -0.049 A 
ATOM      7  H1  5QN d   1      34.610  -0.939  80.675  0.00  0.00     0.085 H 
ATOM      8  H22 5QN d   1      32.705  -0.715  82.183  0.00  0.00     0.087 H 
ATOM      9  H33 5QN d   1      34.197   3.176  79.680  0.00  0.00     0.086 H 
ENDROOT
BRANCH   2  10
ATOM     10  C14 5QN d   1      35.677   0.805  79.259  0.00  0.00     0.256 C 
ATOM     11  N13 5QN d   1      35.918   1.596  78.235  0.00  0.00    -0.320 N 
ATOM     12  H21 5QN d   1      35.193   2.241  77.992  0.00  0.00     0.169 HD
ATOM     13  O15 5QN d   1      36.500   0.054  79.589  0.00  0.00    -0.267 OA
BRANCH  11  14
ATOM     14  C12 5QN d   1      37.093   1.637  77.435  0.00  0.00     0.069 A 
ATOM     15  C04 5QN d   1      36.926   1.728  76.095  0.00  0.00     0.095 A 
ATOM     16  C05 5QN d   1      38.023   1.896  75.258  0.00  0.00    -0.048 A 
ATOM     17  C06 5QN d   1      39.282   1.953  75.797  0.00  0.00    -0.067 A 
ATOM     18  H15 5QN d   1      37.884   1.981  74.186  0.00  0.00     0.087 H 
ATOM     19  C07 5QN d   1      39.450   1.862  77.168  0.00  0.00     0.012 A 
ATOM     20  H16 5QN d   1      40.145   2.069  75.151  0.00  0.00     0.085 H 
ATOM     21  C11 5QN d   1      38.339   1.724  78.003  0.00  0.00    -0.041 A 
ATOM     22  H20 5QN d   1      38.459   1.686  79.080  0.00  0.00     0.088 H 
BRANCH  15  23
ATOM     23  O03 5QN d   1      35.604   1.635  75.651  0.00  0.00    -0.349 OA
BRANCH  23  24
ATOM     24  C02 5QN d   1      35.391   1.616  74.238  0.00  0.00     0.023 C 
ATOM     25  H13 5QN d   1      35.565   2.612  73.804  0.00  0.00     0.074 H 
ATOM     26  H14 5QN d   1      36.054   0.884  73.754  0.00  0.00     0.074 H 
BRANCH  24  27
ATOM     27  C01 5QN d   1      33.960   1.215  74.086  0.00  0.00    -0.056 C 
ATOM     28  H10 5QN d   1      33.702   1.173  73.017  0.00  0.00     0.030 H 
ATOM     29  H11 5QN d   1      33.317   1.952  74.590  0.00  0.00     0.030 H 
ATOM     30  H12 5QN d   1      33.807   0.224  74.539  0.00  0.00     0.030 H 
ENDBRANCH  24  27
ENDBRANCH  23  24
ENDBRANCH  15  23
BRANCH  19  31
ATOM     31  C08 5QN d   1      40.887   1.997  77.688  0.00  0.00     0.155 C 
ATOM     32  O10 5QN d   1      41.752   2.126  76.936  0.00  0.00    -0.293 OA
BRANCH  31  33
ATOM     33  C09 5QN d   1      41.135   1.987  79.205  0.00  0.00    -0.017 C 
ATOM     34  H17 5QN d   1      42.212   2.093  79.401  0.00  0.00     0.038 H 
ATOM     35  H18 5QN d   1      40.777   1.037  79.629  0.00  0.00     0.038 H 
ATOM     36  H19 5QN d   1      40.594   2.824  79.671  0.00  0.00     0.038 H 
ENDBRANCH  31  33
ENDBRANCH  19  31
ENDBRANCH  11  14
ENDBRANCH   2  10
BRANCH   5  37
ATOM     37  C30 5QN d   1      32.051   3.825  81.359  0.00  0.00     0.295 C 
ATOM     38  O31 5QN d   1      30.983   3.988  81.946  0.00  0.00    -0.259 OA
BRANCH  37  39
ATOM     39  O32 5QN d   1      32.764   4.982  80.940  0.00  0.00    -0.322 OA
BRANCH  39  40
ATOM     40  C33 5QN d   1      32.087   6.203  80.861  0.00  0.00     0.013 C 
ATOM     41  H30 5QN d   1      32.782   6.986  80.523  0.00  0.00     0.067 H 
ATOM     42  H31 5QN d   1      31.690   6.467  81.852  0.00  0.00     0.067 H 
ATOM     43  H32 5QN d   1      31.256   6.116  80.145  0.00  0.00     0.067 H 
ENDBRANCH  39  40
ENDBRANCH  37  39
ENDBRANCH   5  37
BRANCH   4  44
ATOM     44  O20 5QN d   1      31.321   1.405  82.795  0.00  0.00    -0.348 OA
BRANCH  44  45
ATOM     45  C21 5QN d   1      31.105   0.230  83.655  0.00  0.00     0.049 C 
ATOM     46  H2  5QN d   1      31.497  -0.650  83.123  0.00  0.00     0.077 H 
ATOM     47  H3  5QN d   1      31.678   0.384  84.581  0.00  0.00     0.077 H 
BRANCH  45  48
ATOM     48  C22 5QN d   1      29.586  -0.086  84.068  0.00  0.00     0.103 C 
ATOM     49  H4  5QN d   1      29.608  -0.910  84.796  0.00  0.00     0.079 H 
ATOM     50  H5  5QN d   1      29.059  -0.413  83.159  0.00  0.00     0.079 H 
BRANCH  48  51
ATOM     51  N23 5QN d   1      28.921   0.837  84.571  0.00  0.00    -0.066 N 
ATOM     52  C24 5QN d   1      28.551   1.804  83.629  0.00  0.00     0.106 C 
ATOM     53  C25 5QN d   1      27.069   1.726  83.205  0.00  0.00     0.104 C 
ATOM     54  H6  5QN d   1      29.175   1.672  82.733  0.00  0.00     0.078 H 
ATOM     55  H7  5QN d   1      28.736   2.798  84.062  0.00  0.00     0.078 H 
ATOM     56  N26 5QN d   1      26.117   1.357  84.181  0.00  0.00    -0.072 N 
ATOM     57  H24 5QN d   1      27.001   0.992  82.388  0.00  0.00     0.078 H 
ATOM     58  H25 5QN d   1      26.784   2.720  82.830  0.00  0.00     0.078 H 
ATOM     59  C27 5QN d   1      26.573   0.917  85.432  0.00  0.00     0.104 C 
ATOM     60  H26 5QN d   1      25.562   0.612  83.788  0.00  0.00     0.277 HD
ATOM     61  H27 5QN d   1      25.532   2.162  84.344  0.00  0.00     0.277 HD
ATOM     62  C28 5QN d   1      27.983   0.289  85.462  0.00  0.00     0.106 C 
ATOM     63  H28 5QN d   1      26.577   1.782  86.111  0.00  0.00     0.078 H 
ATOM     64  H29 5QN d   1      25.862   0.164  85.802  0.00  0.00     0.078 H 
ATOM     65  H8  5QN d   1      28.381   0.403  86.481  0.00  0.00     0.078 H 
ATOM     66  H9  5QN d   1      27.880  -0.780  85.226  0.00  0.00     0.078 H 
ATOM     67  H23 5QN d   1      29.560   1.335  85.171  0.00  0.00     0.280 HD
ENDBRANCH  48  51
ENDBRANCH  45  48
ENDBRANCH  44  45
ENDBRANCH   4  44
TORSDOF 14
