REMARK  4 active torsions:
REMARK  status: ('A' for Active; 'I' for Inactive)
REMARK    1  A    between atoms: C12_16  and  C13_2 
REMARK    2  A    between atoms: N02_6  and  C01_7 
REMARK    3  A    between atoms: C05_11  and  C04_9 
REMARK       I    between atoms: N07_13  and  C05_11 
REMARK    4  A    between atoms: C08_14  and  N07_13 
ROOT
ATOM      1  C05 5QR d   1     -15.628 -10.109  23.860  0.00  0.00     0.257 C 
ATOM      2  O06 5QR d   1     -15.974 -11.126  24.328  0.00  0.00    -0.267 OA
ATOM      3  N07 5QR d   1     -16.361  -9.293  22.908  0.00  0.00    -0.323 N 
ATOM      4  H8  5QR d   1     -15.958  -8.398  22.717  0.00  0.00     0.169 HD
ENDROOT
BRANCH   1   5
ATOM      5  C04 5QR d   1     -14.265  -9.513  24.433  0.00  0.00     0.048 A 
ATOM      6  C17 5QR d   1     -13.845  -9.722  25.729  0.00  0.00    -0.061 A 
ATOM      7  C18 5QR d   1     -12.627  -9.175  26.123  0.00  0.00    -0.016 A 
ATOM      8  H2  5QR d   1     -14.450 -10.300  26.426  0.00  0.00     0.085 H 
ATOM      9  C19 5QR d   1     -11.763  -8.467  25.231  0.00  0.00     0.246 A 
ATOM     10  H6  5QR d   1     -12.318  -9.292  27.160  0.00  0.00     0.092 H 
ATOM     11  O20 5QR d   1     -10.700  -8.022  25.564  0.00  0.00    -0.268 OA
ATOM     12  N02 5QR d   1     -12.215  -8.328  23.993  0.00  0.00    -0.328 N 
ATOM     13  C03 5QR d   1     -13.380  -8.814  23.584  0.00  0.00    -0.003 A 
ATOM     14  H7  5QR d   1     -13.667  -8.667  22.544  0.00  0.00     0.113 H 
BRANCH  12  15
ATOM     15  C01 5QR d   1     -11.401  -7.622  22.966  0.00  0.00    -0.012 C 
ATOM     16  H3  5QR d   1     -11.945  -7.612  22.010  0.00  0.00     0.057 H 
ATOM     17  H4  5QR d   1     -10.442  -8.144  22.836  0.00  0.00     0.057 H 
ATOM     18  H5  5QR d   1     -11.215  -6.588  23.293  0.00  0.00     0.057 H 
ENDBRANCH  12  15
ENDBRANCH   1   5
BRANCH   3  19
ATOM     19  C08 5QR d   1     -17.621  -9.588  22.174  0.00  0.00     0.036 A 
ATOM     20  C16 5QR d   1     -17.527 -10.681  21.502  0.00  0.00    -0.041 A 
ATOM     21  C12 5QR d   1     -18.624 -11.049  20.721  0.00  0.00     0.043 A 
ATOM     22  H9  5QR d   1     -16.632 -11.291  21.541  0.00  0.00     0.088 H 
ATOM     23  C11 5QR d   1     -19.733 -10.262  20.730  0.00  0.00    -0.066 A 
ATOM     24  C10 5QR d   1     -19.798  -9.106  21.475  0.00  0.00    -0.080 A 
ATOM     25  H10 5QR d   1     -20.590 -10.553  20.134  0.00  0.00     0.085 H 
ATOM     26  C09 5QR d   1     -18.690  -8.731  22.178  0.00  0.00    -0.057 A 
ATOM     27  H1  5QR d   1     -20.703  -8.511  21.502  0.00  0.00     0.083 H 
ATOM     28  H11 5QR d   1     -18.657  -7.792  22.718  0.00  0.00     0.086 H 
BRANCH  21  29
ATOM     29  C13 5QR d   1     -18.494 -12.371  20.022  0.00  0.00     0.209 C 
ATOM     30  O15 5QR d   1     -17.499 -13.085  20.106  0.00  0.00    -0.644 OA
ATOM     31  O14 5QR d   1     -19.454 -12.849  19.384  0.00  0.00    -0.644 OA
ENDBRANCH  21  29
ENDBRANCH   3  19
TORSDOF 4
