REMARK  15 active torsions:
REMARK  status: ('A' for Active; 'I' for Inactive)
REMARK    1  A    between atoms: C13_2  and  N36_36 
REMARK    2  A    between atoms: C02_9  and  C01_8 
REMARK    3  A    between atoms: C03_10  and  C02_9 
REMARK    4  A    between atoms: O05_12  and  C04_11 
REMARK    5  A    between atoms: C06_13  and  O05_12 
REMARK    6  A    between atoms: C23_23  and  C27_27 
REMARK       I    between atoms: C27_27  and  N29_29 
REMARK    7  A    between atoms: N29_29  and  S30_30 
REMARK    8  A    between atoms: S30_30  and  C33_33 
REMARK       I    between atoms: N36_36  and  C37_37 
REMARK    9  A    between atoms: C37_37  and  O39_39 
REMARK   10  A    between atoms: O39_39  and  C40_40 
REMARK   11  A    between atoms: C40_40  and  C41_41 
REMARK   12  A    between atoms: C40_40  and  C42_42 
REMARK   13  A    between atoms: C40_40  and  C43_43 
REMARK   14  A    between atoms: C47_47  and  O48_48 
REMARK   15  A    between atoms: O48_48  and  C49_49 
ROOT
ATOM      1  C10 5R2 d   1     -15.080 -18.496  17.162  0.00  0.00     0.023 C 
ATOM      2  C13 5R2 d   1     -17.361 -20.165  16.151  0.00  0.00     0.091 C 
ATOM      3  C15 5R2 d   1     -16.803 -21.948  17.924  0.00  0.00    -0.063 C 
ATOM      4  C17 5R2 d   1     -15.378 -24.000  17.463  0.00  0.00    -0.065 C 
ATOM      5  C20 5R2 d   1     -14.191 -23.964  14.632  0.00  0.00    -0.059 C 
ATOM      6  C21 5R2 d   1     -13.104 -23.987  13.629  0.00  0.00    -0.018 A 
ATOM      7  C22 5R2 d   1     -12.807 -22.820  12.785  0.00  0.00    -0.027 A 
ATOM      8  C06 5R2 d   1     -13.955 -17.390  16.973  0.00  0.00     0.064 C 
ATOM      9  C07 5R2 d   1     -12.915 -18.041  16.562  0.00  0.00    -0.011 C 
ATOM     10  C08 5R2 d   1     -13.387 -19.362  15.883  0.00  0.00     0.094 C 
ATOM     11  N09 5R2 d   1     -14.916 -19.346  16.193  0.00  0.00    -0.334 N 
ATOM     12  C11 5R2 d   1     -15.928 -20.197  15.630  0.00  0.00     0.243 C 
ATOM     13  O12 5R2 d   1     -15.666 -20.935  14.803  0.00  0.00    -0.271 OA
ATOM     14  C14 5R2 d   1     -17.790 -21.466  16.844  0.00  0.00    -0.038 C 
ATOM     15  C16 5R2 d   1     -16.659 -23.447  18.012  0.00  0.00    -0.065 C 
ATOM     16  C18 5R2 d   1     -15.598 -25.014  16.396  0.00  0.00    -0.065 C 
ATOM     17  C19 5R2 d   1     -14.392 -25.048  15.452  0.00  0.00    -0.065 C 
ATOM     18  C23 5R2 d   1     -12.297 -22.761  14.207  0.00  0.00     0.119 A 
ATOM     19  N24 5R2 d   1     -12.600 -21.401  14.569  0.00  0.00    -0.341 N 
ATOM     20  C25 5R2 d   1     -13.092 -20.904  15.791  0.00  0.00     0.241 C 
ATOM     21  O26 5R2 d   1     -13.279 -21.688  16.665  0.00  0.00    -0.271 OA
ATOM     22  H1  5R2 d   1     -16.079 -18.039  17.104  0.00  0.00     0.068 H 
ATOM     23  H2  5R2 d   1     -14.963 -18.998  18.134  0.00  0.00     0.068 H 
ATOM     24  H3  5R2 d   1     -17.374 -19.381  16.922  0.00  0.00     0.087 H 
ATOM     25  H4  5R2 d   1     -17.152 -21.578  18.899  0.00  0.00     0.033 H 
ATOM     26  H5  5R2 d   1     -15.814 -21.520  17.702  0.00  0.00     0.033 H 
ATOM     27  H6  5R2 d   1     -14.818 -24.470  18.284  0.00  0.00     0.033 H 
ATOM     28  H7  5R2 d   1     -14.788 -23.171  17.044  0.00  0.00     0.033 H 
ATOM     29  H8  5R2 d   1     -15.129 -23.805  14.080  0.00  0.00     0.033 H 
ATOM     30  H9  5R2 d   1     -14.000 -23.101  15.287  0.00  0.00     0.033 H 
ATOM     31  H10 5R2 d   1     -12.747 -24.989  13.350  0.00  0.00     0.044 H 
ATOM     32  H11 5R2 d   1     -13.627 -22.154  12.478  0.00  0.00     0.038 H 
ATOM     33  H12 5R2 d   1     -12.088 -22.922  11.958  0.00  0.00     0.038 H 
ATOM     34  H18 5R2 d   1     -13.732 -16.871  17.917  0.00  0.00     0.086 H 
ATOM     35  H19 5R2 d   1     -12.264 -18.277  17.417  0.00  0.00     0.040 H 
ATOM     36  H20 5R2 d   1     -12.359 -17.430  15.836  0.00  0.00     0.040 H 
ATOM     37  H21 5R2 d   1     -13.248 -19.086  14.827  0.00  0.00     0.088 H 
ATOM     38  H22 5R2 d   1     -17.880 -22.253  16.080  0.00  0.00     0.036 H 
ATOM     39  H23 5R2 d   1     -18.769 -21.301  17.317  0.00  0.00     0.036 H 
ATOM     40  H24 5R2 d   1     -17.492 -23.902  17.456  0.00  0.00     0.033 H 
ATOM     41  H25 5R2 d   1     -16.726 -23.733  19.072  0.00  0.00     0.033 H 
ATOM     42  H26 5R2 d   1     -16.501 -24.752  15.825  0.00  0.00     0.033 H 
ATOM     43  H27 5R2 d   1     -15.729 -26.005  16.856  0.00  0.00     0.033 H 
ATOM     44  H28 5R2 d   1     -13.492 -25.161  16.074  0.00  0.00     0.033 H 
ATOM     45  H29 5R2 d   1     -14.505 -25.931  14.806  0.00  0.00     0.033 H 
ATOM     46  H30 5R2 d   1     -12.440 -20.718  13.857  0.00  0.00     0.163 HD
ENDROOT
BRANCH   8  47
ATOM     47  O05 5R2 d   1     -14.445 -16.477  16.029  0.00  0.00    -0.326 OA
BRANCH  47  48
ATOM     48  C04 5R2 d   1     -13.648 -15.401  15.759  0.00  0.00     0.190 A 
ATOM     49  C03 5R2 d   1     -13.791 -14.769  14.553  0.00  0.00     0.087 A 
ATOM     50  N53 5R2 d   1     -13.094 -13.719  14.209  0.00  0.00    -0.247 NA
ATOM     51  C52 5R2 d   1     -12.236 -13.209  15.089  0.00  0.00     0.086 A 
ATOM     52  C45 5R2 d   1     -12.092 -13.824  16.287  0.00  0.00     0.091 A 
ATOM     53  C51 5R2 d   1     -11.473 -12.079  14.750  0.00  0.00    -0.050 A 
ATOM     54  N44 5R2 d   1     -12.814 -14.927  16.626  0.00  0.00    -0.221 NA
ATOM     55  C46 5R2 d   1     -11.186 -13.307  17.222  0.00  0.00    -0.021 A 
ATOM     56  C47 5R2 d   1     -10.412 -12.184  16.909  0.00  0.00     0.070 A 
ATOM     57  H47 5R2 d   1     -11.084 -13.779  18.192  0.00  0.00     0.091 H 
ATOM     58  C50 5R2 d   1     -10.568 -11.576  15.668  0.00  0.00    -0.048 A 
ATOM     59  H51 5R2 d   1      -9.977 -10.702  15.418  0.00  0.00     0.087 H 
ATOM     60  H52 5R2 d   1     -11.592 -11.607  13.781  0.00  0.00     0.087 H 
BRANCH  49  61
ATOM     61  C02 5R2 d   1     -14.764 -15.374  13.597  0.00  0.00    -0.024 C 
ATOM     62  H16 5R2 d   1     -14.237 -16.179  13.064  0.00  0.00     0.042 H 
ATOM     63  H17 5R2 d   1     -15.581 -15.804  14.195  0.00  0.00     0.042 H 
BRANCH  61  64
ATOM     64  C01 5R2 d   1     -15.375 -14.517  12.587  0.00  0.00    -0.071 C 
ATOM     65  H13 5R2 d   1     -16.062 -15.113  11.968  0.00  0.00     0.028 H 
ATOM     66  H14 5R2 d   1     -14.590 -14.084  11.950  0.00  0.00     0.028 H 
ATOM     67  H15 5R2 d   1     -15.934 -13.709  13.081  0.00  0.00     0.028 H 
ENDBRANCH  61  64
ENDBRANCH  49  61
BRANCH  56  68
ATOM     68  O48 5R2 d   1      -9.503 -11.622  17.786  0.00  0.00    -0.356 OA
BRANCH  68  69
ATOM     69  C49 5R2 d   1      -9.223 -12.250  18.983  0.00  0.00     0.010 C 
ATOM     70  H48 5R2 d   1      -8.483 -11.659  19.543  0.00  0.00     0.066 H 
ATOM     71  H49 5R2 d   1      -8.817 -13.253  18.785  0.00  0.00     0.066 H 
ATOM     72  H50 5R2 d   1     -10.146 -12.338  19.575  0.00  0.00     0.066 H 
ENDBRANCH  68  69
ENDBRANCH  56  68
ENDBRANCH  47  48
ENDBRANCH   8  47
BRANCH   2  73
ATOM     73  N36 5R2 d   1     -18.311 -19.808  15.226  0.00  0.00    -0.324 N 
ATOM     74  C37 5R2 d   1     -18.635 -18.486  14.995  0.00  0.00     0.362 C 
ATOM     75  O38 5R2 d   1     -17.918 -17.644  15.379  0.00  0.00    -0.238 OA
ATOM     76  H37 5R2 d   1     -18.779 -20.523  14.707  0.00  0.00     0.165 HD
BRANCH  74  77
ATOM     77  O39 5R2 d   1     -19.311 -18.440  13.797  0.00  0.00    -0.294 OA
BRANCH  77  78
ATOM     78  C40 5R2 d   1     -19.898 -17.287  13.256  0.00  0.00     0.061 C 
BRANCH  78  79
ATOM     79  C41 5R2 d   1     -20.634 -16.487  14.301  0.00  0.00    -0.048 C 
ATOM     80  H38 5R2 d   1     -21.077 -15.595  13.835  0.00  0.00     0.031 H 
ATOM     81  H39 5R2 d   1     -19.931 -16.178  15.089  0.00  0.00     0.031 H 
ATOM     82  H40 5R2 d   1     -21.431 -17.104  14.742  0.00  0.00     0.031 H 
ENDBRANCH  78  79
BRANCH  78  83
ATOM     83  C42 5R2 d   1     -20.882 -17.720  12.186  0.00  0.00    -0.048 C 
ATOM     84  H41 5R2 d   1     -21.358 -16.832  11.744  0.00  0.00     0.031 H 
ATOM     85  H42 5R2 d   1     -21.653 -18.363  12.635  0.00  0.00     0.031 H 
ATOM     86  H43 5R2 d   1     -20.349 -18.279  11.402  0.00  0.00     0.031 H 
ENDBRANCH  78  83
BRANCH  78  87
ATOM     87  C43 5R2 d   1     -18.811 -16.445  12.615  0.00  0.00    -0.048 C 
ATOM     88  H44 5R2 d   1     -19.257 -15.536  12.186  0.00  0.00     0.031 H 
ATOM     89  H45 5R2 d   1     -18.320 -17.024  11.819  0.00  0.00     0.031 H 
ATOM     90  H46 5R2 d   1     -18.068 -16.165  13.376  0.00  0.00     0.031 H 
ENDBRANCH  78  87
ENDBRANCH  77  78
ENDBRANCH  74  77
ENDBRANCH   2  73
BRANCH  18  91
ATOM     91  C27 5R2 d   1     -11.000 -23.350  14.867  0.00  0.00     0.259 C 
ATOM     92  O28 5R2 d   1     -10.681 -24.424  14.645  0.00  0.00    -0.270 OA
ATOM     93  N29 5R2 d   1     -10.172 -22.638  15.760  0.00  0.00    -0.252 N 
ATOM     94  H31 5R2 d   1     -10.438 -21.692  15.948  0.00  0.00     0.181 HD
BRANCH  93  95
ATOM     95  S30 5R2 d   1      -8.896 -23.148  16.486  0.00  0.00     0.237 S 
ATOM     96  O31 5R2 d   1      -8.070 -23.725  15.663  0.00  0.00    -0.205 OA
ATOM     97  O32 5R2 d   1      -9.240 -24.109  17.307  0.00  0.00    -0.205 OA
BRANCH  95  98
ATOM     98  C33 5R2 d   1      -8.143 -21.917  17.569  0.00  0.00     0.063 A 
ATOM     99  C34 5R2 d   1      -7.065 -21.180  16.823  0.00  0.00    -0.046 A 
ATOM    100  C35 5R2 d   1      -6.698 -22.219  17.796  0.00  0.00    -0.046 A 
ATOM    101  H33 5R2 d   1      -6.866 -20.122  17.048  0.00  0.00     0.035 H 
ATOM    102  H34 5R2 d   1      -6.921 -21.359  15.747  0.00  0.00     0.035 H 
ATOM    103  H35 5R2 d   1      -6.277 -23.173  17.445  0.00  0.00     0.035 H 
ATOM    104  H36 5R2 d   1      -6.222 -21.935  18.746  0.00  0.00     0.035 H 
ATOM    105  H32 5R2 d   1      -8.816 -21.471  18.316  0.00  0.00     0.066 H 
ENDBRANCH  95  98
ENDBRANCH  93  95
ENDBRANCH  18  91
TORSDOF 15
