REMARK  1 active torsions:
REMARK  status: ('A' for Active; 'I' for Inactive)
REMARK    1  A    between atoms: C1_1  and  C2_2 
ROOT
ATOM      1  C1  BEA d   1       8.486 -11.271   6.126  0.00  0.00    -0.033 A 
ATOM      2  C3  BEA d   1       8.189 -10.537   7.271  0.00  0.00    -0.075 A 
ATOM      3  C4  BEA d   1       7.013  -9.806   7.323  0.00  0.00    -0.081 A 
ATOM      4  C5  BEA d   1       6.179  -9.848   6.216  0.00  0.00    -0.064 A 
ATOM      5  C6  BEA d   1       6.506 -10.562   5.139  0.00  0.00     0.036 A 
ATOM      6  C7  BEA d   1       6.796 -11.772   3.013  0.00  0.00     0.201 A 
ATOM      7  C8  BEA d   1       7.653 -11.284   5.069  0.00  0.00     0.065 A 
ATOM      8  C9  BEA d   1       8.641 -12.756   3.246  0.00  0.00     0.094 A 
ATOM      9  N1  BEA d   1       7.798 -11.942   3.888  0.00  0.00    -0.280 N 
ATOM     10  N2  BEA d   1       8.127 -13.033   2.055  0.00  0.00    -0.142 NA
ATOM     11  N3  BEA d   1       7.072 -12.474   1.920  0.00  0.00    -0.122 NA
ATOM     12  S   BEA d   1       5.681 -10.769   3.694  0.00  0.00    -0.048 SA
ATOM     13  H4  BEA d   1       8.871 -10.537   8.114  0.00  0.00     0.084 H 
ATOM     14  H5  BEA d   1       6.754  -9.222   8.198  0.00  0.00     0.083 H 
ATOM     15  H6  BEA d   1       5.248  -9.293   6.227  0.00  0.00     0.085 H 
ATOM     16  H7  BEA d   1       9.588 -13.128   3.634  0.00  0.00     0.147 H 
ENDROOT
BRANCH   1  17
ATOM     17  C2  BEA d   1       9.684 -11.995   6.116  0.00  0.00    -0.049 C 
ATOM     18  H1  BEA d   1      10.210 -11.847   7.071  0.00  0.00     0.033 H 
ATOM     19  H2  BEA d   1      10.319 -11.642   5.290  0.00  0.00     0.033 H 
ATOM     20  H3  BEA d   1       9.465 -13.064   5.980  0.00  0.00     0.033 H 
ENDBRANCH   1  17
TORSDOF 1
