REMARK  5 active torsions:
REMARK  status: ('A' for Active; 'I' for Inactive)
REMARK    1  A    between atoms: N2_3  and  C1_2 
REMARK    2  A    between atoms: N8_5  and  C22_9 
REMARK    3  A    between atoms: C22_9  and  C23_10 
REMARK    4  A    between atoms: C28_13  and  C35_16 
REMARK    5  A    between atoms: C35_16  and  N36_17 
ROOT
ATOM      1  C6  5R8 d   1      17.216  72.934  60.259  0.00  0.00     0.105 C 
ATOM      2  N2  5R8 d   1      18.297  72.326  61.075  0.00  0.00    -0.073 N 
ATOM      3  C7  5R8 d   1      17.465  74.412  59.842  0.00  0.00     0.106 C 
ATOM      4  N8  5R8 d   1      17.835  75.391  60.923  0.00  0.00    -0.066 N 
ATOM      5  C9  5R8 d   1      17.439  75.022  62.302  0.00  0.00     0.085 C 
ATOM      6  C10 5R8 d   1      18.469  74.101  62.950  0.00  0.00    -0.020 C 
ATOM      7  C11 5R8 d   1      18.285  72.628  62.542  0.00  0.00     0.085 C 
ATOM      8  H1  5R8 d   1      16.284  72.896  60.842  0.00  0.00     0.078 H 
ATOM      9  H2  5R8 d   1      17.100  72.335  59.343  0.00  0.00     0.078 H 
ATOM     10  H6  5R8 d   1      17.989  71.366  61.092  0.00  0.00     0.279 HD
ATOM     11  H7  5R8 d   1      16.543  74.779  59.368  0.00  0.00     0.078 H 
ATOM     12  H8  5R8 d   1      18.282  74.412  59.105  0.00  0.00     0.078 H 
ATOM     13  H9  5R8 d   1      18.834  75.259  60.960  0.00  0.00     0.280 HD
ATOM     14  H10 5R8 d   1      16.468  74.506  62.270  0.00  0.00     0.076 H 
ATOM     15  H11 5R8 d   1      17.348  75.937  62.905  0.00  0.00     0.076 H 
ATOM     16  H12 5R8 d   1      18.373  74.178  64.043  0.00  0.00     0.037 H 
ATOM     17  H13 5R8 d   1      19.474  74.428  62.646  0.00  0.00     0.037 H 
ATOM     18  H14 5R8 d   1      19.097  72.050  63.007  0.00  0.00     0.076 H 
ATOM     19  H15 5R8 d   1      17.318  72.290  62.943  0.00  0.00     0.076 H 
ENDROOT
BRANCH   4  20
ATOM     20  C22 5R8 d   1      17.752  76.859  60.624  0.00  0.00     0.107 C 
ATOM     21  H16 5R8 d   1      18.762  77.272  60.758  0.00  0.00     0.083 H 
ATOM     22  H17 5R8 d   1      17.073  77.301  61.368  0.00  0.00     0.083 H 
BRANCH  20  23
ATOM     23  C23 5R8 d   1      17.261  77.312  59.244  0.00  0.00    -0.033 A 
ATOM     24  C26 5R8 d   1      18.198  77.689  58.234  0.00  0.00    -0.075 A 
ATOM     25  C27 5R8 d   1      17.753  78.107  56.958  0.00  0.00    -0.075 A 
ATOM     26  H18 5R8 d   1      19.260  77.654  58.447  0.00  0.00     0.084 H 
ATOM     27  C28 5R8 d   1      16.351  78.166  56.664  0.00  0.00    -0.033 A 
ATOM     28  H19 5R8 d   1      18.476  78.384  56.199  0.00  0.00     0.084 H 
ATOM     29  C29 5R8 d   1      15.413  77.794  57.669  0.00  0.00    -0.075 A 
ATOM     30  C30 5R8 d   1      15.858  77.376  58.942  0.00  0.00    -0.075 A 
ATOM     31  H20 5R8 d   1      14.351  77.832  57.455  0.00  0.00     0.084 H 
ATOM     32  H21 5R8 d   1      15.133  77.100  59.700  0.00  0.00     0.084 H 
BRANCH  27  33
ATOM     33  C35 5R8 d   1      15.863  78.611  55.303  0.00  0.00     0.103 C 
ATOM     34  H22 5R8 d   1      14.784  78.409  55.231  0.00  0.00     0.082 H 
ATOM     35  H23 5R8 d   1      16.396  78.036  54.531  0.00  0.00     0.082 H 
BRANCH  33  36
ATOM     36  N36 5R8 d   1      16.091  80.043  55.066  0.00  0.00    -0.075 N 
ATOM     37  H24 5R8 d   1      15.751  80.290  54.150  0.00  0.00     0.274 HD
ATOM     38  H25 5R8 d   1      17.078  80.240  55.122  0.00  0.00     0.274 HD
ATOM     39  H26 5R8 d   1      15.601  80.581  55.763  0.00  0.00     0.274 HD
ENDBRANCH  33  36
ENDBRANCH  27  33
ENDBRANCH  20  23
ENDBRANCH   4  20
BRANCH   2  40
ATOM     40  C1  5R8 d   1      19.605  72.164  60.419  0.00  0.00     0.066 C 
ATOM     41  H3  5R8 d   1      20.314  71.706  61.124  0.00  0.00     0.068 H 
ATOM     42  H4  5R8 d   1      19.983  73.149  60.106  0.00  0.00     0.068 H 
ATOM     43  H5  5R8 d   1      19.495  71.516  59.537  0.00  0.00     0.068 H 
ENDBRANCH   2  40
TORSDOF 5
