REMARK  3 active torsions:
REMARK  status: ('A' for Active; 'I' for Inactive)
REMARK    1  A    between atoms: N7_1  and  C18_8 
REMARK    2  A    between atoms: N4_7  and  C22_9 
REMARK    3  A    between atoms: C22_9  and  C23_10 
ROOT
ATOM      1  N7  5R9 d   1      18.327  71.143  60.924  0.00  0.00    -0.073 N 
ATOM      2  C5  5R9 d   1      18.331  73.538  60.208  0.00  0.00     0.106 C 
ATOM      3  C6  5R9 d   1      17.830  72.112  59.947  0.00  0.00     0.105 C 
ATOM      4  C2  5R9 d   1      18.680  72.847  62.733  0.00  0.00    -0.020 C 
ATOM      5  C1  5R9 d   1      17.998  71.546  62.297  0.00  0.00     0.085 C 
ATOM      6  C3  5R9 d   1      17.803  74.082  62.507  0.00  0.00     0.085 C 
ATOM      7  N4  5R9 d   1      17.448  74.290  61.101  0.00  0.00    -0.066 N 
ATOM      8  H1  5R9 d   1      17.862  70.267  60.746  0.00  0.00     0.279 HD
ATOM      9  H2  5R9 d   1      18.396  74.070  59.247  0.00  0.00     0.078 H 
ATOM     10  H3  5R9 d   1      19.330  73.482  60.665  0.00  0.00     0.078 H 
ATOM     11  H4  5R9 d   1      16.731  72.115  59.984  0.00  0.00     0.078 H 
ATOM     12  H5  5R9 d   1      18.162  71.802  58.945  0.00  0.00     0.078 H 
ATOM     13  H6  5R9 d   1      19.610  72.966  62.157  0.00  0.00     0.037 H 
ATOM     14  H7  5R9 d   1      18.918  72.777  63.804  0.00  0.00     0.037 H 
ATOM     15  H8  5R9 d   1      18.312  70.743  62.980  0.00  0.00     0.076 H 
ATOM     16  H9  5R9 d   1      16.909  71.683  62.368  0.00  0.00     0.076 H 
ATOM     17  H10 5R9 d   1      18.348  74.968  62.864  0.00  0.00     0.076 H 
ATOM     18  H11 5R9 d   1      16.876  73.963  63.087  0.00  0.00     0.076 H 
ATOM     19  H12 5R9 d   1      16.506  73.957  60.964  0.00  0.00     0.280 HD
ENDROOT
BRANCH   7  20
ATOM     20  C22 5R9 d   1      17.484  75.703  60.768  0.00  0.00     0.107 C 
ATOM     21  H16 5R9 d   1      18.525  75.995  60.568  0.00  0.00     0.083 H 
ATOM     22  H17 5R9 d   1      17.099  76.280  61.622  0.00  0.00     0.083 H 
BRANCH  20  23
ATOM     23  C23 5R9 d   1      16.653  76.011  59.560  0.00  0.00    -0.032 A 
ATOM     24  C26 5R9 d   1      15.347  75.547  59.471  0.00  0.00    -0.073 A 
ATOM     25  C27 5R9 d   1      14.576  75.828  58.355  0.00  0.00    -0.054 A 
ATOM     26  H18 5R9 d   1      14.928  74.961  60.281  0.00  0.00     0.084 H 
ATOM     27  C28 5R9 d   1      15.088  76.568  57.295  0.00  0.00     0.066 A 
ATOM     28  H19 5R9 d   1      13.556  75.465  58.307  0.00  0.00     0.087 H 
ATOM     29  C29 5R9 d   1      16.399  77.040  57.400  0.00  0.00    -0.007 A 
ATOM     30  N34 5R9 d   1      14.316  76.836  56.230  0.00  0.00    -0.260 NA
ATOM     31  C30 5R9 d   1      17.168  76.754  58.517  0.00  0.00    -0.063 A 
ATOM     32  C37 5R9 d   1      16.945  77.775  56.368  0.00  0.00    -0.069 A 
ATOM     33  H20 5R9 d   1      18.187  77.119  58.572  0.00  0.00     0.085 H 
ATOM     34  C36 5R9 d   1      16.156  78.051  55.268  0.00  0.00    -0.065 A 
ATOM     35  H23 5R9 d   1      17.969  78.128  56.419  0.00  0.00     0.085 H 
ATOM     36  C35 5R9 d   1      14.867  77.558  55.242  0.00  0.00     0.003 A 
ATOM     37  H22 5R9 d   1      16.541  78.641  54.444  0.00  0.00     0.085 H 
ATOM     38  H21 5R9 d   1      14.261  77.767  54.368  0.00  0.00     0.114 H 
ENDBRANCH  20  23
ENDBRANCH   7  20
BRANCH   1  39
ATOM     39  C18 5R9 d   1      19.760  70.921  60.765  0.00  0.00     0.066 C 
ATOM     40  H13 5R9 d   1      19.972  70.621  59.728  0.00  0.00     0.068 H 
ATOM     41  H14 5R9 d   1      20.086  70.125  61.451  0.00  0.00     0.068 H 
ATOM     42  H15 5R9 d   1      20.303  71.849  60.996  0.00  0.00     0.068 H 
ENDBRANCH   1  39
TORSDOF 3
