REMARK  7 active torsions:
REMARK  status: ('A' for Active; 'I' for Inactive)
REMARK    1  A    between atoms: N2_6  and  C1_1 
REMARK    2  A    between atoms: C22_10  and  N9_8 
REMARK    3  A    between atoms: C23_11  and  C22_10 
REMARK    4  A    between atoms: C34_17  and  C28_14 
REMARK    5  A    between atoms: C46_25  and  C37_20 
REMARK    6  A    between atoms: N47_26  and  C46_25 
REMARK    7  A    between atoms: N52_28  and  C66_32 
ROOT
ATOM      1  C23 5RA d   1      16.622  77.126  59.735  0.00  0.00    -0.031 A 
ATOM      2  C26 5RA d   1      15.406  76.597  59.224  0.00  0.00    -0.054 A 
ATOM      3  C27 5RA d   1      14.841  77.039  57.997  0.00  0.00     0.056 A 
ATOM      4  C28 5RA d   1      15.498  78.086  57.207  0.00  0.00    -0.005 A 
ATOM      5  C29 5RA d   1      16.720  78.594  57.759  0.00  0.00    -0.070 A 
ATOM      6  C30 5RA d   1      17.269  78.133  58.988  0.00  0.00    -0.074 A 
ATOM      7  C44 5RA d   1      13.612  76.356  57.653  0.00  0.00     0.100 C 
ATOM      8  N45 5RA d   1      12.642  75.789  57.344  0.00  0.00    -0.191 NA
ATOM      9  H20 5RA d   1      14.891  75.829  59.790  0.00  0.00     0.086 H 
ATOM     10  H21 5RA d   1      17.251  79.366  57.214  0.00  0.00     0.084 H 
ATOM     11  H22 5RA d   1      18.195  78.561  59.355  0.00  0.00     0.084 H 
ENDROOT
BRANCH   4  12
ATOM     12  C34 5RA d   1      15.045  78.684  55.854  0.00  0.00    -0.024 A 
ATOM     13  C35 5RA d   1      13.972  78.147  55.110  0.00  0.00    -0.072 A 
ATOM     14  C36 5RA d   1      13.562  78.684  53.862  0.00  0.00    -0.074 A 
ATOM     15  H23 5RA d   1      13.440  77.290  55.508  0.00  0.00     0.084 H 
ATOM     16  C37 5RA d   1      14.222  79.799  53.309  0.00  0.00    -0.033 A 
ATOM     17  H24 5RA d   1      12.733  78.232  53.329  0.00  0.00     0.084 H 
ATOM     18  C38 5RA d   1      15.303  80.346  54.046  0.00  0.00    -0.074 A 
ATOM     19  C39 5RA d   1      15.701  79.812  55.271  0.00  0.00    -0.072 A 
ATOM     20  H25 5RA d   1      15.834  81.202  53.646  0.00  0.00     0.084 H 
ATOM     21  H26 5RA d   1      16.533  80.266  55.797  0.00  0.00     0.084 H 
BRANCH  16  22
ATOM     22  C46 5RA d   1      13.808  80.397  51.973  0.00  0.00     0.107 C 
ATOM     23  H27 5RA d   1      13.434  79.575  51.344  0.00  0.00     0.083 H 
ATOM     24  H28 5RA d   1      14.707  80.832  51.512  0.00  0.00     0.083 H 
BRANCH  22  25
ATOM     25  N47 5RA d   1      12.755  81.461  51.996  0.00  0.00    -0.066 N 
ATOM     26  C50 5RA d   1      12.395  82.086  50.713  0.00  0.00     0.106 C 
ATOM     27  C51 5RA d   1      12.675  83.590  50.673  0.00  0.00     0.105 C 
ATOM     28  H30 5RA d   1      12.975  81.601  49.914  0.00  0.00     0.078 H 
ATOM     29  H31 5RA d   1      11.321  81.926  50.536  0.00  0.00     0.078 H 
ATOM     30  N52 5RA d   1      13.314  83.999  51.926  0.00  0.00    -0.073 N 
ATOM     31  H4  5RA d   1      11.729  84.136  50.548  0.00  0.00     0.078 H 
ATOM     32  H5  5RA d   1      13.343  83.817  49.829  0.00  0.00     0.078 H 
ATOM     33  C53 5RA d   1      12.402  84.305  53.034  0.00  0.00     0.085 C 
ATOM     34  H32 5RA d   1      13.744  83.141  52.234  0.00  0.00     0.279 HD
ATOM     35  C54 5RA d   1      11.497  83.169  53.547  0.00  0.00    -0.020 C 
ATOM     36  H33 5RA d   1      11.746  85.124  52.704  0.00  0.00     0.076 H 
ATOM     37  H34 5RA d   1      13.016  84.645  53.881  0.00  0.00     0.076 H 
ATOM     38  C55 5RA d   1      11.894  81.709  53.196  0.00  0.00     0.085 C 
ATOM     39  H35 5RA d   1      10.491  83.342  53.138  0.00  0.00     0.037 H 
ATOM     40  H36 5RA d   1      11.466  83.245  54.644  0.00  0.00     0.037 H 
ATOM     41  H37 5RA d   1      12.429  81.302  54.067  0.00  0.00     0.076 H 
ATOM     42  H38 5RA d   1      10.960  81.148  53.044  0.00  0.00     0.076 H 
ATOM     43  H29 5RA d   1      13.408  82.186  52.247  0.00  0.00     0.280 HD
BRANCH  30  44
ATOM     44  C66 5RA d   1      14.465  84.893  51.798  0.00  0.00     0.066 C 
ATOM     45  H39 5RA d   1      15.081  84.578  50.943  0.00  0.00     0.068 H 
ATOM     46  H40 5RA d   1      15.066  84.850  52.718  0.00  0.00     0.068 H 
ATOM     47  H41 5RA d   1      14.113  85.923  51.637  0.00  0.00     0.068 H 
ENDBRANCH  30  44
ENDBRANCH  22  25
ENDBRANCH  16  22
ENDBRANCH   4  12
BRANCH   1  48
ATOM     48  C22 5RA d   1      17.220  76.637  61.047  0.00  0.00     0.107 C 
ATOM     49  H18 5RA d   1      18.032  77.330  61.312  0.00  0.00     0.083 H 
ATOM     50  H19 5RA d   1      16.427  76.694  61.807  0.00  0.00     0.083 H 
BRANCH  48  51
ATOM     51  N9  5RA d   1      17.791  75.238  61.101  0.00  0.00    -0.066 N 
ATOM     52  C8  5RA d   1      17.218  74.464  62.233  0.00  0.00     0.085 C 
ATOM     53  C7  5RA d   1      18.227  73.581  62.992  0.00  0.00    -0.020 C 
ATOM     54  H8  5RA d   1      16.782  75.177  62.948  0.00  0.00     0.076 H 
ATOM     55  H9  5RA d   1      16.426  73.813  61.835  0.00  0.00     0.076 H 
ATOM     56  C6  5RA d   1      18.816  72.418  62.136  0.00  0.00     0.085 C 
ATOM     57  H13 5RA d   1      19.058  74.217  63.331  0.00  0.00     0.037 H 
ATOM     58  H14 5RA d   1      17.719  73.146  63.865  0.00  0.00     0.037 H 
ATOM     59  N2  5RA d   1      18.205  72.224  60.786  0.00  0.00    -0.073 N 
ATOM     60  H6  5RA d   1      19.889  72.614  61.995  0.00  0.00     0.076 H 
ATOM     61  H7  5RA d   1      18.685  71.484  62.702  0.00  0.00     0.076 H 
ATOM     62  C11 5RA d   1      18.642  73.143  59.720  0.00  0.00     0.105 C 
ATOM     63  H12 5RA d   1      17.317  71.755  60.704  0.00  0.00     0.279 HD
ATOM     64  C10 5RA d   1      17.980  74.527  59.774  0.00  0.00     0.106 C 
ATOM     65  H16 5RA d   1      19.730  73.277  59.805  0.00  0.00     0.078 H 
ATOM     66  H17 5RA d   1      18.404  72.684  58.749  0.00  0.00     0.078 H 
ATOM     67  H10 5RA d   1      18.588  75.192  59.144  0.00  0.00     0.078 H 
ATOM     68  H11 5RA d   1      16.980  74.415  59.331  0.00  0.00     0.078 H 
ATOM     69  H15 5RA d   1      18.744  75.390  61.392  0.00  0.00     0.280 HD
BRANCH  59  70
ATOM     70  C1  5RA d   1      19.799  71.629  60.503  0.00  0.00     0.066 C 
ATOM     71  H1  5RA d   1      19.998  70.781  61.174  0.00  0.00     0.068 H 
ATOM     72  H2  5RA d   1      20.529  72.429  60.696  0.00  0.00     0.068 H 
ATOM     73  H3  5RA d   1      19.887  71.298  59.458  0.00  0.00     0.068 H 
ENDBRANCH  59  70
ENDBRANCH  48  51
ENDBRANCH   1  48
TORSDOF 7
