REMARK  26 active torsions:
REMARK  status: ('A' for Active; 'I' for Inactive)
REMARK    1  A    between atoms: CG_3  and  CD1_1 
REMARK    2  A    between atoms: CG_3  and  CD2_2 
REMARK    3  A    between atoms: CB_4  and  CG_3 
REMARK    4  A    between atoms: CA_6  and  CB_4 
REMARK    5  A    between atoms: CA_6  and  N_5 
REMARK    6  A    between atoms: CH_7  and  CA_6 
REMARK    7  A    between atoms: CH_7  and  OH_8 
REMARK    8  A    between atoms: CH2_9  and  CH_7 
REMARK    9  A    between atoms: N_10  and  CH2_9 
REMARK   10  A    between atoms: CA_11  and  N_10 
REMARK   11  A    between atoms: C_12  and  CA_11 
REMARK   12  A    between atoms: CA_11  and  CB_14 
REMARK       I    between atoms: N_17  and  C_12 
REMARK   13  A    between atoms: CB_14  and  CG1_15 
REMARK   14  A    between atoms: CB_14  and  CG2_16 
REMARK   15  A    between atoms: CA_18  and  N_17 
REMARK   16  A    between atoms: C_19  and  CA_18 
REMARK   17  A    between atoms: CA_18  and  CB_21 
REMARK       I    between atoms: N_25  and  C_19 
REMARK   18  A    between atoms: CB_21  and  CG1_22 
REMARK   19  A    between atoms: CB_21  and  CG2_23 
REMARK   20  A    between atoms: CG1_22  and  CD1_24 
REMARK   21  A    between atoms: CA_26  and  N_25 
REMARK   22  A    between atoms: C_27  and  CA_26 
REMARK   23  A    between atoms: CA_26  and  CB_29 
REMARK   24  A    between atoms: O_37  and  C_27 
REMARK   25  A    between atoms: CB_29  and  CG_30 
REMARK   26  A    between atoms: O_37  and  CM_36 
ROOT
ATOM      1  C   0HT d   1      36.981 -12.480   5.668  0.00  0.00     0.249 C 
ATOM      2  O   0HT d   1      37.553 -12.883   4.645  0.00  0.00    -0.271 OA
ATOM      3  N   0HT d   1      37.541 -12.380   6.853  0.00  0.00    -0.346 N 
ATOM      4  H28 0HT d   1      37.003 -12.005   7.608  0.00  0.00     0.163 HD
ENDROOT
BRANCH   3   5
ATOM      5  CA  0HT d   1      38.921 -12.796   7.111  0.00  0.00     0.092 C 
ATOM      6  H29 0HT d   1      39.595 -12.258   6.428  0.00  0.00     0.088 H 
BRANCH   5   7
ATOM      7  C   0HT d   1      39.055 -14.301   6.873  0.00  0.00     0.241 C 
ATOM      8  O   0HT d   1      38.296 -15.106   7.434  0.00  0.00    -0.271 OA
ATOM      9  N   0HT d   1      40.014 -14.628   6.030  0.00  0.00    -0.345 N 
ATOM     10  H39 0HT d   1      40.565 -13.897   5.627  0.00  0.00     0.163 HD
BRANCH   9  11
ATOM     11  CA  0HT d   1      40.310 -16.018   5.655  0.00  0.00     0.100 C 
ATOM     12  H40 0HT d   1      39.519 -16.675   6.047  0.00  0.00     0.088 H 
BRANCH  11  13
ATOM     13  C   0HT d   1      41.660 -16.440   6.239  0.00  0.00     0.281 C 
ATOM     14  O   0HT d   1      42.386 -17.251   5.646  0.00  0.00    -0.263 OA
BRANCH  13  15
ATOM     15  O   0HT d   1      42.098 -15.900   7.477  0.00  0.00    -0.325 OA
BRANCH  15  16
ATOM     16  CM  0HT d   1      43.145 -14.966   7.256  0.00  0.00     0.013 C 
ATOM     17  H48 0HT d   1      43.478 -14.553   8.220  0.00  0.00     0.067 H 
ATOM     18  H49 0HT d   1      42.780 -14.151   6.614  0.00  0.00     0.067 H 
ATOM     19  H50 0HT d   1      43.989 -15.471   6.763  0.00  0.00     0.067 H 
ENDBRANCH  15  16
ENDBRANCH  13  15
ENDBRANCH  11  13
BRANCH  11  20
ATOM     20  CB  0HT d   1      40.372 -16.147   4.131  0.00  0.00    -0.013 C 
ATOM     21  H41 0HT d   1      41.097 -16.933   3.876  0.00  0.00     0.043 H 
ATOM     22  H42 0HT d   1      40.709 -15.187   3.712  0.00  0.00     0.043 H 
BRANCH  20  23
ATOM     23  CG  0HT d   1      39.024 -16.506   3.502  0.00  0.00    -0.056 A 
ATOM     24  CD2 0HT d   1      38.981 -17.228   2.303  0.00  0.00    -0.077 A 
ATOM     25  CE2 0HT d   1      37.748 -17.552   1.724  0.00  0.00    -0.082 A 
ATOM     26  H44 0HT d   1      39.903 -17.536   1.823  0.00  0.00     0.084 H 
ATOM     27  CZ  0HT d   1      36.557 -17.156   2.344  0.00  0.00    -0.083 A 
ATOM     28  H46 0HT d   1      37.716 -18.110   0.795  0.00  0.00     0.083 H 
ATOM     29  CE1 0HT d   1      36.599 -16.436   3.544  0.00  0.00    -0.082 A 
ATOM     30  H47 0HT d   1      35.603 -17.407   1.895  0.00  0.00     0.083 H 
ATOM     31  CD1 0HT d   1      37.832 -16.111   4.123  0.00  0.00    -0.077 A 
ATOM     32  H45 0HT d   1      35.677 -16.130   4.025  0.00  0.00     0.083 H 
ATOM     33  H43 0HT d   1      37.864 -15.553   5.052  0.00  0.00     0.084 H 
ENDBRANCH  20  23
ENDBRANCH  11  20
ENDBRANCH   9  11
ENDBRANCH   5   7
BRANCH   5  34
ATOM     34  CB  0HT d   1      39.304 -12.470   8.554  0.00  0.00    -0.030 C 
ATOM     35  H30 0HT d   1      39.344 -11.374   8.644  0.00  0.00     0.043 H 
BRANCH  34  36
ATOM     36  CG1 0HT d   1      40.663 -13.047   8.955  0.00  0.00    -0.063 C 
ATOM     37  H31 0HT d   1      41.229 -13.280   8.041  0.00  0.00     0.033 H 
ATOM     38  H32 0HT d   1      40.496 -13.971   9.529  0.00  0.00     0.033 H 
BRANCH  36  39
ATOM     39  CD1 0HT d   1      41.491 -12.085   9.809  0.00  0.00    -0.076 C 
ATOM     40  H36 0HT d   1      42.452 -12.555  10.064  0.00  0.00     0.027 H 
ATOM     41  H37 0HT d   1      40.942 -11.849  10.733  0.00  0.00     0.027 H 
ATOM     42  H38 0HT d   1      41.674 -11.159   9.245  0.00  0.00     0.027 H 
ENDBRANCH  36  39
ENDBRANCH  34  36
BRANCH  34  43
ATOM     43  CG2 0HT d   1      38.301 -13.010   9.575  0.00  0.00    -0.071 C 
ATOM     44  H33 0HT d   1      37.297 -12.628   9.339  0.00  0.00     0.028 H 
ATOM     45  H34 0HT d   1      38.591 -12.681  10.584  0.00  0.00     0.028 H 
ATOM     46  H35 0HT d   1      38.294 -14.109   9.536  0.00  0.00     0.028 H 
ENDBRANCH  34  43
ENDBRANCH   5  34
ENDBRANCH   3   5
BRANCH   1  47
ATOM     47  CA  0HT d   1      35.518 -12.055   5.633  0.00  0.00     0.180 C 
ATOM     48  H20 0HT d   1      35.128 -11.898   6.649  0.00  0.00     0.100 H 
BRANCH  47  49
ATOM     49  CB  0HT d   1      34.804 -13.222   4.947  0.00  0.00    -0.025 C 
ATOM     50  H21 0HT d   1      35.142 -13.245   3.901  0.00  0.00     0.042 H 
BRANCH  49  51
ATOM     51  CG1 0HT d   1      35.114 -14.574   5.595  0.00  0.00    -0.071 C 
ATOM     52  H22 0HT d   1      34.574 -15.369   5.060  0.00  0.00     0.028 H 
ATOM     53  H23 0HT d   1      34.795 -14.558   6.647  0.00  0.00     0.028 H 
ATOM     54  H24 0HT d   1      36.196 -14.766   5.543  0.00  0.00     0.028 H 
ENDBRANCH  49  51
BRANCH  49  55
ATOM     55  CG2 0HT d   1      33.281 -13.090   4.968  0.00  0.00    -0.071 C 
ATOM     56  H25 0HT d   1      32.990 -12.132   4.513  0.00  0.00     0.028 H 
ATOM     57  H26 0HT d   1      32.924 -13.125   6.008  0.00  0.00     0.028 H 
ATOM     58  H27 0HT d   1      32.833 -13.918   4.398  0.00  0.00     0.028 H 
ENDBRANCH  49  55
ENDBRANCH  47  49
BRANCH  47  59
ATOM     59  N   0HT d   1      35.367 -10.819   4.846  0.00  0.00    -0.059 N 
ATOM     60  H18 0HT d   1      34.775 -10.212   5.390  0.00  0.00     0.278 HD
ATOM     61  H19 0HT d   1      34.889 -11.084   3.999  0.00  0.00     0.278 HD
BRANCH  59  62
ATOM     62  CH2 0HT d   1      36.400 -10.083   4.470  0.00  0.00     0.108 C 
ATOM     63  H16 0HT d   1      37.157 -10.123   5.267  0.00  0.00     0.079 H 
ATOM     64  H17 0HT d   1      36.814 -10.519   3.549  0.00  0.00     0.079 H 
BRANCH  62  65
ATOM     65  CH  0HT d   1      36.070  -8.609   4.196  0.00  0.00     0.086 C 
ATOM     66  H14 0HT d   1      36.864  -8.005   4.660  0.00  0.00     0.088 H 
BRANCH  65  67
ATOM     67  CA  0HT d   1      36.043  -8.275   2.710  0.00  0.00     0.126 C 
ATOM     68  H13 0HT d   1      36.968  -8.618   2.224  0.00  0.00     0.087 H 
BRANCH  67  69
ATOM     69  CB  0HT d   1      35.924  -6.755   2.611  0.00  0.00    -0.034 C 
ATOM     70  H8  0HT d   1      34.913  -6.505   2.257  0.00  0.00     0.036 H 
ATOM     71  H9  0HT d   1      36.079  -6.325   3.612  0.00  0.00     0.036 H 
BRANCH  69  72
ATOM     72  CG  0HT d   1      36.942  -6.137   1.653  0.00  0.00    -0.059 C 
ATOM     73  H7  0HT d   1      36.717  -6.516   0.645  0.00  0.00     0.038 H 
BRANCH  72  74
ATOM     74  CD1 0HT d   1      36.887  -4.609   1.628  0.00  0.00    -0.073 C 
ATOM     75  H1  0HT d   1      37.640  -4.226   0.923  0.00  0.00     0.028 H 
ATOM     76  H2  0HT d   1      37.095  -4.218   2.635  0.00  0.00     0.028 H 
ATOM     77  H3  0HT d   1      35.886  -4.283   1.308  0.00  0.00     0.028 H 
ENDBRANCH  72  74
BRANCH  72  78
ATOM     78  CD2 0HT d   1      38.387  -6.496   2.004  0.00  0.00    -0.073 C 
ATOM     79  H4  0HT d   1      38.495  -7.590   2.038  0.00  0.00     0.028 H 
ATOM     80  H5  0HT d   1      38.642  -6.071   2.986  0.00  0.00     0.028 H 
ATOM     81  H6  0HT d   1      39.063  -6.085   1.240  0.00  0.00     0.028 H 
ENDBRANCH  72  78
ENDBRANCH  69  72
ENDBRANCH  67  69
BRANCH  67  82
ATOM     82  N   0HT d   1      34.883  -8.914   2.070  0.00  0.00    -0.072 N 
ATOM     83  H10 0HT d   1      34.970  -9.916   2.140  0.00  0.00     0.274 HD
ATOM     84  H11 0HT d   1      34.846  -8.647   1.099  0.00  0.00     0.274 HD
ATOM     85  H12 0HT d   1      34.038  -8.617   2.533  0.00  0.00     0.274 HD
ENDBRANCH  67  82
ENDBRANCH  65  67
BRANCH  65  86
ATOM     86  OH  0HT d   1      34.840  -8.235   4.781  0.00  0.00    -0.392 OA
ATOM     87  H15 0HT d   1      34.707  -7.301   4.667  0.00  0.00     0.210 HD
ENDBRANCH  65  86
ENDBRANCH  62  65
ENDBRANCH  59  62
ENDBRANCH  47  59
ENDBRANCH   1  47
TORSDOF 26
