REMARK WARNING: 32 MAX_TORS EXCEEDED!!!
REMARK  35 active torsions:
REMARK  status: ('A' for Active; 'I' for Inactive)
REMARK    1  A    between atoms: CT1_2  and  OT2_3 
REMARK       I    between atoms: N_8  and  CT1_2 
REMARK    2  A    between atoms: OT2_3  and  CT2_4 
REMARK    3  A    between atoms: CT2_4  and  CT3_5 
REMARK    4  A    between atoms: CT2_4  and  CT4_6 
REMARK    5  A    between atoms: CT2_4  and  CT5_7 
REMARK    6  A    between atoms: CA_9  and  N_8 
REMARK    7  A    between atoms: CA_9  and  CB_12 
REMARK    8  A    between atoms: C_10  and  CA_9 
REMARK       I    between atoms: N_19  and  C_10 
REMARK    9  A    between atoms: CB_12  and  CG_13 
REMARK   10  A    between atoms: CA_20  and  N_19 
REMARK   11  A    between atoms: CA_20  and  CB_23 
REMARK   12  A    between atoms: C_21  and  CA_20 
REMARK       I    between atoms: N_29  and  C_21 
REMARK   13  A    between atoms: CB_23  and  CG_24 
REMARK   14  A    between atoms: CA_30  and  N_29 
REMARK   15  A    between atoms: CA_30  and  CB_31 
REMARK   16  A    between atoms: CH_38  and  CA_30 
REMARK   17  A    between atoms: CB_31  and  CG_32 
REMARK   18  A    between atoms: CH_38  and  OH_39 
REMARK   19  A    between atoms: CM_40  and  CH_38 
REMARK   20  A    between atoms: N1_41  and  CM_40 
REMARK   21  A    between atoms: N1_41  and  CB2_42 
REMARK       I    between atoms: C_46  and  N1_41 
REMARK   22  A    between atoms: CB2_42  and  CG2_43 
REMARK   23  A    between atoms: CG2_43  and  CD3_44 
REMARK   24  A    between atoms: CG2_43  and  CD4_45 
REMARK       I    between atoms: C_46  and  N_48 
REMARK   25  A    between atoms: N_48  and  CA_49 
REMARK   26  A    between atoms: CA_49  and  CB_52 
REMARK   27  A    between atoms: CA_49  and  C_50 
REMARK       I    between atoms: C_50  and  N_57 
REMARK   28  A    between atoms: CB_52  and  CG_53 
REMARK   29  A    between atoms: CG_53  and  CD_54 
REMARK   30  A    between atoms: CD_54  and  CE_55 
REMARK   31  A    between atoms: CE_55  and  NZ_56 
REMARK   32  A    between atoms: N_57  and  CA_58 
REMARK   33  A    between atoms: CA_58  and  CB_61 
REMARK   34  A    between atoms: CA_58  and  C_59 
REMARK   35  A    between atoms: CB_61  and  CG_62 
ROOT
ATOM      1  CA  0EK d   1       4.918  33.177  14.966  0.00  0.00     0.039 C 
ATOM      2  H27 0EK d   1       4.688  33.909  15.754  0.00  0.00     0.076 H 
ENDROOT
BRANCH   1   3
ATOM      3  N   0EK d   1       4.032  32.013  15.130  0.00  0.00    -0.352 N 
ATOM      4  C   0EK d   1       3.044  32.062  15.994  0.00  0.00     0.241 C 
ATOM      5  O   0EK d   1       2.686  33.090  16.565  0.00  0.00    -0.271 OA
ATOM      6  H26 0EK d   1       4.182  31.188  14.585  0.00  0.00     0.163 HD
BRANCH   4   7
ATOM      7  CA  0EK d   1       2.372  30.722  16.253  0.00  0.00     0.094 C 
ATOM      8  H20 0EK d   1       2.409  30.096  15.349  0.00  0.00     0.088 H 
BRANCH   7   9
ATOM      9  N   0EK d   1       3.091  30.040  17.382  0.00  0.00    -0.346 N 
ATOM     10  C   0EK d   1       3.297  28.729  17.310  0.00  0.00     0.241 C 
ATOM     11  O   0EK d   1       2.962  28.012  16.373  0.00  0.00    -0.271 OA
ATOM     12  H19 0EK d   1       3.409  30.563  18.173  0.00  0.00     0.163 HD
BRANCH  10  13
ATOM     13  CA  0EK d   1       4.064  28.153  18.491  0.00  0.00     0.095 C 
ATOM     14  H11 0EK d   1       3.829  28.739  19.392  0.00  0.00     0.088 H 
BRANCH  13  15
ATOM     15  N   0EK d   1       3.680  26.756  18.722  0.00  0.00    -0.323 N 
ATOM     16  CT1 0EK d   1       2.645  26.383  19.451  0.00  0.00     0.362 C 
ATOM     17  OT1 0EK d   1       1.891  27.163  20.024  0.00  0.00    -0.238 OA
ATOM     18  H10 0EK d   1       4.238  26.041  18.300  0.00  0.00     0.165 HD
BRANCH  16  19
ATOM     19  OT2 0EK d   1       2.512  24.968  19.499  0.00  0.00    -0.294 OA
BRANCH  19  20
ATOM     20  CT2 0EK d   1       1.425  24.470  20.272  0.00  0.00     0.061 C 
BRANCH  20  21
ATOM     21  CT3 0EK d   1       1.523  22.937  20.230  0.00  0.00    -0.048 C 
ATOM     22  H1  0EK d   1       0.701  22.501  20.816  0.00  0.00     0.031 H 
ATOM     23  H2  0EK d   1       2.486  22.619  20.657  0.00  0.00     0.031 H 
ATOM     24  H3  0EK d   1       1.453  22.593  19.187  0.00  0.00     0.031 H 
ENDBRANCH  20  21
BRANCH  20  25
ATOM     25  CT4 0EK d   1       0.082  24.915  19.693  0.00  0.00    -0.048 C 
ATOM     26  H4  0EK d   1      -0.735  24.515  20.312  0.00  0.00     0.031 H 
ATOM     27  H5  0EK d   1      -0.018  24.537  18.665  0.00  0.00     0.031 H 
ATOM     28  H6  0EK d   1       0.032  26.014  19.686  0.00  0.00     0.031 H 
ENDBRANCH  20  25
BRANCH  20  29
ATOM     29  CT5 0EK d   1       1.546  24.927  21.729  0.00  0.00    -0.048 C 
ATOM     30  H7  0EK d   1       0.698  24.533  22.309  0.00  0.00     0.031 H 
ATOM     31  H8  0EK d   1       1.539  26.026  21.770  0.00  0.00     0.031 H 
ATOM     32  H9  0EK d   1       2.488  24.550  22.154  0.00  0.00     0.031 H 
ENDBRANCH  20  29
ENDBRANCH  19  20
ENDBRANCH  16  19
ENDBRANCH  13  15
BRANCH  13  33
ATOM     33  CB  0EK d   1       5.566  28.249  18.207  0.00  0.00    -0.014 C 
ATOM     34  H12 0EK d   1       5.790  29.226  17.754  0.00  0.00     0.043 H 
ATOM     35  H13 0EK d   1       5.858  27.447  17.513  0.00  0.00     0.043 H 
BRANCH  33  36
ATOM     36  CG  0EK d   1       6.352  28.102  19.511  0.00  0.00    -0.056 A 
ATOM     37  CD1 0EK d   1       5.979  28.847  20.623  0.00  0.00    -0.077 A 
ATOM     38  CE1 0EK d   1       6.693  28.716  21.809  0.00  0.00    -0.082 A 
ATOM     39  H14 0EK d   1       5.136  29.526  20.566  0.00  0.00     0.084 H 
ATOM     40  CZ  0EK d   1       7.771  27.840  21.869  0.00  0.00    -0.083 A 
ATOM     41  H16 0EK d   1       6.411  29.294  22.682  0.00  0.00     0.083 H 
ATOM     42  CE2 0EK d   1       8.137  27.100  20.751  0.00  0.00    -0.082 A 
ATOM     43  H18 0EK d   1       8.329  27.734  22.792  0.00  0.00     0.083 H 
ATOM     44  CD2 0EK d   1       7.428  27.225  19.562  0.00  0.00    -0.077 A 
ATOM     45  H17 0EK d   1       8.980  26.421  20.807  0.00  0.00     0.083 H 
ATOM     46  H15 0EK d   1       7.710  26.648  18.689  0.00  0.00     0.084 H 
ENDBRANCH  33  36
ENDBRANCH  13  33
ENDBRANCH  10  13
ENDBRANCH   7   9
BRANCH   7  47
ATOM     47  CB  0EK d   1       0.932  30.974  16.651  0.00  0.00     0.002 C 
ATOM     48  H21 0EK d   1       0.891  31.784  17.394  0.00  0.00     0.046 H 
ATOM     49  H22 0EK d   1       0.503  30.058  17.083  0.00  0.00     0.046 H 
BRANCH  47  50
ATOM     50  CG  0EK d   1       0.137  31.376  15.414  0.00  0.00     0.030 A 
ATOM     51  ND1 0EK d   1       0.509  31.074  14.106  0.00  0.00    -0.353 N 
ATOM     52  CE1 0EK d   1      -0.458  31.609  13.257  0.00  0.00     0.063 A 
ATOM     53  H23 0EK d   1       1.348  30.550  13.818  0.00  0.00     0.166 HD
ATOM     54  NE2 0EK d   1      -1.426  32.267  14.028  0.00  0.00    -0.254 NA
ATOM     55  H25 0EK d   1      -0.461  31.529  12.171  0.00  0.00     0.143 H 
ATOM     56  CD2 0EK d   1      -1.060  32.114  15.366  0.00  0.00     0.025 A 
ATOM     57  H24 0EK d   1      -1.607  32.499  16.225  0.00  0.00     0.117 H 
ENDBRANCH  47  50
ENDBRANCH   7  47
ENDBRANCH   4   7
ENDBRANCH   1   3
BRANCH   1  58
ATOM     58  CB  0EK d   1       6.379  32.757  15.114  0.00  0.00    -0.040 C 
ATOM     59  H28 0EK d   1       7.019  33.596  14.805  0.00  0.00     0.036 H 
ATOM     60  H29 0EK d   1       6.565  31.893  14.459  0.00  0.00     0.036 H 
BRANCH  58  61
ATOM     61  CG  0EK d   1       6.740  32.370  16.545  0.00  0.00    -0.052 C 
ATOM     62  CD1 0EK d   1       6.308  33.403  17.588  0.00  0.00    -0.062 C 
ATOM     63  CE1 0EK d   1       6.580  32.858  18.996  0.00  0.00    -0.065 C 
ATOM     64  H31 0EK d   1       5.233  33.608  17.476  0.00  0.00     0.033 H 
ATOM     65  H32 0EK d   1       6.876  34.333  17.439  0.00  0.00     0.033 H 
ATOM     66  CZ  0EK d   1       8.054  32.491  19.179  0.00  0.00    -0.065 C 
ATOM     67  H35 0EK d   1       5.965  31.960  19.157  0.00  0.00     0.033 H 
ATOM     68  H36 0EK d   1       6.308  33.626  19.735  0.00  0.00     0.033 H 
ATOM     69  CE2 0EK d   1       8.544  31.532  18.093  0.00  0.00    -0.065 C 
ATOM     70  H39 0EK d   1       8.181  32.011  20.160  0.00  0.00     0.033 H 
ATOM     71  H40 0EK d   1       8.657  33.410  19.139  0.00  0.00     0.033 H 
ATOM     72  CD2 0EK d   1       8.232  32.060  16.692  0.00  0.00    -0.062 C 
ATOM     73  H37 0EK d   1       9.632  31.406  18.193  0.00  0.00     0.033 H 
ATOM     74  H38 0EK d   1       8.049  30.559  18.226  0.00  0.00     0.033 H 
ATOM     75  H33 0EK d   1       8.810  32.979  16.517  0.00  0.00     0.033 H 
ATOM     76  H34 0EK d   1       8.517  31.300  15.949  0.00  0.00     0.033 H 
ATOM     77  H30 0EK d   1       6.191  31.443  16.767  0.00  0.00     0.040 H 
ENDBRANCH  58  61
ENDBRANCH   1  58
BRANCH   1  78
ATOM     78  CH  0EK d   1       4.657  33.833  13.604  0.00  0.00     0.070 C 
ATOM     79  H41 0EK d   1       5.126  34.828  13.594  0.00  0.00     0.088 H 
BRANCH  78  80
ATOM     80  OH  0EK d   1       5.241  33.028  12.573  0.00  0.00    -0.392 OA
ATOM     81  H42 0EK d   1       6.177  32.958  12.719  0.00  0.00     0.210 HD
ENDBRANCH  78  80
BRANCH  78  82
ATOM     82  CM  0EK d   1       3.162  33.993  13.343  0.00  0.00     0.025 C 
ATOM     83  H43 0EK d   1       2.642  34.199  14.290  0.00  0.00     0.068 H 
ATOM     84  H44 0EK d   1       2.764  33.069  12.899  0.00  0.00     0.068 H 
BRANCH  82  85
ATOM     85  N1  0EK d   1       2.958  35.114  12.414  0.00  0.00    -0.331 N 
ATOM     86  C   0EK d   1       3.043  36.353  12.866  0.00  0.00     0.319 C 
ATOM     87  O   0EK d   1       3.262  36.544  14.065  0.00  0.00    -0.247 OA
ATOM     88  N   0EK d   1       3.034  37.366  12.015  0.00  0.00    -0.330 N 
ATOM     89  H54 0EK d   1       3.097  37.204  11.030  0.00  0.00     0.165 HD
BRANCH  85  90
ATOM     90  CB2 0EK d   1       2.573  34.842  11.021  0.00  0.00     0.002 C 
ATOM     91  H45 0EK d   1       3.225  34.053  10.619  0.00  0.00     0.065 H 
ATOM     92  H46 0EK d   1       2.702  35.761  10.430  0.00  0.00     0.065 H 
BRANCH  90  93
ATOM     93  CG2 0EK d   1       1.124  34.386  10.914  0.00  0.00    -0.045 C 
ATOM     94  H47 0EK d   1       0.912  33.804  11.823  0.00  0.00     0.041 H 
BRANCH  93  95
ATOM     95  CD3 0EK d   1       0.163  35.561  10.923  0.00  0.00    -0.072 C 
ATOM     96  H48 0EK d   1      -0.870  35.191  10.844  0.00  0.00     0.028 H 
ATOM     97  H49 0EK d   1       0.382  36.220  10.070  0.00  0.00     0.028 H 
ATOM     98  H50 0EK d   1       0.280  36.123  11.861  0.00  0.00     0.028 H 
ENDBRANCH  93  95
BRANCH  93  99
ATOM     99  CD4 0EK d   1       0.893  33.447   9.746  0.00  0.00    -0.072 C 
ATOM    100  H51 0EK d   1       1.616  32.619   9.793  0.00  0.00     0.028 H 
ATOM    101  H52 0EK d   1       1.025  33.996   8.802  0.00  0.00     0.028 H 
ATOM    102  H53 0EK d   1      -0.129  33.044   9.796  0.00  0.00     0.028 H 
ENDBRANCH  93  99
ENDBRANCH  90  93
ENDBRANCH  85  90
BRANCH  88 103
ATOM    103  CA  0EK d   1       2.930  38.737  12.544  0.00  0.00     0.091 C 
ATOM    104  H55 0EK d   1       3.381  38.763  13.547  0.00  0.00     0.087 H 
BRANCH 103 105
ATOM    105  CB  0EK d   1       3.688  39.698  11.644  0.00  0.00    -0.038 C 
ATOM    106  H56 0EK d   1       3.110  39.867  10.724  0.00  0.00     0.036 H 
ATOM    107  H57 0EK d   1       4.665  39.263  11.388  0.00  0.00     0.036 H 
BRANCH 105 108
ATOM    108  CG  0EK d   1       3.899  41.023  12.356  0.00  0.00    -0.061 C 
ATOM    109  H58 0EK d   1       4.798  40.956  12.986  0.00  0.00     0.033 H 
ATOM    110  H59 0EK d   1       3.024  41.237  12.987  0.00  0.00     0.033 H 
BRANCH 108 111
ATOM    111  CD  0EK d   1       4.077  42.149  11.351  0.00  0.00    -0.043 C 
ATOM    112  H60 0EK d   1       3.398  41.991  10.500  0.00  0.00     0.035 H 
ATOM    113  H61 0EK d   1       5.117  42.160  10.993  0.00  0.00     0.035 H 
BRANCH 111 114
ATOM    114  CE  0EK d   1       3.756  43.480  12.015  0.00  0.00     0.080 C 
ATOM    115  H62 0EK d   1       4.456  43.654  12.845  0.00  0.00     0.075 H 
ATOM    116  H63 0EK d   1       2.726  43.459  12.402  0.00  0.00     0.075 H 
BRANCH 114 117
ATOM    117  NZ  0EK d   1       3.887  44.562  11.027  0.00  0.00    -0.079 N 
ATOM    118  H64 0EK d   1       3.675  45.445  11.465  0.00  0.00     0.274 HD
ATOM    119  H65 0EK d   1       3.246  44.402  10.266  0.00  0.00     0.274 HD
ATOM    120  H66 0EK d   1       4.830  44.581  10.673  0.00  0.00     0.274 HD
ENDBRANCH 114 117
ENDBRANCH 111 114
ENDBRANCH 108 111
ENDBRANCH 105 108
ENDBRANCH 103 105
BRANCH 103 121
ATOM    121  C   0EK d   1       1.477  39.156  12.656  0.00  0.00     0.241 C 
ATOM    122  O   0EK d   1       0.708  39.087  11.698  0.00  0.00    -0.271 OA
ATOM    123  N   0EK d   1       1.051  39.600  13.826  0.00  0.00    -0.344 N 
ATOM    124  H67 0EK d   1       1.672  39.672  14.607  0.00  0.00     0.163 HD
BRANCH 123 125
ATOM    125  CA  0EK d   1      -0.371  39.987  13.945  0.00  0.00     0.100 C 
ATOM    126  H68 0EK d   1      -0.784  40.145  12.938  0.00  0.00     0.090 H 
BRANCH 125 127
ATOM    127  CB  0EK d   1      -1.159  38.881  14.635  0.00  0.00    -0.013 C 
ATOM    128  H69 0EK d   1      -1.556  39.292  15.575  0.00  0.00     0.043 H 
ATOM    129  H70 0EK d   1      -0.458  38.063  14.859  0.00  0.00     0.043 H 
BRANCH 127 130
ATOM    130  CG  0EK d   1      -2.331  38.285  13.860  0.00  0.00    -0.056 A 
ATOM    131  CD1 0EK d   1      -3.490  37.929  14.549  0.00  0.00    -0.077 A 
ATOM    132  CE1 0EK d   1      -4.584  37.383  13.889  0.00  0.00    -0.082 A 
ATOM    133  H71 0EK d   1      -3.538  38.081  15.621  0.00  0.00     0.084 H 
ATOM    134  CZ  0EK d   1      -4.545  37.176  12.514  0.00  0.00    -0.083 A 
ATOM    135  H73 0EK d   1      -5.473  37.117  14.449  0.00  0.00     0.083 H 
ATOM    136  CE2 0EK d   1      -3.395  37.524  11.810  0.00  0.00    -0.082 A 
ATOM    137  H75 0EK d   1      -5.398  36.750  11.998  0.00  0.00     0.083 H 
ATOM    138  CD2 0EK d   1      -2.307  38.071  12.485  0.00  0.00    -0.077 A 
ATOM    139  H74 0EK d   1      -3.347  37.369  10.738  0.00  0.00     0.083 H 
ATOM    140  H72 0EK d   1      -1.418  38.337  11.925  0.00  0.00     0.084 H 
ENDBRANCH 127 130
ENDBRANCH 125 127
BRANCH 125 141
ATOM    141  C   0EK d   1      -0.489  41.280  14.738  0.00  0.00     0.197 C 
ATOM    142  O   0EK d   1      -0.276  42.352  14.170  0.00  0.00    -0.646 OA
ATOM    143  OXT 0EK d   1      -0.793  41.176  16.017  0.00  0.00    -0.646 OA
ENDBRANCH 125 141
ENDBRANCH 123 125
ENDBRANCH 103 121
ENDBRANCH  88 103
ENDBRANCH  82  85
ENDBRANCH  78  82
ENDBRANCH   1  78
TORSDOF 35
