REMARK  3 active torsions:
REMARK  status: ('A' for Active; 'I' for Inactive)
REMARK    1  A    between atoms: N03_12  and  C13_4 
REMARK    2  A    between atoms: C19_8  and  O02_11 
REMARK    3  A    between atoms: C17_19  and  O01_10 
ROOT
ATOM      1  C10 5RL d   1      36.395  -4.185  13.491  0.00  0.00    -0.009 A 
ATOM      2  C11 5RL d   1      35.912  -1.964  12.812  0.00  0.00    -0.020 A 
ATOM      3  C12 5RL d   1      36.779  -2.812  13.439  0.00  0.00     0.021 A 
ATOM      4  C14 5RL d   1      35.619  -6.922  13.583  0.00  0.00    -0.076 A 
ATOM      5  C15 5RL d   1      37.225  -5.119  14.097  0.00  0.00    -0.071 A 
ATOM      6  C16 5RL d   1      36.154  -0.586  12.680  0.00  0.00    -0.069 A 
ATOM      7  C19 5RL d   1      38.202  -0.858  13.828  0.00  0.00     0.099 A 
ATOM      8  C20 5RL d   1      37.308  -0.031  13.195  0.00  0.00    -0.047 A 
ATOM      9  N03 5RL d   1      32.855  -4.102  12.200  0.00  0.00    -0.384 N 
ATOM     10  C04 5RL d   1      34.250  -3.726  12.292  0.00  0.00     0.042 A 
ATOM     11  C05 5RL d   1      35.183  -4.667  12.946  0.00  0.00     0.008 A 
ATOM     12  C06 5RL d   1      34.639  -2.291  12.195  0.00  0.00    -0.046 A 
ATOM     13  C07 5RL d   1      34.821  -5.950  12.990  0.00  0.00    -0.043 A 
ATOM     14  C08 5RL d   1      32.441  -5.501  12.442  0.00  0.00    -0.002 C 
ATOM     15  C09 5RL d   1      33.566  -6.572  12.455  0.00  0.00    -0.025 C 
ATOM     16  C17 5RL d   1      37.969  -2.219  13.966  0.00  0.00     0.110 A 
ATOM     17  C18 5RL d   1      36.840  -6.476  14.147  0.00  0.00    -0.082 A 
ATOM     18  H4  5RL d   1      35.323  -7.964  13.612  0.00  0.00     0.084 H 
ATOM     19  H5  5RL d   1      38.168  -4.806  14.531  0.00  0.00     0.084 H 
ATOM     20  H6  5RL d   1      35.432   0.043  12.172  0.00  0.00     0.085 H 
ATOM     21  H7  5RL d   1      37.503   1.031  13.102  0.00  0.00     0.087 H 
ATOM     22  H10 5RL d   1      34.020  -1.550  11.703  0.00  0.00     0.088 H 
ATOM     23  H11 5RL d   1      31.727  -5.778  11.652  0.00  0.00     0.064 H 
ATOM     24  H12 5RL d   1      31.938  -5.535  13.420  0.00  0.00     0.064 H 
ATOM     25  H13 5RL d   1      33.268  -7.413  13.098  0.00  0.00     0.042 H 
ATOM     26  H14 5RL d   1      33.741  -6.936  11.432  0.00  0.00     0.042 H 
ATOM     27  H15 5RL d   1      37.494  -7.194  14.628  0.00  0.00     0.083 H 
ENDROOT
BRANCH   9  28
ATOM     28  C13 5RL d   1      31.749  -3.224  11.868  0.00  0.00    -0.018 C 
ATOM     29  H1  5RL d   1      30.810  -3.797  11.877  0.00  0.00     0.056 H 
ATOM     30  H2  5RL d   1      31.908  -2.796  10.867  0.00  0.00     0.056 H 
ATOM     31  H3  5RL d   1      31.690  -2.413  12.608  0.00  0.00     0.056 H 
ENDBRANCH   9  28
BRANCH  16  32
ATOM     32  O01 5RL d   1      38.980  -2.873  14.645  0.00  0.00    -0.357 OA
ATOM     33  H8  5RL d   1      39.065  -2.504  15.516  0.00  0.00     0.217 HD
ENDBRANCH  16  32
BRANCH   7  34
ATOM     34  O02 5RL d   1      39.366  -0.339  14.373  0.00  0.00    -0.358 OA
ATOM     35  H9  5RL d   1      39.869  -1.040  14.770  0.00  0.00     0.217 HD
ENDBRANCH   7  34
TORSDOF 3
