REMARK  6 active torsions:
REMARK  status: ('A' for Active; 'I' for Inactive)
REMARK    1  A    between atoms: C2_2  and  N2_3 
REMARK    2  A    between atoms: C9_11  and  C10_13 
REMARK    3  A    between atoms: C10_13  and  N1'_12 
REMARK    4  A    between atoms: C3'_15  and  O3'_16 
REMARK    5  A    between atoms: C4'_17  and  C5'_18 
REMARK    6  A    between atoms: C5'_18  and  O5'_19 
ROOT
ATOM      1  C10 IM5 d   1      43.178  -6.053  59.104  0.00  0.00     0.111 C 
ATOM      2  H8  IM5 d   1      42.521  -6.260  58.246  0.00  0.00     0.083 H 
ATOM      3  H9  IM5 d   1      44.228  -6.183  58.802  0.00  0.00     0.083 H 
ENDROOT
BRANCH   1   4
ATOM      4  C9  IM5 d   1      42.887  -7.084  60.140  0.00  0.00     0.013 A 
ATOM      5  C4  IM5 d   1      41.635  -7.784  60.405  0.00  0.00     0.090 A 
ATOM      6  N3  IM5 d   1      40.427  -7.625  59.867  0.00  0.00    -0.189 N 
ATOM      7  C5  IM5 d   1      41.907  -8.731  61.483  0.00  0.00     0.129 A 
ATOM      8  C2  IM5 d   1      39.405  -8.394  60.327  0.00  0.00     0.679 A 
ATOM      9  H4  IM5 d   1      40.271  -6.934  59.119  0.00  0.00     0.184 HD
ATOM     10  N1  IM5 d   1      39.580  -9.323  61.327  0.00  0.00    -0.154 N 
ATOM     11  C6  IM5 d   1      40.762  -9.530  61.938  0.00  0.00     0.288 A 
ATOM     12  H1  IM5 d   1      38.793  -9.870  61.613  0.00  0.00     0.187 HD
ATOM     13  O6  IM5 d   1      40.907 -10.372  62.846  0.00  0.00    -0.265 OA
ATOM     14  N7  IM5 d   1      43.208  -8.617  61.791  0.00  0.00    -0.359 N 
ATOM     15  C8  IM5 d   1      43.797  -7.663  61.016  0.00  0.00    -0.012 A 
ATOM     16  H5  IM5 d   1      43.693  -9.172  62.511  0.00  0.00     0.165 HD
ATOM     17  H6  IM5 d   1      44.849  -7.389  61.076  0.00  0.00     0.112 H 
BRANCH   8  18
ATOM     18  N2  IM5 d   1      38.195  -8.220  59.732  0.00  0.00    -0.234 N 
ATOM     19  H2  IM5 d   1      38.084  -7.519  58.985  0.00  0.00     0.174 HD
ATOM     20  H3  IM5 d   1      37.389  -8.789  60.028  0.00  0.00     0.174 HD
ENDBRANCH   8  18
ENDBRANCH   1   4
BRANCH   1  21
ATOM     21  N1' IM5 d   1      43.001  -4.647  59.454  0.00  0.00    -0.064 N 
ATOM     22  C2' IM5 d   1      41.588  -4.263  59.638  0.00  0.00     0.108 C 
ATOM     23  C3' IM5 d   1      41.782  -2.867  60.162  0.00  0.00     0.066 C 
ATOM     24  H10 IM5 d   1      41.078  -4.909  60.368  0.00  0.00     0.080 H 
ATOM     25  H11 IM5 d   1      41.032  -4.272  58.689  0.00  0.00     0.080 H 
ATOM     26  C4' IM5 d   1      42.888  -3.072  61.186  0.00  0.00     0.016 C 
ATOM     27  H12 IM5 d   1      40.866  -2.498  60.646  0.00  0.00     0.086 H 
ATOM     28  C6' IM5 d   1      43.733  -4.206  60.662  0.00  0.00     0.091 C 
ATOM     29  H14 IM5 d   1      43.485  -2.152  61.273  0.00  0.00     0.049 H 
ATOM     30  H18 IM5 d   1      44.744  -3.857  60.405  0.00  0.00     0.076 H 
ATOM     31  H19 IM5 d   1      43.802  -5.019  61.400  0.00  0.00     0.076 H 
ATOM     32  H7  IM5 d   1      43.362  -4.118  58.676  0.00  0.00     0.280 HD
BRANCH  23  33
ATOM     33  O3' IM5 d   1      42.160  -1.941  59.110  0.00  0.00    -0.393 OA
ATOM     34  H13 IM5 d   1      42.273  -1.073  59.479  0.00  0.00     0.210 HD
ENDBRANCH  23  33
BRANCH  26  35
ATOM     35  C5' IM5 d   1      42.368  -3.465  62.571  0.00  0.00     0.024 C 
ATOM     36  H15 IM5 d   1      41.763  -4.380  62.495  0.00  0.00     0.074 H 
ATOM     37  H16 IM5 d   1      41.752  -2.651  62.981  0.00  0.00     0.074 H 
BRANCH  35  38
ATOM     38  O5' IM5 d   1      43.498  -3.700  63.432  0.00  0.00    -0.400 OA
ATOM     39  H17 IM5 d   1      44.019  -2.908  63.493  0.00  0.00     0.209 HD
ENDBRANCH  35  38
ENDBRANCH  26  35
ENDBRANCH   1  21
TORSDOF 6
