REMARK  10 active torsions:
REMARK  status: ('A' for Active; 'I' for Inactive)
REMARK    1  A    between atoms: C18_13  and  C10_6 
REMARK    2  A    between atoms: C13_7  and  O22_24 
REMARK    3  A    between atoms: C20_9  and  O23_23 
REMARK    4  A    between atoms: C14_22  and  C21_10 
REMARK    5  A    between atoms: O23_23  and  C24_11 
REMARK    6  A    between atoms: O22_24  and  C26_12 
REMARK    7  A    between atoms: N8_15  and  C12_20 
REMARK    8  A    between atoms: N15_25  and  C16_17 
REMARK    9  A    between atoms: N15_25  and  C25_18 
REMARK   10  A    between atoms: C14_22  and  N15_25 
ROOT
ATOM      1  C13 5SW d   1       6.422  -2.606   6.129  0.00  0.00     0.079 A 
ATOM      2  C17 5SW d   1       7.798  -2.800   5.963  0.00  0.00    -0.039 A 
ATOM      3  C20 5SW d   1       5.985  -4.222   4.381  0.00  0.00     0.079 A 
ATOM      4  C21 5SW d   1       5.520  -3.307   5.329  0.00  0.00     0.034 A 
ATOM      5  C18 5SW d   1       8.283  -3.707   5.012  0.00  0.00    -0.018 A 
ATOM      6  C19 5SW d   1       7.366  -4.426   4.221  0.00  0.00    -0.039 A 
ATOM      7  H2  5SW d   1       8.496  -2.242   6.577  0.00  0.00     0.089 H 
ATOM      8  H21 5SW d   1       7.726  -5.138   3.487  0.00  0.00     0.089 H 
ENDROOT
BRANCH   5   9
ATOM      9  C10 5SW d   1       9.764  -3.880   4.891  0.00  0.00     0.001 A 
ATOM     10  C5  5SW d   1      10.403  -5.207   4.767  0.00  0.00    -0.005 A 
ATOM     11  C6  5SW d   1      11.830  -5.276   4.742  0.00  0.00     0.061 A 
ATOM     12  C1  5SW d   1       9.702  -6.421   4.660  0.00  0.00    -0.054 A 
ATOM     13  C4  5SW d   1      12.452  -6.521   4.572  0.00  0.00     0.018 A 
ATOM     14  C7  5SW d   1      12.599  -4.028   4.850  0.00  0.00     0.259 A 
ATOM     15  N3  5SW d   1      11.730  -7.631   4.449  0.00  0.00    -0.272 NA
ATOM     16  H1  5SW d   1      13.534  -6.579   4.540  0.00  0.00     0.116 H 
ATOM     17  C2  5SW d   1      10.398  -7.594   4.510  0.00  0.00     0.003 A 
ATOM     18  H10 5SW d   1       9.846  -8.524   4.439  0.00  0.00     0.114 H 
ATOM     19  N8  5SW d   1      11.932  -2.849   4.875  0.00  0.00    -0.327 N 
ATOM     20  O11 5SW d   1      13.828  -4.067   4.878  0.00  0.00    -0.267 OA
ATOM     21  C9  5SW d   1      10.570  -2.780   4.911  0.00  0.00    -0.006 A 
ATOM     22  H17 5SW d   1      10.103  -1.797   4.958  0.00  0.00     0.113 H 
ATOM     23  H9  5SW d   1       8.619  -6.430   4.696  0.00  0.00     0.087 H 
BRANCH  19  24
ATOM     24  C12 5SW d   1      12.695  -1.598   4.990  0.00  0.00    -0.011 C 
ATOM     25  H18 5SW d   1      13.771  -1.820   4.944  0.00  0.00     0.057 H 
ATOM     26  H19 5SW d   1      12.461  -1.113   5.949  0.00  0.00     0.057 H 
ATOM     27  H20 5SW d   1      12.424  -0.925   4.163  0.00  0.00     0.057 H 
ENDBRANCH  19  24
ENDBRANCH   5   9
BRANCH   1  28
ATOM     28  O22 5SW d   1       5.950  -1.721   7.054  0.00  0.00    -0.355 OA
BRANCH  28  29
ATOM     29  C26 5SW d   1       6.837  -0.762   7.657  0.00  0.00     0.010 C 
ATOM     30  H6  5SW d   1       6.276  -0.142   8.371  0.00  0.00     0.066 H 
ATOM     31  H7  5SW d   1       7.270  -0.120   6.875  0.00  0.00     0.066 H 
ATOM     32  H8  5SW d   1       7.644  -1.291   8.186  0.00  0.00     0.066 H 
ENDBRANCH  28  29
ENDBRANCH   1  28
BRANCH   3  33
ATOM     33  O23 5SW d   1       5.067  -4.940   3.658  0.00  0.00    -0.355 OA
BRANCH  33  34
ATOM     34  C24 5SW d   1       5.406  -5.438   2.357  0.00  0.00     0.010 C 
ATOM     35  H3  5SW d   1       4.548  -5.984   1.938  0.00  0.00     0.066 H 
ATOM     36  H4  5SW d   1       6.268  -6.116   2.437  0.00  0.00     0.066 H 
ATOM     37  H5  5SW d   1       5.662  -4.596   1.697  0.00  0.00     0.066 H 
ENDBRANCH  33  34
ENDBRANCH   3  33
BRANCH   4  38
ATOM     38  C14 5SW d   1       4.021  -3.134   5.520  0.00  0.00     0.111 C 
ATOM     39  H22 5SW d   1       3.777  -3.350   6.571  0.00  0.00     0.083 H 
ATOM     40  H23 5SW d   1       3.502  -3.852   4.868  0.00  0.00     0.083 H 
BRANCH  38  41
ATOM     41  N15 5SW d   1       3.537  -1.777   5.198  0.00  0.00    -0.075 N 
ATOM     42  H24 5SW d   1       3.933  -1.145   5.877  0.00  0.00     0.279 HD
BRANCH  41  43
ATOM     43  C16 5SW d   1       3.938  -1.302   3.864  0.00  0.00     0.066 C 
ATOM     44  H11 5SW d   1       3.541  -0.289   3.701  0.00  0.00     0.068 H 
ATOM     45  H12 5SW d   1       3.537  -1.981   3.097  0.00  0.00     0.068 H 
ATOM     46  H13 5SW d   1       5.036  -1.280   3.797  0.00  0.00     0.068 H 
ENDBRANCH  41  43
BRANCH  41  47
ATOM     47  C25 5SW d   1       2.068  -1.730   5.321  0.00  0.00     0.066 C 
ATOM     48  H14 5SW d   1       1.772  -2.086   6.319  0.00  0.00     0.068 H 
ATOM     49  H15 5SW d   1       1.615  -2.374   4.553  0.00  0.00     0.068 H 
ATOM     50  H16 5SW d   1       1.721  -0.695   5.183  0.00  0.00     0.068 H 
ENDBRANCH  41  47
ENDBRANCH  38  41
ENDBRANCH   4  38
TORSDOF 10
