REMARK  3 active torsions:
REMARK  status: ('A' for Active; 'I' for Inactive)
REMARK    1  A    between atoms: C_3  and  CA_5 
REMARK    2  A    between atoms: CAJ_11  and  CAD_12 
REMARK    3  A    between atoms: CAD_12  and  SAC_13 
ROOT
ATOM      1  N   3R9 d   1      -4.631  -5.591  40.402  0.00  0.00    -0.029 N 
ATOM      2  CA  3R9 d   1      -4.187  -4.315  41.005  0.00  0.00     0.197 C 
ATOM      3  CB  3R9 d   1      -4.858  -4.113  42.380  0.00  0.00     0.015 C 
ATOM      4  SAH 3R9 d   1      -5.772  -5.632  42.785  0.00  0.00    -0.133 SA
ATOM      5  CAM 3R9 d   1      -5.046  -6.580  41.352  0.00  0.00     0.158 C 
ATOM      6  CAF 3R9 d   1      -3.783  -7.296  41.771  0.00  0.00     0.014 C 
ATOM      7  SAG 3R9 d   1      -2.688  -7.280  40.309  0.00  0.00    -0.132 SA
ATOM      8  CAJ 3R9 d   1      -3.835  -6.154  39.352  0.00  0.00     0.158 C 
ATOM      9  H1  3R9 d   1      -5.484  -5.332  39.932  0.00  0.00     0.283 HD
ATOM     10  H2  3R9 d   1      -3.093  -4.307  41.115  0.00  0.00     0.103 H 
ATOM     11  H3  3R9 d   1      -5.551  -3.260  42.336  0.00  0.00     0.052 H 
ATOM     12  H4  3R9 d   1      -4.091  -3.923  43.146  0.00  0.00     0.052 H 
ATOM     13  H5  3R9 d   1      -5.779  -7.282  40.928  0.00  0.00     0.103 H 
ATOM     14  H6  3R9 d   1      -4.010  -8.331  42.067  0.00  0.00     0.053 H 
ATOM     15  H7  3R9 d   1      -3.306  -6.770  42.611  0.00  0.00     0.053 H 
ATOM     16  H8  3R9 d   1      -3.294  -5.369  38.804  0.00  0.00     0.103 H 
ENDROOT
BRANCH   8  17
ATOM     17  CAD 3R9 d   1      -4.628  -7.045  38.356  0.00  0.00     0.010 C 
ATOM     18  H9  3R9 d   1      -5.129  -7.858  38.902  0.00  0.00     0.052 H 
ATOM     19  H10 3R9 d   1      -3.941  -7.473  37.611  0.00  0.00     0.052 H 
BRANCH  17  20
ATOM     20  SAC 3R9 d   1      -5.843  -6.026  37.542  0.00  0.00    -0.179 SA
ATOM     21  H11 3R9 d   1      -6.369  -6.588  36.891  0.00  0.00     0.101 HD
ENDBRANCH  17  20
ENDBRANCH   8  17
BRANCH   2  22
ATOM     22  C   3R9 d   1      -4.643  -3.190  40.077  0.00  0.00     0.205 C 
ATOM     23  O   3R9 d   1      -3.885  -2.205  40.067  0.00  0.00    -0.646 OA
ATOM     24  OXT 3R9 d   1      -5.695  -3.397  39.441  0.00  0.00    -0.646 OA
ENDBRANCH   2  22
TORSDOF 3
