REMARK  3 active torsions:
REMARK  status: ('A' for Active; 'I' for Inactive)
REMARK    1  A    between atoms: C_3  and  CA_5 
REMARK    2  A    between atoms: CAJ_11  and  CAD_12 
REMARK    3  A    between atoms: CAD_12  and  SAC_13 
ROOT
ATOM      1  N   3R9 d   1     -17.416  26.034  -2.079  0.00  0.00    -0.029 N 
ATOM      2  CA  3R9 d   1     -16.167  25.782  -1.395  0.00  0.00     0.197 C 
ATOM      3  CB  3R9 d   1     -15.008  25.826  -2.383  0.00  0.00     0.015 C 
ATOM      4  SAH 3R9 d   1     -15.557  26.820  -3.784  0.00  0.00    -0.133 SA
ATOM      5  CAM 3R9 d   1     -17.314  26.827  -3.275  0.00  0.00     0.158 C 
ATOM      6  CAF 3R9 d   1     -17.790  28.234  -2.904  0.00  0.00     0.014 C 
ATOM      7  SAG 3R9 d   1     -18.338  28.171  -1.197  0.00  0.00    -0.132 SA
ATOM      8  CAJ 3R9 d   1     -18.559  26.396  -1.297  0.00  0.00     0.158 C 
ATOM      9  H1  3R9 d   1     -17.660  25.119  -2.424  0.00  0.00     0.283 HD
ATOM     10  H2  3R9 d   1     -16.013  26.549  -0.621  0.00  0.00     0.103 H 
ATOM     11  H3  3R9 d   1     -14.755  24.809  -2.716  0.00  0.00     0.052 H 
ATOM     12  H4  3R9 d   1     -14.127  26.288  -1.913  0.00  0.00     0.052 H 
ATOM     13  H5  3R9 d   1     -17.941  26.414  -4.079  0.00  0.00     0.103 H 
ATOM     14  H6  3R9 d   1     -18.622  28.535  -3.557  0.00  0.00     0.053 H 
ATOM     15  H7  3R9 d   1     -16.963  28.952  -3.009  0.00  0.00     0.053 H 
ATOM     16  H8  3R9 d   1     -18.575  25.899  -0.316  0.00  0.00     0.103 H 
ENDROOT
BRANCH   8  17
ATOM     17  CAD 3R9 d   1     -19.849  26.155  -2.061  0.00  0.00     0.010 C 
ATOM     18  H9  3R9 d   1     -19.960  25.078  -2.253  0.00  0.00     0.052 H 
ATOM     19  H10 3R9 d   1     -19.809  26.696  -3.018  0.00  0.00     0.052 H 
BRANCH  17  20
ATOM     20  SAC 3R9 d   1     -21.264  26.735  -1.113  0.00  0.00    -0.179 SA
ATOM     21  H11 3R9 d   1     -21.305  26.239  -0.236  0.00  0.00     0.101 HD
ENDBRANCH  17  20
ENDBRANCH   8  17
BRANCH   2  22
ATOM     22  C   3R9 d   1     -16.233  24.404  -0.741  0.00  0.00     0.205 C 
ATOM     23  O   3R9 d   1     -15.258  24.195  -0.003  0.00  0.00    -0.646 OA
ATOM     24  OXT 3R9 d   1     -17.209  23.695  -1.054  0.00  0.00    -0.646 OA
ENDBRANCH   2  22
TORSDOF 3
