REMARK  5 active torsions:
REMARK  status: ('A' for Active; 'I' for Inactive)
REMARK    1  A    between atoms: C_2  and  CA_4 
REMARK    2  A    between atoms: CB_6  and  CG2_7 
REMARK    3  A    between atoms: CB_6  and  CG1_8 
REMARK    4  A    between atoms: CAK_13  and  CAF_14 
REMARK    5  A    between atoms: CAF_14  and  SAE_15 
ROOT
ATOM      1  CA  VC2 d   1     -16.204  25.801  -1.380  0.00  0.00     0.204 C 
ATOM      2  N   VC2 d   1     -17.400  26.064  -2.128  0.00  0.00    -0.028 N 
ATOM      3  CB  VC2 d   1     -15.034  25.770  -2.391  0.00  0.00     0.042 C 
ATOM      4  SAI VC2 d   1     -15.407  27.154  -3.540  0.00  0.00    -0.123 SA
ATOM      5  CAO VC2 d   1     -17.189  27.031  -3.150  0.00  0.00     0.159 C 
ATOM      6  CAG VC2 d   1     -17.619  28.395  -2.720  0.00  0.00     0.014 C 
ATOM      7  SAH VC2 d   1     -18.280  28.238  -1.089  0.00  0.00    -0.132 SA
ATOM      8  CAK VC2 d   1     -18.500  26.450  -1.262  0.00  0.00     0.158 C 
ATOM      9  H1  VC2 d   1     -16.050  26.590  -0.629  0.00  0.00     0.104 H 
ATOM     10  H2  VC2 d   1     -17.663  25.203  -2.581  0.00  0.00     0.283 HD
ATOM     11  H9  VC2 d   1     -17.751  26.731  -4.047  0.00  0.00     0.103 H 
ATOM     12  H10 VC2 d   1     -18.389  28.782  -3.404  0.00  0.00     0.053 H 
ATOM     13  H11 VC2 d   1     -16.757  29.078  -2.714  0.00  0.00     0.053 H 
ATOM     14  H12 VC2 d   1     -18.477  25.918  -0.299  0.00  0.00     0.103 H 
ENDROOT
BRANCH   3  15
ATOM     15  CG2 VC2 d   1     -13.693  26.035  -1.795  0.00  0.00    -0.058 C 
ATOM     16  H3  VC2 d   1     -12.927  25.993  -2.583  0.00  0.00     0.029 H 
ATOM     17  H4  VC2 d   1     -13.475  25.275  -1.031  0.00  0.00     0.029 H 
ATOM     18  H5  VC2 d   1     -13.688  27.033  -1.332  0.00  0.00     0.029 H 
ENDBRANCH   3  15
BRANCH   3  19
ATOM     19  CG1 VC2 d   1     -14.960  24.565  -3.239  0.00  0.00    -0.058 C 
ATOM     20  H6  VC2 d   1     -15.948  24.366  -3.681  0.00  0.00     0.029 H 
ATOM     21  H7  VC2 d   1     -14.652  23.704  -2.627  0.00  0.00     0.029 H 
ATOM     22  H8  VC2 d   1     -14.225  24.726  -4.042  0.00  0.00     0.029 H 
ENDBRANCH   3  19
BRANCH   1  23
ATOM     23  C   VC2 d   1     -16.259  24.443  -0.699  0.00  0.00     0.206 C 
ATOM     24  O   VC2 d   1     -17.300  23.757  -0.895  0.00  0.00    -0.646 OA
ATOM     25  OXT VC2 d   1     -15.267  24.231  -0.015  0.00  0.00    -0.646 OA
ENDBRANCH   1  23
BRANCH   8  26
ATOM     26  CAF VC2 d   1     -19.833  26.255  -1.979  0.00  0.00     0.010 C 
ATOM     27  H13 VC2 d   1     -19.951  25.186  -2.210  0.00  0.00     0.052 H 
ATOM     28  H14 VC2 d   1     -19.813  26.833  -2.915  0.00  0.00     0.052 H 
BRANCH  26  29
ATOM     29  SAE VC2 d   1     -21.256  26.790  -1.007  0.00  0.00    -0.179 SA
ATOM     30  H15 VC2 d   1     -21.293  26.262  -0.149  0.00  0.00     0.101 HD
ENDBRANCH  26  29
ENDBRANCH   8  26
TORSDOF 5
