REMARK  3 active torsions:
REMARK  status: ('A' for Active; 'I' for Inactive)
REMARK    1  A    between atoms: C09_3  and  C08_5 
REMARK    2  A    between atoms: C03_7  and  C02_8 
REMARK    3  A    between atoms: C02_8  and  S01_9 
ROOT
ATOM      1  C12 3C7 d   1      81.553  95.808  16.818  0.00  0.00     0.015 C 
ATOM      2  C08 3C7 d   1      83.015  95.495  16.922  0.00  0.00     0.197 C 
ATOM      3  N07 3C7 d   1      83.409  94.426  15.966  0.00  0.00    -0.029 N 
ATOM      4  C03 3C7 d   1      83.984  94.872  14.672  0.00  0.00     0.158 C 
ATOM      5  S13 3C7 d   1      80.970  94.614  15.661  0.00  0.00    -0.133 SA
ATOM      6  C06 3C7 d   1      82.306  93.481  15.757  0.00  0.00     0.158 C 
ATOM      7  C05 3C7 d   1      82.717  92.629  14.550  0.00  0.00     0.014 C 
ATOM      8  S04 3C7 d   1      83.255  93.873  13.438  0.00  0.00    -0.132 SA
ATOM      9  H1  3C7 d   1      81.394  96.830  16.445  0.00  0.00     0.052 H 
ATOM     10  H2  3C7 d   1      81.054  95.691  17.791  0.00  0.00     0.052 H 
ATOM     11  H3  3C7 d   1      83.590  96.401  16.682  0.00  0.00     0.103 H 
ATOM     12  H4  3C7 d   1      84.145  93.912  16.424  0.00  0.00     0.283 HD
ATOM     13  H5  3C7 d   1      83.785  95.940  14.502  0.00  0.00     0.103 H 
ATOM     14  H9  3C7 d   1      82.153  92.810  16.615  0.00  0.00     0.103 H 
ATOM     15  H10 3C7 d   1      81.865  92.064  14.144  0.00  0.00     0.053 H 
ATOM     16  H11 3C7 d   1      83.531  91.933  14.804  0.00  0.00     0.053 H 
ENDROOT
BRANCH   4  17
ATOM     17  C02 3C7 d   1      85.466  94.586  14.626  0.00  0.00     0.010 C 
ATOM     18  H6  3C7 d   1      85.819  94.603  13.584  0.00  0.00     0.052 H 
ATOM     19  H7  3C7 d   1      85.671  93.599  15.066  0.00  0.00     0.052 H 
BRANCH  17  20
ATOM     20  S01 3C7 d   1      86.291  95.852  15.566  0.00  0.00    -0.179 SA
ATOM     21  H8  3C7 d   1      87.285  95.685  15.552  0.00  0.00     0.101 HD
ENDBRANCH  17  20
ENDBRANCH   4  17
BRANCH   2  22
ATOM     22  C09 3C7 d   1      83.317  95.084  18.366  0.00  0.00     0.205 C 
ATOM     23  O11 3C7 d   1      82.431  94.562  19.055  0.00  0.00    -0.646 OA
ATOM     24  O10 3C7 d   1      84.412  95.381  18.784  0.00  0.00    -0.646 OA
ENDBRANCH   2  22
TORSDOF 3
