REMARK  5 active torsions:
REMARK  status: ('A' for Active; 'I' for Inactive)
REMARK    1  A    between atoms: C09_2  and  C08_4 
REMARK    2  A    between atoms: C03_6  and  C02_7 
REMARK    3  A    between atoms: C02_7  and  S01_8 
REMARK    4  A    between atoms: C12_13  and  C15_14 
REMARK    5  A    between atoms: C12_13  and  C14_15 
ROOT
ATOM      1  C08 9BZ d   1       5.038  -5.083 -42.596  0.00  0.00     0.204 C 
ATOM      2  N07 9BZ d   1       4.693  -5.874 -41.402  0.00  0.00    -0.028 N 
ATOM      3  C03 9BZ d   1       5.688  -6.242 -40.460  0.00  0.00     0.158 C 
ATOM      4  S04 9BZ d   1       5.203  -7.888 -40.086  0.00  0.00    -0.132 SA
ATOM      5  C05 9BZ d   1       3.597  -7.874 -40.783  0.00  0.00     0.014 C 
ATOM      6  C06 9BZ d   1       3.364  -6.409 -41.179  0.00  0.00     0.159 C 
ATOM      7  S13 9BZ d   1       2.627  -6.164 -42.751  0.00  0.00    -0.123 SA
ATOM      8  C12 9BZ d   1       3.797  -5.044 -43.486  0.00  0.00     0.042 C 
ATOM      9  H1  9BZ d   1       5.815  -5.647 -43.132  0.00  0.00     0.104 H 
ATOM     10  H2  9BZ d   1       4.472  -5.033 -40.892  0.00  0.00     0.283 HD
ATOM     11  H3  9BZ d   1       6.722  -6.204 -40.834  0.00  0.00     0.103 H 
ATOM     12  H7  9BZ d   1       2.850  -8.201 -40.045  0.00  0.00     0.053 H 
ATOM     13  H8  9BZ d   1       3.550  -8.528 -41.666  0.00  0.00     0.053 H 
ATOM     14  H9  9BZ d   1       2.806  -5.881 -40.392  0.00  0.00     0.103 H 
ENDROOT
BRANCH   8  15
ATOM     15  C15 9BZ d   1       3.191  -3.628 -43.520  0.00  0.00    -0.058 C 
ATOM     16  H10 9BZ d   1       2.301  -3.626 -44.166  0.00  0.00     0.029 H 
ATOM     17  H11 9BZ d   1       3.934  -2.921 -43.917  0.00  0.00     0.029 H 
ATOM     18  H12 9BZ d   1       2.906  -3.327 -42.501  0.00  0.00     0.029 H 
ENDBRANCH   8  15
BRANCH   8  19
ATOM     19  C14 9BZ d   1       4.264  -5.480 -44.884  0.00  0.00    -0.058 C 
ATOM     20  H13 9BZ d   1       3.409  -5.472 -45.575  0.00  0.00     0.029 H 
ATOM     21  H14 9BZ d   1       4.683  -6.496 -44.831  0.00  0.00     0.029 H 
ATOM     22  H15 9BZ d   1       5.035  -4.784 -45.247  0.00  0.00     0.029 H 
ENDBRANCH   8  19
BRANCH   1  23
ATOM     23  C09 9BZ d   1       5.614  -3.709 -42.371  0.00  0.00     0.206 C 
ATOM     24  O11 9BZ d   1       6.484  -3.328 -43.181  0.00  0.00    -0.646 OA
ATOM     25  O10 9BZ d   1       5.229  -2.992 -41.420  0.00  0.00    -0.646 OA
ENDBRANCH   1  23
BRANCH   3  26
ATOM     26  C02 9BZ d   1       5.436  -5.172 -39.384  0.00  0.00     0.010 C 
ATOM     27  H4  9BZ d   1       4.388  -4.841 -39.439  0.00  0.00     0.052 H 
ATOM     28  H5  9BZ d   1       6.101  -4.314 -39.562  0.00  0.00     0.052 H 
BRANCH  26  29
ATOM     29  S01 9BZ d   1       5.758  -5.839 -37.760  0.00  0.00    -0.179 SA
ATOM     30  H6  9BZ d   1       6.718  -6.141 -37.706  0.00  0.00     0.101 HD
ENDBRANCH  26  29
ENDBRANCH   3  26
TORSDOF 5
