REMARK  5 active torsions:
REMARK  status: ('A' for Active; 'I' for Inactive)
REMARK    1  A    between atoms: CAA_1  and  N_2 
REMARK    2  A    between atoms: N_2  and  CAB_3 
REMARK    3  A    between atoms: N_2  and  CA_4 
REMARK    4  A    between atoms: CA_4  and  C_5 
REMARK       I    between atoms: C_5  and  NAM_7 
REMARK    5  A    between atoms: NAM_7  and  CAP_8 
ROOT
ATOM      1  CAP P34 d   1      21.846  32.870  21.576  0.00  0.00     0.035 A 
ATOM      2  CAK P34 d   1      22.734  33.931  21.376  0.00  0.00    -0.044 A 
ATOM      3  CAU P34 d   1      24.105  33.625  21.166  0.00  0.00     0.004 A 
ATOM      4  CAT P34 d   1      25.152  34.636  20.956  0.00  0.00    -0.008 A 
ATOM      5  CAI P34 d   1      24.869  36.000  20.919  0.00  0.00    -0.071 A 
ATOM      6  CAF P34 d   1      25.884  36.912  20.722  0.00  0.00    -0.082 A 
ATOM      7  CAE P34 d   1      27.203  36.496  20.498  0.00  0.00    -0.082 A 
ATOM      8  CAH P34 d   1      27.493  35.128  20.521  0.00  0.00    -0.067 A 
ATOM      9  CAS P34 d   1      26.477  34.212  20.736  0.00  0.00     0.043 A 
ATOM     10  CAQ P34 d   1      26.855  32.797  20.795  0.00  0.00     0.257 A 
ATOM     11  OAD P34 d   1      28.008  32.390  20.619  0.00  0.00    -0.267 OA
ATOM     12  NAN P34 d   1      25.859  31.906  20.993  0.00  0.00    -0.322 N 
ATOM     13  CAR P34 d   1      24.503  32.292  21.192  0.00  0.00     0.046 A 
ATOM     14  CAJ P34 d   1      23.594  31.249  21.389  0.00  0.00    -0.054 A 
ATOM     15  CAG P34 d   1      22.288  31.567  21.605  0.00  0.00    -0.055 A 
ATOM     16  H11 P34 d   1      22.386  34.958  21.381  0.00  0.00     0.088 H 
ATOM     17  H12 P34 d   1      23.849  36.345  21.045  0.00  0.00     0.084 H 
ATOM     18  H13 P34 d   1      25.657  37.972  20.741  0.00  0.00     0.083 H 
ATOM     19  H14 P34 d   1      27.985  37.222  20.310  0.00  0.00     0.083 H 
ATOM     20  H15 P34 d   1      28.511  34.786  20.371  0.00  0.00     0.085 H 
ATOM     21  H16 P34 d   1      26.084  30.932  21.000  0.00  0.00     0.169 HD
ATOM     22  H17 P34 d   1      23.920  30.215  21.370  0.00  0.00     0.087 H 
ATOM     23  H18 P34 d   1      21.578  30.773  21.805  0.00  0.00     0.087 H 
ENDROOT
BRANCH   1  24
ATOM     24  NAM P34 d   1      20.458  33.095  21.769  0.00  0.00    -0.326 N 
ATOM     25  C   P34 d   1      19.494  32.565  20.944  0.00  0.00     0.248 C 
ATOM     26  O   P34 d   1      18.285  32.756  21.127  0.00  0.00    -0.271 OA
ATOM     27  H10 P34 d   1      20.168  33.664  22.539  0.00  0.00     0.169 HD
BRANCH  25  28
ATOM     28  CA  P34 d   1      19.982  31.759  19.719  0.00  0.00     0.155 C 
ATOM     29  H8  P34 d   1      20.392  32.493  19.010  0.00  0.00     0.090 H 
ATOM     30  H9  P34 d   1      20.791  31.107  20.081  0.00  0.00     0.090 H 
BRANCH  28  31
ATOM     31  N   P34 d   1      19.090  30.914  18.958  0.00  0.00    -0.070 N 
ATOM     32  H4  P34 d   1      18.146  31.260  19.033  0.00  0.00     0.279 HD
BRANCH  31  33
ATOM     33  CAA P34 d   1      19.499  30.887  17.558  0.00  0.00     0.066 C 
ATOM     34  H1  P34 d   1      18.814  30.242  16.988  0.00  0.00     0.068 H 
ATOM     35  H2  P34 d   1      20.523  30.492  17.483  0.00  0.00     0.068 H 
ATOM     36  H3  P34 d   1      19.468  31.907  17.147  0.00  0.00     0.068 H 
ENDBRANCH  31  33
BRANCH  31  37
ATOM     37  CAB P34 d   1      19.169  29.576  19.475  0.00  0.00     0.066 C 
ATOM     38  H5  P34 d   1      18.864  29.573  20.532  0.00  0.00     0.068 H 
ATOM     39  H6  P34 d   1      20.203  29.211  19.390  0.00  0.00     0.068 H 
ATOM     40  H7  P34 d   1      18.500  28.920  18.899  0.00  0.00     0.068 H 
ENDBRANCH  31  37
ENDBRANCH  28  31
ENDBRANCH  25  28
ENDBRANCH   1  24
TORSDOF 5
