REMARK  4 active torsions:
REMARK  status: ('A' for Active; 'I' for Inactive)
REMARK    1  A    between atoms: N12_1  and  C15_3 
REMARK    2  A    between atoms: C15_3  and  C16_17 
REMARK    3  A    between atoms: C16_17  and  C17_4 
REMARK    4  A    between atoms: C17_4  and  C18_18 
ROOT
ATOM      1  N12 5TQ d   1      21.879  32.516  22.218  0.00  0.00    -0.365 N 
ATOM      2  C13 5TQ d   1      22.324  31.260  22.251  0.00  0.00    -0.019 A 
ATOM      3  C01 5TQ d   1      27.211  35.055  20.519  0.00  0.00    -0.029 A 
ATOM      4  C02 5TQ d   1      26.817  36.386  20.526  0.00  0.00     0.117 A 
ATOM      5  C03 5TQ d   1      25.519  36.746  20.872  0.00  0.00    -0.045 A 
ATOM      6  C04 5TQ d   1      24.597  35.759  21.194  0.00  0.00    -0.068 A 
ATOM      7  C05 5TQ d   1      24.975  34.402  21.216  0.00  0.00    -0.006 A 
ATOM      8  C06 5TQ d   1      26.291  34.062  20.857  0.00  0.00     0.048 A 
ATOM      9  C07 5TQ d   1      26.703  32.664  20.888  0.00  0.00     0.278 A 
ATOM     10  C08 5TQ d   1      24.040  33.355  21.553  0.00  0.00     0.020 A 
ATOM     11  C09 5TQ d   1      24.526  32.017  21.541  0.00  0.00     0.074 A 
ATOM     12  N10 5TQ d   1      25.802  31.713  21.198  0.00  0.00    -0.209 NA
ATOM     13  C11 5TQ d   1      22.702  33.549  21.924  0.00  0.00    -0.008 A 
ATOM     14  C14 5TQ d   1      23.594  30.957  21.882  0.00  0.00    -0.039 A 
ATOM     15  O19 5TQ d   1      27.880  32.336  20.584  0.00  0.00    -0.265 OA
ATOM     16  F20 5TQ d   1      27.706  37.329  20.211  0.00  0.00    -0.206 F 
ATOM     17  H1  5TQ d   1      21.657  30.464  22.579  0.00  0.00     0.111 H 
ATOM     18  H6  5TQ d   1      28.227  34.789  20.253  0.00  0.00     0.089 H 
ATOM     19  H7  5TQ d   1      25.229  37.790  20.890  0.00  0.00     0.088 H 
ATOM     20  H8  5TQ d   1      23.576  36.035  21.431  0.00  0.00     0.085 H 
ATOM     21  H9  5TQ d   1      22.312  34.565  21.977  0.00  0.00     0.113 H 
ATOM     22  H10 5TQ d   1      23.915  29.917  21.841  0.00  0.00     0.089 H 
ENDROOT
BRANCH   1  23
ATOM     23  C15 5TQ d   1      20.472  32.826  22.628  0.00  0.00    -0.001 C 
ATOM     24  H2  5TQ d   1      20.165  33.742  22.101  0.00  0.00     0.064 H 
ATOM     25  H3  5TQ d   1      20.474  33.010  23.712  0.00  0.00     0.064 H 
BRANCH  23  26
ATOM     26  C16 5TQ d   1      19.426  31.757  22.343  0.00  0.00    -0.041 C 
ATOM     27  H11 5TQ d   1      18.620  31.853  23.085  0.00  0.00     0.036 H 
ATOM     28  H12 5TQ d   1      19.901  30.770  22.443  0.00  0.00     0.036 H 
BRANCH  26  29
ATOM     29  C17 5TQ d   1      18.816  31.856  20.959  0.00  0.00     0.017 C 
ATOM     30  H4  5TQ d   1      18.746  32.916  20.673  0.00  0.00     0.049 H 
ATOM     31  H5  5TQ d   1      17.809  31.414  20.979  0.00  0.00     0.049 H 
BRANCH  29  32
ATOM     32  C18 5TQ d   1      19.656  31.123  19.933  0.00  0.00     0.172 C 
ATOM     33  O21 5TQ d   1      19.086  30.376  19.095  0.00  0.00    -0.648 OA
ATOM     34  O22 5TQ d   1      20.892  31.265  19.936  0.00  0.00    -0.648 OA
ENDBRANCH  29  32
ENDBRANCH  26  29
ENDBRANCH  23  26
ENDBRANCH   1  23
TORSDOF 4
