REMARK  9 active torsions:
REMARK  status: ('A' for Active; 'I' for Inactive)
REMARK    1  A    between atoms: C14_25  and  C13_1 
REMARK    2  A    between atoms: C18_2  and  O35_35 
REMARK    3  A    between atoms: C28_28  and  C17_3 
REMARK    4  A    between atoms: C26_27  and  C15_5 
REMARK    5  A    between atoms: C19_6  and  C24_11 
REMARK       I    between atoms: N33_33  and  C19_6 
REMARK    6  A    between atoms: C25_26  and  C27_14 
REMARK    7  A    between atoms: C27_14  and  N32_32 
REMARK    8  A    between atoms: C28_28  and  C26_27 
REMARK    9  A    between atoms: C28_28  and  N33_33 
ROOT
ATOM      1  C28 5SS d   1      39.710 -20.692  28.483  0.00  0.00     0.058 C 
ATOM      2  H26 5SS d   1      39.558 -20.763  29.570  0.00  0.00     0.083 H 
ENDROOT
BRANCH   1   3
ATOM      3  C17 5SS d   1      41.216 -20.593  28.278  0.00  0.00     0.058 A 
ATOM      4  C10 5SS d   1      42.055 -20.895  29.340  0.00  0.00    -0.046 A 
ATOM      5  C14 5SS d   1      43.433 -20.832  29.117  0.00  0.00    -0.023 A 
ATOM      6  H22 5SS d   1      41.656 -21.170  30.309  0.00  0.00     0.088 H 
ATOM      7  C8  5SS d   1      43.928 -20.583  27.828  0.00  0.00    -0.055 A 
ATOM      8  C11 5SS d   1      43.011 -20.332  26.814  0.00  0.00     0.003 A 
ATOM      9  H20 5SS d   1      44.994 -20.586  27.629  0.00  0.00     0.087 H 
ATOM     10  N29 5SS d   1      41.666 -20.349  27.016  0.00  0.00    -0.263 NA
ATOM     11  H10 5SS d   1      43.384 -20.113  25.820  0.00  0.00     0.114 H 
BRANCH   5  12
ATOM     12  C13 5SS d   1      44.359 -21.176  30.178  0.00  0.00    -0.025 A 
ATOM     13  C4  5SS d   1      43.939 -22.028  31.222  0.00  0.00    -0.070 A 
ATOM     14  C7  5SS d   1      44.840 -22.476  32.204  0.00  0.00    -0.054 A 
ATOM     15  H16 5SS d   1      42.903 -22.343  31.267  0.00  0.00     0.084 H 
ATOM     16  C16 5SS d   1      46.179 -22.042  32.092  0.00  0.00     0.065 A 
ATOM     17  H19 5SS d   1      44.521 -23.126  33.011  0.00  0.00     0.087 H 
ATOM     18  C12 5SS d   1      46.626 -21.227  31.038  0.00  0.00     0.047 A 
ATOM     19  N31 5SS d   1      47.298 -22.300  32.849  0.00  0.00    -0.275 N 
ATOM     20  C18 5SS d   1      48.007 -21.046  31.283  0.00  0.00     0.194 A 
ATOM     21  C9  5SS d   1      45.707 -20.782  30.064  0.00  0.00    -0.056 A 
ATOM     22  N30 5SS d   1      48.413 -21.711  32.374  0.00  0.00    -0.148 NA
ATOM     23  H21 5SS d   1      46.031 -20.150  29.245  0.00  0.00     0.086 H 
ATOM     24  H27 5SS d   1      47.285 -22.886  33.696  0.00  0.00     0.189 HD
BRANCH  20  25
ATOM     25  O35 5SS d   1      48.887 -20.289  30.593  0.00  0.00    -0.343 OA
ATOM     26  H32 5SS d   1      48.446 -19.887  29.854  0.00  0.00     0.219 HD
ENDBRANCH  20  25
ENDBRANCH   5  12
ENDBRANCH   1   3
BRANCH   1  27
ATOM     27  C26 5SS d   1      39.151 -22.005  27.864  0.00  0.00    -0.017 C 
ATOM     28  H24 5SS d   1      38.078 -22.085  28.091  0.00  0.00     0.043 H 
ATOM     29  H25 5SS d   1      39.295 -21.982  26.774  0.00  0.00     0.043 H 
BRANCH  27  30
ATOM     30  C15 5SS d   1      39.876 -23.211  28.440  0.00  0.00    -0.056 A 
ATOM     31  C5  5SS d   1      40.810 -23.906  27.665  0.00  0.00    -0.077 A 
ATOM     32  C2  5SS d   1      41.536 -24.955  28.243  0.00  0.00    -0.082 A 
ATOM     33  H17 5SS d   1      40.970 -23.636  26.628  0.00  0.00     0.084 H 
ATOM     34  C1  5SS d   1      41.342 -25.299  29.589  0.00  0.00    -0.083 A 
ATOM     35  H14 5SS d   1      42.254 -25.506  27.645  0.00  0.00     0.083 H 
ATOM     36  C3  5SS d   1      40.424 -24.593  30.366  0.00  0.00    -0.082 A 
ATOM     37  H13 5SS d   1      41.907 -26.115  30.026  0.00  0.00     0.083 H 
ATOM     38  C6  5SS d   1      39.705 -23.543  29.790  0.00  0.00    -0.077 A 
ATOM     39  H15 5SS d   1      40.270 -24.856  31.406  0.00  0.00     0.083 H 
ATOM     40  H18 5SS d   1      39.006 -22.978  30.395  0.00  0.00     0.084 H 
ENDBRANCH  27  30
ENDBRANCH   1  27
BRANCH   1  41
ATOM     41  N33 5SS d   1      38.937 -19.536  28.048  0.00  0.00    -0.350 N 
ATOM     42  C19 5SS d   1      38.854 -18.363  28.786  0.00  0.00     0.222 C 
ATOM     43  O34 5SS d   1      39.418 -18.176  29.857  0.00  0.00    -0.273 OA
ATOM     44  H31 5SS d   1      38.444 -19.590  27.179  0.00  0.00     0.163 HD
BRANCH  42  45
ATOM     45  C24 5SS d   1      37.951 -17.292  28.217  0.00  0.00     0.024 C 
ATOM     46  C20 5SS d   1      36.979 -16.813  29.306  0.00  0.00    -0.053 C 
ATOM     47  C22 5SS d   1      36.056 -15.687  28.837  0.00  0.00    -0.059 C 
ATOM     48  H1  5SS d   1      36.359 -17.665  29.620  0.00  0.00     0.034 H 
ATOM     49  H2  5SS d   1      37.566 -16.450  30.163  0.00  0.00     0.034 H 
ATOM     50  C25 5SS d   1      36.870 -14.522  28.247  0.00  0.00    -0.031 C 
ATOM     51  H5  5SS d   1      35.471 -15.320  29.693  0.00  0.00     0.033 H 
ATOM     52  H6  5SS d   1      35.374 -16.077  28.067  0.00  0.00     0.033 H 
ATOM     53  C23 5SS d   1      37.744 -15.024  27.077  0.00  0.00    -0.059 C 
ATOM     54  H23 5SS d   1      37.550 -14.156  29.030  0.00  0.00     0.042 H 
ATOM     55  C21 5SS d   1      38.706 -16.134  27.534  0.00  0.00    -0.053 C 
ATOM     56  H7  5SS d   1      37.090 -15.420  26.286  0.00  0.00     0.033 H 
ATOM     57  H8  5SS d   1      38.331 -14.182  26.681  0.00  0.00     0.033 H 
ATOM     58  H3  5SS d   1      39.429 -15.710  28.246  0.00  0.00     0.034 H 
ATOM     59  H4  5SS d   1      39.242 -16.525  26.657  0.00  0.00     0.034 H 
ATOM     60  H9  5SS d   1      37.346 -17.769  27.432  0.00  0.00     0.054 H 
BRANCH  50  61
ATOM     61  C27 5SS d   1      35.954 -13.357  27.864  0.00  0.00     0.083 C 
ATOM     62  H11 5SS d   1      35.436 -12.989  28.762  0.00  0.00     0.075 H 
ATOM     63  H12 5SS d   1      35.213 -13.701  27.128  0.00  0.00     0.075 H 
BRANCH  61  64
ATOM     64  N32 5SS d   1      36.730 -12.302  27.298  0.00  0.00    -0.079 N 
ATOM     65  H28 5SS d   1      36.124 -11.537  27.047  0.00  0.00     0.274 HD
ATOM     66  H29 5SS d   1      37.205 -12.638  26.475  0.00  0.00     0.274 HD
ATOM     67  H30 5SS d   1      37.409 -11.986  27.972  0.00  0.00     0.274 HD
ENDBRANCH  61  64
ENDBRANCH  50  61
ENDBRANCH  42  45
ENDBRANCH   1  41
TORSDOF 9
