REMARK  11 active torsions:
REMARK  status: ('A' for Active; 'I' for Inactive)
REMARK    1  A    between atoms: C14_25  and  C13_1 
REMARK    2  A    between atoms: C18_2  and  C24_11 
REMARK       I    between atoms: N33_33  and  C18_2 
REMARK    3  A    between atoms: C29_29  and  C17_3 
REMARK    4  A    between atoms: C16_4  and  N32_32 
REMARK    5  A    between atoms: C27_14  and  C15_5 
REMARK       I    between atoms: N32_32  and  C19_6 
REMARK    6  A    between atoms: C19_6  and  O36_36 
REMARK    7  A    between atoms: C29_29  and  C27_14 
REMARK    8  A    between atoms: C25_26  and  C28_28 
REMARK    9  A    between atoms: O36_36  and  C26_27 
REMARK   10  A    between atoms: C28_28  and  N31_31 
REMARK   11  A    between atoms: C29_29  and  N33_33 
ROOT
ATOM      1  C29 5ST d   1      39.921 -20.760  28.796  0.00  0.00     0.058 C 
ATOM      2  H30 5ST d   1      39.820 -20.823  29.890  0.00  0.00     0.083 H 
ENDROOT
BRANCH   1   3
ATOM      3  C17 5ST d   1      41.411 -20.605  28.499  0.00  0.00     0.058 A 
ATOM      4  C11 5ST d   1      42.310 -20.910  29.507  0.00  0.00    -0.046 A 
ATOM      5  C14 5ST d   1      43.673 -20.833  29.232  0.00  0.00    -0.023 A 
ATOM      6  H10 5ST d   1      41.960 -21.203  30.490  0.00  0.00     0.088 H 
ATOM      7  C10 5ST d   1      44.096 -20.566  27.923  0.00  0.00    -0.055 A 
ATOM      8  C12 5ST d   1      43.122 -20.304  26.959  0.00  0.00     0.003 A 
ATOM      9  H23 5ST d   1      45.149 -20.563  27.667  0.00  0.00     0.087 H 
ATOM     10  N30 5ST d   1      41.789 -20.321  27.220  0.00  0.00    -0.263 NA
ATOM     11  H11 5ST d   1      43.446 -20.075  25.950  0.00  0.00     0.114 H 
BRANCH   5  12
ATOM     12  C13 5ST d   1      44.638 -21.164  30.269  0.00  0.00    -0.026 A 
ATOM     13  C4  5ST d   1      44.265 -22.018  31.324  0.00  0.00    -0.070 A 
ATOM     14  C8  5ST d   1      45.194 -22.371  32.321  0.00  0.00    -0.056 A 
ATOM     15  H17 5ST d   1      43.254 -22.407  31.369  0.00  0.00     0.084 H 
ATOM     16  C16 5ST d   1      46.523 -21.904  32.248  0.00  0.00     0.036 A 
ATOM     17  H21 5ST d   1      44.887 -23.003  33.147  0.00  0.00     0.086 H 
ATOM     18  C9  5ST d   1      46.901 -21.071  31.172  0.00  0.00    -0.056 A 
ATOM     19  C5  5ST d   1      45.955 -20.678  30.206  0.00  0.00    -0.070 A 
ATOM     20  H22 5ST d   1      47.927 -20.732  31.089  0.00  0.00     0.086 H 
ATOM     21  H18 5ST d   1      46.243 -19.999  29.412  0.00  0.00     0.084 H 
BRANCH  16  22
ATOM     22  N32 5ST d   1      47.467 -22.312  33.207  0.00  0.00    -0.303 N 
ATOM     23  C19 5ST d   1      48.845 -22.019  33.258  0.00  0.00     0.364 C 
ATOM     24  O35 5ST d   1      49.462 -21.323  32.460  0.00  0.00    -0.238 OA
ATOM     25  H34 5ST d   1      47.115 -22.884  33.948  0.00  0.00     0.171 HD
BRANCH  23  26
ATOM     26  O36 5ST d   1      49.438 -22.581  34.369  0.00  0.00    -0.309 OA
BRANCH  26  27
ATOM     27  C26 5ST d   1      50.824 -22.288  34.618  0.00  0.00     0.015 C 
ATOM     28  H25 5ST d   1      51.150 -22.805  35.533  0.00  0.00     0.067 H 
ATOM     29  H26 5ST d   1      50.952 -21.203  34.745  0.00  0.00     0.067 H 
ATOM     30  H27 5ST d   1      51.430 -22.632  33.767  0.00  0.00     0.067 H 
ENDBRANCH  26  27
ENDBRANCH  23  26
ENDBRANCH  16  22
ENDBRANCH   5  12
ENDBRANCH   1   3
BRANCH   1  31
ATOM     31  C27 5ST d   1      39.345 -22.074  28.195  0.00  0.00    -0.017 C 
ATOM     32  H12 5ST d   1      38.294 -22.176  28.502  0.00  0.00     0.043 H 
ATOM     33  H13 5ST d   1      39.403 -22.020  27.098  0.00  0.00     0.043 H 
BRANCH  31  34
ATOM     34  C15 5ST d   1      40.118 -23.293  28.671  0.00  0.00    -0.056 A 
ATOM     35  C6  5ST d   1      39.993 -23.726  29.994  0.00  0.00    -0.077 A 
ATOM     36  C2  5ST d   1      40.741 -24.816  30.455  0.00  0.00    -0.082 A 
ATOM     37  H19 5ST d   1      39.313 -23.215  30.667  0.00  0.00     0.084 H 
ATOM     38  C1  5ST d   1      41.648 -25.455  29.601  0.00  0.00    -0.083 A 
ATOM     39  H15 5ST d   1      40.618 -25.165  31.474  0.00  0.00     0.083 H 
ATOM     40  C3  5ST d   1      41.805 -24.999  28.280  0.00  0.00    -0.082 A 
ATOM     41  H14 5ST d   1      42.228 -26.299  29.957  0.00  0.00     0.083 H 
ATOM     42  C7  5ST d   1      41.044 -23.912  27.817  0.00  0.00    -0.077 A 
ATOM     43  H16 5ST d   1      42.513 -25.486  27.619  0.00  0.00     0.083 H 
ATOM     44  H20 5ST d   1      41.172 -23.552  26.802  0.00  0.00     0.084 H 
ENDBRANCH  31  34
ENDBRANCH   1  31
BRANCH   1  45
ATOM     45  N33 5ST d   1      39.125 -19.634  28.356  0.00  0.00    -0.350 N 
ATOM     46  C18 5ST d   1      39.051 -18.460  29.070  0.00  0.00     0.222 C 
ATOM     47  O34 5ST d   1      39.630 -18.273  30.139  0.00  0.00    -0.273 OA
ATOM     48  H35 5ST d   1      38.610 -19.712  27.502  0.00  0.00     0.163 HD
BRANCH  46  49
ATOM     49  C24 5ST d   1      38.148 -17.413  28.463  0.00  0.00     0.024 C 
ATOM     50  C20 5ST d   1      37.141 -16.929  29.520  0.00  0.00    -0.053 C 
ATOM     51  C22 5ST d   1      36.245 -15.776  29.033  0.00  0.00    -0.059 C 
ATOM     52  H1  5ST d   1      36.497 -17.776  29.800  0.00  0.00     0.034 H 
ATOM     53  H2  5ST d   1      37.701 -16.586  30.402  0.00  0.00     0.034 H 
ATOM     54  C25 5ST d   1      37.080 -14.626  28.424  0.00  0.00    -0.031 C 
ATOM     55  H5  5ST d   1      35.669 -15.387  29.886  0.00  0.00     0.033 H 
ATOM     56  H6  5ST d   1      35.554 -16.159  28.268  0.00  0.00     0.033 H 
ATOM     57  C23 5ST d   1      37.974 -15.156  27.282  0.00  0.00    -0.059 C 
ATOM     58  H24 5ST d   1      37.744 -14.238  29.211  0.00  0.00     0.042 H 
ATOM     59  C21 5ST d   1      38.926 -16.257  27.794  0.00  0.00    -0.053 C 
ATOM     60  H7  5ST d   1      37.336 -15.572  26.488  0.00  0.00     0.033 H 
ATOM     61  H8  5ST d   1      38.570 -14.325  26.876  0.00  0.00     0.033 H 
ATOM     62  H3  5ST d   1      39.617 -15.819  28.529  0.00  0.00     0.034 H 
ATOM     63  H4  5ST d   1      39.500 -16.657  26.945  0.00  0.00     0.034 H 
ATOM     64  H9  5ST d   1      37.571 -17.904  27.665  0.00  0.00     0.054 H 
BRANCH  54  65
ATOM     65  C28 5ST d   1      36.171 -13.468  27.976  0.00  0.00     0.083 C 
ATOM     66  H28 5ST d   1      35.581 -13.119  28.836  0.00  0.00     0.075 H 
ATOM     67  H29 5ST d   1      35.493 -13.826  27.188  0.00  0.00     0.075 H 
BRANCH  65  68
ATOM     68  N31 5ST d   1      36.950 -12.377  27.466  0.00  0.00    -0.079 N 
ATOM     69  H31 5ST d   1      36.336 -11.631  27.179  0.00  0.00     0.274 HD
ATOM     70  H32 5ST d   1      37.490 -12.691  26.675  0.00  0.00     0.274 HD
ATOM     71  H33 5ST d   1      37.571 -12.043  28.186  0.00  0.00     0.274 HD
ENDBRANCH  65  68
ENDBRANCH  54  65
ENDBRANCH  46  49
ENDBRANCH   1  45
TORSDOF 11
