REMARK  11 active torsions:
REMARK  status: ('A' for Active; 'I' for Inactive)
REMARK       I    between atoms: C18_1  and  N17_25 
REMARK    1  A    between atoms: C29_31  and  C18_1 
REMARK    2  A    between atoms: C15_3  and  C16_2 
REMARK    3  A    between atoms: C14_24  and  C15_3 
REMARK    4  A    between atoms: C11_9  and  N13_23 
REMARK    5  A    between atoms: C14_24  and  C1_13 
REMARK    6  A    between atoms: C5_17  and  C7_19 
REMARK       I    between atoms: N13_23  and  C25_27 
REMARK    7  A    between atoms: N17_25  and  C14_24 
REMARK    8  A    between atoms: C25_27  and  O27_29 
REMARK    9  A    between atoms: O27_29  and  C28_30 
REMARK   10  A    between atoms: C31_33  and  C30_32 
REMARK   11  A    between atoms: C32_34  and  N37_37 
ROOT
ATOM      1  C14 5SU d   1      -1.141   8.532 -17.873  0.00  0.00     0.058 C 
ATOM      2  H18 5SU d   1      -1.773   8.276 -17.010  0.00  0.00     0.083 H 
ENDROOT
BRANCH   1   3
ATOM      3  C15 5SU d   1      -0.679   7.212 -18.501  0.00  0.00    -0.017 C 
ATOM      4  H1  5SU d   1      -1.549   6.744 -18.986  0.00  0.00     0.043 H 
ATOM      5  H2  5SU d   1       0.082   7.445 -19.260  0.00  0.00     0.043 H 
BRANCH   3   6
ATOM      6  C16 5SU d   1      -0.083   6.204 -17.534  0.00  0.00    -0.056 A 
ATOM      7  C20 5SU d   1       0.986   5.381 -17.952  0.00  0.00    -0.077 A 
ATOM      8  C21 5SU d   1       1.547   4.436 -17.080  0.00  0.00    -0.082 A 
ATOM      9  H3  5SU d   1       1.377   5.481 -18.958  0.00  0.00     0.084 H 
ATOM     10  C22 5SU d   1       1.058   4.319 -15.767  0.00  0.00    -0.083 A 
ATOM     11  H4  5SU d   1       2.355   3.798 -17.418  0.00  0.00     0.083 H 
ATOM     12  C23 5SU d   1       0.020   5.132 -15.346  0.00  0.00    -0.082 A 
ATOM     13  H5  5SU d   1       1.492   3.595 -15.087  0.00  0.00     0.083 H 
ATOM     14  C24 5SU d   1      -0.562   6.050 -16.222  0.00  0.00    -0.077 A 
ATOM     15  H6  5SU d   1      -0.344   5.055 -14.328  0.00  0.00     0.083 H 
ATOM     16  H7  5SU d   1      -1.397   6.654 -15.885  0.00  0.00     0.084 H 
ENDBRANCH   3   6
ENDBRANCH   1   3
BRANCH   1  17
ATOM     17  C1  5SU d   1       0.014   9.317 -17.341  0.00  0.00     0.058 A 
ATOM     18  N2  5SU d   1       0.904   9.757 -18.245  0.00  0.00    -0.263 NA
ATOM     19  C3  5SU d   1       1.967  10.431 -17.777  0.00  0.00     0.003 A 
ATOM     20  C4  5SU d   1       2.198  10.662 -16.434  0.00  0.00    -0.055 A 
ATOM     21  H11 5SU d   1       2.684  10.816 -18.493  0.00  0.00     0.114 H 
ATOM     22  C5  5SU d   1       1.263  10.204 -15.498  0.00  0.00    -0.023 A 
ATOM     23  H12 5SU d   1       3.088  11.189 -16.111  0.00  0.00     0.087 H 
ATOM     24  C6  5SU d   1       0.149   9.526 -15.997  0.00  0.00    -0.046 A 
ATOM     25  H13 5SU d   1      -0.612   9.164 -15.316  0.00  0.00     0.088 H 
BRANCH  22  26
ATOM     26  C7  5SU d   1       1.417  10.450 -14.036  0.00  0.00    -0.026 A 
ATOM     27  C8  5SU d   1       2.169  11.528 -13.550  0.00  0.00    -0.070 A 
ATOM     28  C12 5SU d   1       2.379  11.709 -12.191  0.00  0.00    -0.056 A 
ATOM     29  H14 5SU d   1       2.596  12.236 -14.251  0.00  0.00     0.084 H 
ATOM     30  C11 5SU d   1       1.800  10.832 -11.262  0.00  0.00     0.036 A 
ATOM     31  H8  5SU d   1       2.994  12.532 -11.845  0.00  0.00     0.086 H 
ATOM     32  C9  5SU d   1       1.011   9.779 -11.732  0.00  0.00    -0.056 A 
ATOM     33  C10 5SU d   1       0.845   9.584 -13.094  0.00  0.00    -0.070 A 
ATOM     34  H15 5SU d   1       0.527   9.112 -11.028  0.00  0.00     0.086 H 
ATOM     35  H16 5SU d   1       0.258   8.741 -13.439  0.00  0.00     0.084 H 
BRANCH  30  36
ATOM     36  N13 5SU d   1       1.963  10.897  -9.857  0.00  0.00    -0.303 N 
ATOM     37  C25 5SU d   1       2.730  11.784  -9.170  0.00  0.00     0.364 C 
ATOM     38  O26 5SU d   1       3.326  12.735  -9.647  0.00  0.00    -0.238 OA
ATOM     39  H17 5SU d   1       1.463  10.222  -9.315  0.00  0.00     0.171 HD
BRANCH  37  40
ATOM     40  O27 5SU d   1       2.709  11.466  -7.870  0.00  0.00    -0.309 OA
BRANCH  40  41
ATOM     41  C28 5SU d   1       3.376  12.425  -6.963  0.00  0.00     0.015 C 
ATOM     42  H20 5SU d   1       3.298  12.065  -5.927  0.00  0.00     0.067 H 
ATOM     43  H21 5SU d   1       2.890  13.408  -7.047  0.00  0.00     0.067 H 
ATOM     44  H22 5SU d   1       4.437  12.515  -7.240  0.00  0.00     0.067 H 
ENDBRANCH  40  41
ENDBRANCH  37  40
ENDBRANCH  30  36
ENDBRANCH  22  26
ENDBRANCH   1  17
BRANCH   1  45
ATOM     45  N17 5SU d   1      -1.981   9.290 -18.799  0.00  0.00    -0.347 N 
ATOM     46  C18 5SU d   1      -3.010  10.065 -18.273  0.00  0.00     0.241 C 
ATOM     47  O19 5SU d   1      -3.147  10.253 -17.052  0.00  0.00    -0.269 OA
ATOM     48  H19 5SU d   1      -1.820   9.252 -19.785  0.00  0.00     0.163 HD
BRANCH  46  49
ATOM     49  C29 5SU d   1      -3.857  10.786 -19.218  0.00  0.00    -0.017 C 
ATOM     50  C30 5SU d   1      -3.608  11.026 -20.478  0.00  0.00    -0.066 C 
ATOM     51  H24 5SU d   1      -2.671  10.661 -20.897  0.00  0.00     0.085 H 
ATOM     52  H23 5SU d   1      -4.801  11.166 -18.830  0.00  0.00     0.092 H 
BRANCH  50  53
ATOM     53  C31 5SU d   1      -4.518  11.758 -21.355  0.00  0.00    -0.005 A 
ATOM     54  C32 5SU d   1      -4.122  12.843 -22.157  0.00  0.00     0.071 A 
ATOM     55  C33 5SU d   1      -5.073  13.522 -22.929  0.00  0.00    -0.053 A 
ATOM     56  C34 5SU d   1      -6.400  13.119 -22.924  0.00  0.00    -0.060 A 
ATOM     57  H10 5SU d   1      -4.770  14.368 -23.535  0.00  0.00     0.087 H 
ATOM     58  C35 5SU d   1      -6.773  12.046 -22.148  0.00  0.00     0.035 A 
ATOM     59  H9  5SU d   1      -7.135  13.643 -23.524  0.00  0.00     0.086 H 
ATOM     60  C36 5SU d   1      -5.866  11.369 -21.364  0.00  0.00    -0.050 A 
ATOM     61 CL4  5SU d   1      -8.429  11.518 -22.179  0.00  0.00    -0.084 Cl
ATOM     62  H25 5SU d   1      -6.194  10.535 -20.753  0.00  0.00     0.087 H 
BRANCH  54  63
ATOM     63  N37 5SU d   1      -2.742  13.226 -22.252  0.00  0.00    -0.205 N 
ATOM     64  C38 5SU d   1      -1.922  13.361 -23.298  0.00  0.00     0.113 A 
ATOM     65  N39 5SU d   1      -0.734  13.712 -22.887  0.00  0.00    -0.122 NA
ATOM     66  H26 5SU d   1      -2.203  13.202 -24.338  0.00  0.00     0.149 H 
ATOM     67  N40 5SU d   1      -0.827  13.796 -21.538  0.00  0.00    -0.023 NA
ATOM     68  N41 5SU d   1      -2.030  13.516 -21.133  0.00  0.00    -0.040 NA
ENDBRANCH  54  63
ENDBRANCH  50  53
ENDBRANCH  46  49
ENDBRANCH   1  45
TORSDOF 11
