REMARK  11 active torsions:
REMARK  status: ('A' for Active; 'I' for Inactive)
REMARK    1  A    between atoms: PG_2  and  O3B_5 
REMARK    2  A    between atoms: O3B_5  and  PB_6 
REMARK    3  A    between atoms: PB_6  and  O3A_9 
REMARK    4  A    between atoms: O3A_9  and  PA_10 
REMARK    5  A    between atoms: PA_10  and  O5'_13 
REMARK    6  A    between atoms: O5'_13  and  C5'_14 
REMARK    7  A    between atoms: C5'_14  and  C4'_15 
REMARK    8  A    between atoms: C1'_17  and  N9_18 
REMARK    9  A    between atoms: C6_22  and  N6_23 
REMARK   10  A    between atoms: C2'_28  and  O2'_29 
REMARK   11  A    between atoms: C3'_30  and  O3'_31 
ROOT
ATOM      1  C4' 7DT d   1      18.018  -4.816   5.636  0.00  0.00     0.089 C 
ATOM      2  O4' 7DT d   1      17.157  -5.732   4.952  0.00  0.00    -0.353 OA
ATOM      3  C1' 7DT d   1      16.975  -6.847   5.794  0.00  0.00     0.138 C 
ATOM      4  C2' 7DT d   1      18.369  -7.084   6.411  0.00  0.00     0.105 C 
ATOM      5  C3' 7DT d   1      18.734  -5.610   6.742  0.00  0.00     0.091 C 
ATOM      6  H3  7DT d   1      17.466  -3.962   6.055  0.00  0.00     0.090 H 
ATOM      7  H4  7DT d   1      16.241  -6.612   6.579  0.00  0.00     0.122 H 
ATOM      8  H10 7DT d   1      19.064  -7.554   5.700  0.00  0.00     0.093 H 
ATOM      9  H12 7DT d   1      19.822  -5.449   6.737  0.00  0.00     0.091 H 
ENDROOT
BRANCH   1  10
ATOM     10  C5' 7DT d   1      19.019  -4.375   4.595  0.00  0.00     0.058 C 
ATOM     11  H1  7DT d   1      19.770  -3.723   5.065  0.00  0.00     0.079 H 
ATOM     12  H2  7DT d   1      19.516  -5.260   4.170  0.00  0.00     0.079 H 
BRANCH  10  13
ATOM     13  O5' 7DT d   1      18.346  -3.647   3.536  0.00  0.00    -0.287 OA
BRANCH  13  14
ATOM     14  PA  7DT d   1      19.095  -3.136   2.254  0.00  0.00     0.417 P 
ATOM     15  O1A 7DT d   1      19.841  -4.280   1.635  0.00  0.00    -0.624 OA
ATOM     16  O2A 7DT d   1      18.102  -2.474   1.364  0.00  0.00    -0.624 OA
BRANCH  14  17
ATOM     17  O3A 7DT d   1      20.136  -2.115   2.862  0.00  0.00    -0.180 OA
BRANCH  17  18
ATOM     18  PB  7DT d   1      20.572  -0.622   2.428  0.00  0.00     0.428 P 
ATOM     19  O2B 7DT d   1      20.407  -0.519   0.925  0.00  0.00    -0.624 OA
ATOM     20  O1B 7DT d   1      21.993  -0.468   2.997  0.00  0.00    -0.624 OA
BRANCH  18  21
ATOM     21  O3B 7DT d   1      19.556   0.214   3.244  0.00  0.00    -0.173 OA
BRANCH  21  22
ATOM     22  PG  7DT d   1      19.890   1.450   4.229  0.00  0.00     0.431 P 
ATOM     23  O3G 7DT d   1      20.652   0.817   5.402  0.00  0.00    -0.616 OA
ATOM     24  O2G 7DT d   1      20.787   2.331   3.419  0.00  0.00    -0.616 OA
ATOM     25  O1G 7DT d   1      18.548   2.014   4.539  0.00  0.00    -0.616 OA
ENDBRANCH  21  22
ENDBRANCH  18  21
ENDBRANCH  17  18
ENDBRANCH  14  17
ENDBRANCH  13  14
ENDBRANCH  10  13
ENDBRANCH   1  10
BRANCH   5  26
ATOM     26  O3' 7DT d   1      18.178  -5.222   7.967  0.00  0.00    -0.390 OA
ATOM     27  H13 7DT d   1      18.512  -5.783   8.657  0.00  0.00     0.210 HD
ENDBRANCH   5  26
BRANCH   3  28
ATOM     28  N9  7DT d   1      16.522  -8.046   5.062  0.00  0.00    -0.311 N 
ATOM     29  C8  7DT d   1      17.156  -8.614   4.007  0.00  0.00    -0.015 A 
ATOM     30  C20 7DT d   1      16.450  -9.727   3.606  0.00  0.00    -0.051 A 
ATOM     31  H5  7DT d   1      18.075  -8.249   3.550  0.00  0.00     0.111 H 
ATOM     32  C5  7DT d   1      15.343  -9.846   4.397  0.00  0.00     0.057 A 
ATOM     33  H6  7DT d   1      16.728 -10.399   2.795  0.00  0.00     0.087 H 
ATOM     34  C6  7DT d   1      14.236 -10.756   4.502  0.00  0.00     0.136 A 
ATOM     35  C4  7DT d   1      15.389  -8.776   5.319  0.00  0.00     0.147 A 
ATOM     36  N1  7DT d   1      13.347 -10.541   5.430  0.00  0.00    -0.224 NA
ATOM     37  C2  7DT d   1      13.469  -9.475   6.262  0.00  0.00     0.091 A 
ATOM     38  N3  7DT d   1      14.460  -8.569   6.251  0.00  0.00    -0.223 NA
ATOM     39  H9  7DT d   1      12.692  -9.343   7.006  0.00  0.00     0.146 H 
BRANCH  34  40
ATOM     40  N6  7DT d   1      14.162 -11.812   3.628  0.00  0.00    -0.383 N 
ATOM     41  H7  7DT d   1      13.376 -12.475   3.687  0.00  0.00     0.157 HD
ATOM     42  H8  7DT d   1      14.892 -11.941   2.913  0.00  0.00     0.157 HD
ENDBRANCH  34  40
ENDBRANCH   3  28
BRANCH   4  43
ATOM     43  O2' 7DT d   1      18.328  -7.821   7.615  0.00  0.00    -0.388 OA
ATOM     44  H11 7DT d   1      17.807  -7.351   8.255  0.00  0.00     0.210 HD
ENDBRANCH   4  43
TORSDOF 11
