REMARK  10 active torsions:
REMARK  status: ('A' for Active; 'I' for Inactive)
REMARK    1  A    between atoms: PG_1  and  O3B_5 
REMARK    2  A    between atoms: O3B_5  and  PB_6 
REMARK    3  A    between atoms: PB_6  and  O3A_9 
REMARK    4  A    between atoms: O3A_9  and  PA_10 
REMARK    5  A    between atoms: PA_10  and  O5'_13 
REMARK    6  A    between atoms: O5'_13  and  C5'_14 
REMARK    7  A    between atoms: C5'_14  and  C4'_15 
REMARK    8  A    between atoms: C3'_17  and  O3'_18 
REMARK    9  A    between atoms: C2'_19  and  O2'_20 
REMARK   10  A    between atoms: C1'_21  and  N9_22 
ROOT
ATOM      1  C4' GTP d   1      -2.094   0.269 -23.202  0.00  0.00     0.089 C 
ATOM      2  O4' GTP d   1      -0.890  -0.474 -23.342  0.00  0.00    -0.353 OA
ATOM      3  C3' GTP d   1      -2.241   1.027 -24.510  0.00  0.00     0.091 C 
ATOM      4  C2' GTP d   1      -1.330   0.297 -25.478  0.00  0.00     0.105 C 
ATOM      5  C1' GTP d   1      -0.216  -0.128 -24.548  0.00  0.00     0.139 C 
ATOM      6  H3  GTP d   1      -2.005   0.982 -22.369  0.00  0.00     0.090 H 
ATOM      7  H4  GTP d   1      -3.282   1.064 -24.865  0.00  0.00     0.091 H 
ATOM      8  H6  GTP d   1      -1.834  -0.565 -25.939  0.00  0.00     0.093 H 
ATOM      9  H8  GTP d   1       0.489   0.704 -24.408  0.00  0.00     0.122 H 
ENDROOT
BRANCH   1  10
ATOM     10  C5' GTP d   1      -3.271  -0.666 -22.919  0.00  0.00     0.058 C 
ATOM     11  H1  GTP d   1      -3.049  -1.280 -22.034  0.00  0.00     0.079 H 
ATOM     12  H2  GTP d   1      -4.177  -0.071 -22.734  0.00  0.00     0.079 H 
BRANCH  10  13
ATOM     13  O5' GTP d   1      -3.477  -1.507 -24.038  0.00  0.00    -0.287 OA
BRANCH  13  14
ATOM     14  PA  GTP d   1      -4.869  -1.480 -24.871  0.00  0.00     0.417 P 
ATOM     15  O1A GTP d   1      -4.606  -2.027 -26.254  0.00  0.00    -0.624 OA
ATOM     16  O2A GTP d   1      -5.405  -0.071 -24.885  0.00  0.00    -0.624 OA
BRANCH  14  17
ATOM     17  O3A GTP d   1      -5.872  -2.479 -24.093  0.00  0.00    -0.180 OA
BRANCH  17  18
ATOM     18  PB  GTP d   1      -7.228  -2.001 -23.335  0.00  0.00     0.428 P 
ATOM     19  O1B GTP d   1      -8.196  -1.317 -24.264  0.00  0.00    -0.624 OA
ATOM     20  O2B GTP d   1      -7.851  -3.211 -22.667  0.00  0.00    -0.624 OA
BRANCH  18  21
ATOM     21  O3B GTP d   1      -6.566  -0.981 -22.285  0.00  0.00    -0.173 OA
BRANCH  21  22
ATOM     22  PG  GTP d   1      -7.395  -0.262 -21.116  0.00  0.00     0.431 P 
ATOM     23  O1G GTP d   1      -7.582   1.187 -21.491  0.00  0.00    -0.616 OA
ATOM     24  O2G GTP d   1      -8.732  -0.944 -20.948  0.00  0.00    -0.616 OA
ATOM     25  O3G GTP d   1      -6.593  -0.373 -19.836  0.00  0.00    -0.616 OA
ENDBRANCH  21  22
ENDBRANCH  18  21
ENDBRANCH  17  18
ENDBRANCH  14  17
ENDBRANCH  13  14
ENDBRANCH  10  13
ENDBRANCH   1  10
BRANCH   3  26
ATOM     26  O3' GTP d   1      -1.718   2.314 -24.285  0.00  0.00    -0.390 OA
ATOM     27  H5  GTP d   1      -1.789   2.827 -25.081  0.00  0.00     0.210 HD
ENDBRANCH   3  26
BRANCH   5  28
ATOM     28  N9  GTP d   1       0.523  -1.347 -24.917  0.00  0.00    -0.295 N 
ATOM     29  C8  GTP d   1       0.035  -2.597 -25.210  0.00  0.00     0.071 A 
ATOM     30  N7  GTP d   1       1.069  -3.446 -25.418  0.00  0.00    -0.234 NA
ATOM     31  H9  GTP d   1      -1.019  -2.864 -25.266  0.00  0.00     0.144 H 
ATOM     32  C5  GTP d   1       2.223  -2.763 -25.245  0.00  0.00     0.171 A 
ATOM     33  C6  GTP d   1       3.574  -3.121 -25.318  0.00  0.00     0.292 A 
ATOM     34  C4  GTP d   1       1.885  -1.453 -24.919  0.00  0.00     0.161 A 
ATOM     35  O6  GTP d   1       3.944  -4.270 -25.589  0.00  0.00    -0.265 OA
ATOM     36  N1  GTP d   1       4.537  -2.154 -25.084  0.00  0.00    -0.154 N 
ATOM     37  C2  GTP d   1       4.164  -0.866 -24.767  0.00  0.00     0.680 A 
ATOM     38  H10 GTP d   1       5.506  -2.391 -25.145  0.00  0.00     0.187 HD
ATOM     39  N2  GTP d   1       5.098   0.058 -24.533  0.00  0.00    -0.234 N 
ATOM     40  N3  GTP d   1       2.835  -0.521 -24.689  0.00  0.00    -0.174 N 
ATOM     41  H11 GTP d   1       4.821   1.021 -24.296  0.00  0.00     0.174 HD
ATOM     42  H12 GTP d   1       6.096  -0.192 -24.590  0.00  0.00     0.174 HD
ATOM     43  H13 GTP d   1       2.565   0.445 -24.456  0.00  0.00     0.186 HD
ENDBRANCH   5  28
BRANCH   4  44
ATOM     44  O2' GTP d   1      -0.834   1.147 -26.479  0.00  0.00    -0.388 OA
ATOM     45  H7  GTP d   1      -0.338   1.851 -26.078  0.00  0.00     0.210 HD
ENDBRANCH   4  44
TORSDOF 10
