REMARK  10 active torsions:
REMARK  status: ('A' for Active; 'I' for Inactive)
REMARK    1  A    between atoms: O3B_8  and  PG_1 
REMARK    2  A    between atoms: PB_5  and  O3B_8 
REMARK    3  A    between atoms: O3A_12  and  PB_5 
REMARK    4  A    between atoms: PA_9  and  O3A_12 
REMARK    5  A    between atoms: PA_9  and  O5'_13 
REMARK    6  A    between atoms: O5'_13  and  C5'_14 
REMARK    7  A    between atoms: C5'_14  and  C4'_15 
REMARK    8  A    between atoms: C3'_17  and  O3'_18 
REMARK    9  A    between atoms: C1'_20  and  N9_21 
REMARK   10  A    between atoms: C6_25  and  N6_26 
ROOT
ATOM      1  C4' DTP d   1      14.607 -15.096   2.014  0.00  0.00     0.087 C 
ATOM      2  O4' DTP d   1      14.725 -14.063   2.997  0.00  0.00    -0.356 OA
ATOM      3  C3' DTP d   1      13.221 -14.915   1.391  0.00  0.00     0.066 C 
ATOM      4  C2' DTP d   1      12.849 -13.447   1.673  0.00  0.00     0.002 C 
ATOM      5  C1' DTP d   1      13.562 -13.240   3.027  0.00  0.00     0.115 C 
ATOM      6  H3  DTP d   1      14.649 -16.078   2.507  0.00  0.00     0.090 H 
ATOM      7  H4  DTP d   1      13.208 -15.145   0.315  0.00  0.00     0.087 H 
ATOM      8  H6  DTP d   1      11.761 -13.312   1.761  0.00  0.00     0.043 H 
ATOM      9  H7  DTP d   1      13.241 -12.771   0.899  0.00  0.00     0.043 H 
ATOM     10  H8  DTP d   1      12.883 -13.550   3.835  0.00  0.00     0.118 H 
ENDROOT
BRANCH   1  11
ATOM     11  C5' DTP d   1      15.747 -15.029   1.014  0.00  0.00     0.058 C 
ATOM     12  H1  DTP d   1      16.698 -15.231   1.529  0.00  0.00     0.079 H 
ATOM     13  H2  DTP d   1      15.588 -15.782   0.228  0.00  0.00     0.079 H 
BRANCH  11  14
ATOM     14  O5' DTP d   1      15.795 -13.712   0.416  0.00  0.00    -0.287 OA
BRANCH  14  15
ATOM     15  PA  DTP d   1      16.924 -13.381  -0.706  0.00  0.00     0.417 P 
ATOM     16  O1A DTP d   1      16.506 -12.096  -1.348  0.00  0.00    -0.624 OA
ATOM     17  O2A DTP d   1      18.290 -13.236  -0.061  0.00  0.00    -0.624 OA
BRANCH  15  18
ATOM     18  O3A DTP d   1      17.064 -14.539  -1.761  0.00  0.00    -0.180 OA
BRANCH  18  19
ATOM     19  PB  DTP d   1      16.095 -15.115  -2.868  0.00  0.00     0.428 P 
ATOM     20  O1B DTP d   1      16.298 -14.404  -4.157  0.00  0.00    -0.624 OA
ATOM     21  O2B DTP d   1      14.688 -14.980  -2.430  0.00  0.00    -0.624 OA
BRANCH  19  22
ATOM     22  O3B DTP d   1      16.570 -16.619  -3.002  0.00  0.00    -0.173 OA
BRANCH  22  23
ATOM     23  PG  DTP d   1      17.977 -17.199  -3.490  0.00  0.00     0.431 P 
ATOM     24  O1G DTP d   1      17.817 -17.612  -4.914  0.00  0.00    -0.616 OA
ATOM     25  O2G DTP d   1      19.069 -16.169  -3.424  0.00  0.00    -0.616 OA
ATOM     26  O3G DTP d   1      18.372 -18.319  -2.622  0.00  0.00    -0.616 OA
ENDBRANCH  22  23
ENDBRANCH  19  22
ENDBRANCH  18  19
ENDBRANCH  15  18
ENDBRANCH  14  15
ENDBRANCH  11  14
ENDBRANCH   1  11
BRANCH   3  27
ATOM     27  O3' DTP d   1      12.360 -15.747   2.109  0.00  0.00    -0.393 OA
ATOM     28  H5  DTP d   1      12.361 -15.489   3.023  0.00  0.00     0.210 HD
ENDBRANCH   3  27
BRANCH   5  29
ATOM     29  N9  DTP d   1      14.043 -11.882   3.308  0.00  0.00    -0.296 N 
ATOM     30  C8  DTP d   1      15.020 -11.249   2.653  0.00  0.00     0.070 A 
ATOM     31  N7  DTP d   1      15.255 -10.073   3.206  0.00  0.00    -0.236 NA
ATOM     32  H9  DTP d   1      15.547 -11.646   1.787  0.00  0.00     0.144 H 
ATOM     33  C5  DTP d   1      14.440  -9.954   4.249  0.00  0.00     0.149 A 
ATOM     34  C6  DTP d   1      14.213  -8.972   5.210  0.00  0.00     0.155 A 
ATOM     35  C4  DTP d   1      13.670 -11.111   4.310  0.00  0.00     0.167 A 
ATOM     36  N1  DTP d   1      13.282  -9.180   6.136  0.00  0.00    -0.222 NA
ATOM     37  C2  DTP d   1      12.574 -10.316   6.121  0.00  0.00     0.091 A 
ATOM     38  N3  DTP d   1      12.746 -11.296   5.246  0.00  0.00    -0.222 NA
ATOM     39  H12 DTP d   1      11.807 -10.443   6.877  0.00  0.00     0.146 H 
BRANCH  34  40
ATOM     40  N6  DTP d   1      14.919  -7.802   5.201  0.00  0.00    -0.382 N 
ATOM     41  H10 DTP d   1      14.739  -7.086   5.919  0.00  0.00     0.157 HD
ATOM     42  H11 DTP d   1      15.632  -7.636   4.476  0.00  0.00     0.157 HD
ENDBRANCH  34  40
ENDBRANCH   5  29
TORSDOF 10
