REMARK  7 active torsions:
REMARK  status: ('A' for Active; 'I' for Inactive)
REMARK    1  A    between atoms: C15_3  and  C18_22 
REMARK    2  A    between atoms: N1_9  and  C12_10 
REMARK    3  A    between atoms: C5_16  and  C4_15 
REMARK       I    between atoms: C4_15  and  N_20 
REMARK    4  A    between atoms: C6_17  and  C5_16 
REMARK    5  A    between atoms: C6_17  and  C7_18 
REMARK    6  A    between atoms: C18_22  and  N2_23 
REMARK    7  A    between atoms: N2_23  and  C19_24 
ROOT
ATOM      1  C8  5T0 d   1       9.108  26.048   2.328  0.00  0.00    -0.047 C 
ATOM      2  C10 5T0 d   1       8.212  27.821   4.509  0.00  0.00    -0.004 C 
ATOM      3  C9  5T0 d   1       7.726  25.827   2.942  0.00  0.00    -0.004 C 
ATOM      4  N1  5T0 d   1       7.270  26.965   3.762  0.00  0.00    -0.381 N 
ATOM      5  C11 5T0 d   1       9.436  28.142   3.650  0.00  0.00    -0.047 C 
ATOM      6  C7  5T0 d   1      10.116  26.867   3.124  0.00  0.00    -0.051 C 
ATOM      7  H5  5T0 d   1       8.961  26.556   1.363  0.00  0.00     0.035 H 
ATOM      8  H6  5T0 d   1       9.553  25.057   2.156  0.00  0.00     0.035 H 
ATOM      9  H7  5T0 d   1       8.536  27.295   5.419  0.00  0.00     0.064 H 
ATOM     10  H8  5T0 d   1       7.708  28.759   4.787  0.00  0.00     0.064 H 
ATOM     11  H9  5T0 d   1       7.764  24.930   3.578  0.00  0.00     0.064 H 
ATOM     12  H10 5T0 d   1       7.002  25.669   2.129  0.00  0.00     0.064 H 
ATOM     13  H11 5T0 d   1      10.159  28.706   4.257  0.00  0.00     0.035 H 
ATOM     14  H12 5T0 d   1       9.119  28.755   2.794  0.00  0.00     0.035 H 
ATOM     15  H20 5T0 d   1      10.548  26.297   3.960  0.00  0.00     0.040 H 
ENDROOT
BRANCH   4  16
ATOM     16  C12 5T0 d   1       5.874  27.118   3.945  0.00  0.00     0.030 A 
ATOM     17  C13 5T0 d   1       5.279  28.382   4.000  0.00  0.00    -0.057 A 
ATOM     18  C14 5T0 d   1       3.911  28.534   4.246  0.00  0.00    -0.073 A 
ATOM     19  H2  5T0 d   1       5.892  29.263   3.849  0.00  0.00     0.086 H 
ATOM     20  C15 5T0 d   1       3.113  27.401   4.434  0.00  0.00    -0.033 A 
ATOM     21  H1  5T0 d   1       3.472  29.524   4.291  0.00  0.00     0.084 H 
ATOM     22  C16 5T0 d   1       3.690  26.125   4.387  0.00  0.00    -0.073 A 
ATOM     23  C17 5T0 d   1       5.061  25.988   4.143  0.00  0.00    -0.057 A 
ATOM     24  H4  5T0 d   1       3.075  25.245   4.539  0.00  0.00     0.084 H 
ATOM     25  H3  5T0 d   1       5.502  24.998   4.106  0.00  0.00     0.086 H 
BRANCH  20  26
ATOM     26  C18 5T0 d   1       1.627  27.560   4.665  0.00  0.00     0.105 C 
ATOM     27  H22 5T0 d   1       1.092  26.758   4.136  0.00  0.00     0.083 H 
ATOM     28  H23 5T0 d   1       1.304  28.536   4.275  0.00  0.00     0.083 H 
BRANCH  26  29
ATOM     29  N2  5T0 d   1       1.317  27.486   6.078  0.00  0.00    -0.075 N 
ATOM     30  H24 5T0 d   1       0.562  28.133   6.244  0.00  0.00     0.277 HD
ATOM     31  H25 5T0 d   1       2.139  27.796   6.572  0.00  0.00     0.277 HD
BRANCH  29  32
ATOM     32  C19 5T0 d   1       0.922  26.220   6.675  0.00  0.00     0.065 C 
ATOM     33  H26 5T0 d   1       0.730  26.365   7.748  0.00  0.00     0.067 H 
ATOM     34  H27 5T0 d   1       1.730  25.485   6.543  0.00  0.00     0.067 H 
ATOM     35  H28 5T0 d   1       0.008  25.853   6.185  0.00  0.00     0.067 H 
ENDBRANCH  29  32
ENDBRANCH  26  29
ENDBRANCH  20  26
ENDBRANCH   4  16
BRANCH   6  36
ATOM     36  C6  5T0 d   1      11.160  27.176   2.054  0.00  0.00    -0.054 C 
ATOM     37  H18 5T0 d   1      11.409  26.231   1.550  0.00  0.00     0.034 H 
ATOM     38  H19 5T0 d   1      10.701  27.867   1.332  0.00  0.00     0.034 H 
BRANCH  36  39
ATOM     39  C5  5T0 d   1      12.468  27.805   2.527  0.00  0.00     0.010 C 
ATOM     40  H16 5T0 d   1      12.244  28.780   2.985  0.00  0.00     0.047 H 
ATOM     41  H17 5T0 d   1      12.926  27.143   3.277  0.00  0.00     0.047 H 
BRANCH  39  42
ATOM     42  C4  5T0 d   1      13.460  28.016   1.394  0.00  0.00     0.227 C 
ATOM     43  O   5T0 d   1      13.205  27.627   0.243  0.00  0.00    -0.273 OA
ATOM     44  N   5T0 d   1      14.602  28.679   1.668  0.00  0.00    -0.304 N 
ATOM     45  C3  5T0 d   1      15.537  29.102   0.617  0.00  0.00    -0.013 C 
ATOM     46  C   5T0 d   1      15.014  29.071   3.019  0.00  0.00    -0.013 C 
ATOM     47  C2  5T0 d   1      16.608  29.907   1.324  0.00  0.00    -0.066 C 
ATOM     48  H15 5T0 d   1      15.473  28.883  -0.448  0.00  0.00     0.112 H 
ATOM     49  C1  5T0 d   1      16.359  29.745   2.815  0.00  0.00    -0.066 C 
ATOM     50  H14 5T0 d   1      17.401  30.488   0.856  0.00  0.00     0.085 H 
ATOM     51  H13 5T0 d   1      17.035  30.061   3.608  0.00  0.00     0.085 H 
ATOM     52  H21 5T0 d   1      14.478  28.915   3.954  0.00  0.00     0.112 H 
ENDBRANCH  39  42
ENDBRANCH  36  39
ENDBRANCH   6  36
TORSDOF 7
