REMARK  5 active torsions:
REMARK  status: ('A' for Active; 'I' for Inactive)
REMARK       I    between atoms: N_1  and  C4_4 
REMARK    1  A    between atoms: C4_4  and  C5_8 
REMARK    2  A    between atoms: C5_8  and  C6_9 
REMARK    3  A    between atoms: C6_9  and  C7_10 
REMARK    4  A    between atoms: N1_13  and  C12_16 
REMARK    5  A    between atoms: C15_19  and  C18_22 
ROOT
ATOM      1  C7  5TG d   1      27.018  10.437  -3.061  0.00  0.00    -0.051 C 
ATOM      2  C11 5TG d   1      26.281   9.337  -2.349  0.00  0.00    -0.047 C 
ATOM      3  C10 5TG d   1      25.917   8.258  -3.373  0.00  0.00    -0.004 C 
ATOM      4  N1  5TG d   1      27.088   7.791  -4.099  0.00  0.00    -0.381 N 
ATOM      5  C9  5TG d   1      27.897   8.769  -4.791  0.00  0.00    -0.004 C 
ATOM      6  C8  5TG d   1      28.280   9.843  -3.735  0.00  0.00    -0.047 C 
ATOM      7  H13 5TG d   1      26.389  10.885  -3.844  0.00  0.00     0.040 H 
ATOM      8  H14 5TG d   1      25.365   9.739  -1.891  0.00  0.00     0.035 H 
ATOM      9  H15 5TG d   1      26.923   8.905  -1.567  0.00  0.00     0.035 H 
ATOM     10  H16 5TG d   1      25.195   8.676  -4.090  0.00  0.00     0.064 H 
ATOM     11  H17 5TG d   1      25.460   7.407  -2.847  0.00  0.00     0.064 H 
ATOM     12  H18 5TG d   1      27.323   9.227  -5.610  0.00  0.00     0.064 H 
ATOM     13  H19 5TG d   1      28.802   8.295  -5.198  0.00  0.00     0.064 H 
ATOM     14  H20 5TG d   1      28.914   9.380  -2.965  0.00  0.00     0.035 H 
ATOM     15  H21 5TG d   1      28.837  10.652  -4.231  0.00  0.00     0.035 H 
ENDROOT
BRANCH   1  16
ATOM     16  C6  5TG d   1      27.263  11.460  -1.971  0.00  0.00    -0.054 C 
ATOM     17  H11 5TG d   1      26.289  11.820  -1.607  0.00  0.00     0.034 H 
ATOM     18  H12 5TG d   1      27.803  10.969  -1.148  0.00  0.00     0.034 H 
BRANCH  16  19
ATOM     19  C5  5TG d   1      28.070  12.648  -2.427  0.00  0.00     0.010 C 
ATOM     20  H9  5TG d   1      29.073  12.318  -2.735  0.00  0.00     0.047 H 
ATOM     21  H10 5TG d   1      27.567  13.133  -3.276  0.00  0.00     0.047 H 
BRANCH  19  22
ATOM     22  C4  5TG d   1      28.187  13.624  -1.282  0.00  0.00     0.219 C 
ATOM     23  N   5TG d   1      28.863  14.699  -1.579  0.00  0.00    -0.352 N 
ATOM     24  C   5TG d   1      29.206  15.688  -0.552  0.00  0.00    -0.002 C 
ATOM     25  C3  5TG d   1      29.283  14.978  -2.962  0.00  0.00    -0.002 C 
ATOM     26  C1  5TG d   1      30.133  16.609  -1.310  0.00  0.00    -0.049 C 
ATOM     27  H1  5TG d   1      29.717  15.219   0.302  0.00  0.00     0.064 H 
ATOM     28  H2  5TG d   1      28.313  16.223  -0.196  0.00  0.00     0.064 H 
ATOM     29  C2  5TG d   1      29.998  16.327  -2.803  0.00  0.00    -0.049 C 
ATOM     30  H7  5TG d   1      31.171  16.431  -0.993  0.00  0.00     0.035 H 
ATOM     31  H8  5TG d   1      29.862  17.655  -1.106  0.00  0.00     0.035 H 
ATOM     32  H5  5TG d   1      29.408  17.122  -3.282  0.00  0.00     0.035 H 
ATOM     33  H6  5TG d   1      30.994  16.279  -3.267  0.00  0.00     0.035 H 
ATOM     34  H3  5TG d   1      28.417  15.060  -3.635  0.00  0.00     0.064 H 
ATOM     35  H4  5TG d   1      29.968  14.203  -3.337  0.00  0.00     0.064 H 
ATOM     36  O2  5TG d   1      27.730  13.369  -0.106  0.00  0.00    -0.273 OA
ENDBRANCH  19  22
ENDBRANCH  16  19
ENDBRANCH   1  16
BRANCH   4  37
ATOM     37  C12 5TG d   1      27.244   6.336  -4.054  0.00  0.00     0.030 A 
ATOM     38  C17 5TG d   1      28.315   5.662  -4.542  0.00  0.00    -0.057 A 
ATOM     39  C16 5TG d   1      28.359   4.251  -4.458  0.00  0.00    -0.075 A 
ATOM     40  H22 5TG d   1      29.137   6.204  -4.996  0.00  0.00     0.086 H 
ATOM     41  C15 5TG d   1      27.294   3.522  -3.879  0.00  0.00    -0.062 A 
ATOM     42  H23 5TG d   1      29.222   3.720  -4.843  0.00  0.00     0.084 H 
ATOM     43  C14 5TG d   1      26.186   4.197  -3.399  0.00  0.00    -0.075 A 
ATOM     44  C13 5TG d   1      26.209   5.594  -3.497  0.00  0.00    -0.057 A 
ATOM     45  H24 5TG d   1      25.342   3.671  -2.968  0.00  0.00     0.084 H 
ATOM     46  H25 5TG d   1      25.355   6.138  -3.109  0.00  0.00     0.086 H 
BRANCH  41  47
ATOM     47  C18 5TG d   1      27.332   2.002  -3.788  0.00  0.00    -0.051 C 
ATOM     48  H26 5TG d   1      28.277   1.633  -4.212  0.00  0.00     0.033 H 
ATOM     49  H27 5TG d   1      26.487   1.580  -4.352  0.00  0.00     0.033 H 
ATOM     50  H28 5TG d   1      27.259   1.696  -2.734  0.00  0.00     0.033 H 
ENDBRANCH  41  47
ENDBRANCH   4  37
TORSDOF 5
