REMARK  10 active torsions:
REMARK  status: ('A' for Active; 'I' for Inactive)
REMARK    1  A    between atoms: C18_13  and  C10_6 
REMARK    2  A    between atoms: C17_8  and  O25_18 
REMARK    3  A    between atoms: C20_9  and  O22_23 
REMARK    4  A    between atoms: C14_22  and  C21_10 
REMARK    5  A    between atoms: N15_24  and  C24_11 
REMARK    6  A    between atoms: O25_18  and  C26_12 
REMARK    7  A    between atoms: N8_15  and  C12_20 
REMARK    8  A    between atoms: N15_24  and  C16_17 
REMARK    9  A    between atoms: C14_22  and  N15_24 
REMARK   10  A    between atoms: O22_23  and  C23_26 
ROOT
ATOM      1  C13 5U6 d   1       5.861  -3.407   6.120  0.00  0.00    -0.040 A 
ATOM      2  C17 5U6 d   1       7.250  -3.470   6.015  0.00  0.00     0.080 A 
ATOM      3  C20 5U6 d   1       5.609  -4.537   4.000  0.00  0.00     0.077 A 
ATOM      4  C21 5U6 d   1       5.047  -3.906   5.115  0.00  0.00     0.004 A 
ATOM      5  C18 5U6 d   1       7.837  -4.089   4.886  0.00  0.00     0.012 A 
ATOM      6  C19 5U6 d   1       7.003  -4.604   3.880  0.00  0.00    -0.037 A 
ATOM      7  H2  5U6 d   1       5.411  -2.962   7.000  0.00  0.00     0.088 H 
ATOM      8  H18 5U6 d   1       7.443  -5.059   3.000  0.00  0.00     0.089 H 
ENDROOT
BRANCH   5   9
ATOM      9  C10 5U6 d   1       9.323  -4.201   4.778  0.00  0.00     0.004 A 
ATOM     10  C5  5U6 d   1       9.995  -5.511   4.610  0.00  0.00    -0.005 A 
ATOM     11  C6  5U6 d   1      11.421  -5.544   4.568  0.00  0.00     0.061 A 
ATOM     12  C1  5U6 d   1       9.310  -6.732   4.485  0.00  0.00    -0.054 A 
ATOM     13  C4  5U6 d   1      12.058  -6.781   4.387  0.00  0.00     0.018 A 
ATOM     14  C7  5U6 d   1      12.162  -4.275   4.698  0.00  0.00     0.259 A 
ATOM     15  N3  5U6 d   1      11.353  -7.899   4.274  0.00  0.00    -0.272 NA
ATOM     16  H1  5U6 d   1      13.140  -6.824   4.339  0.00  0.00     0.116 H 
ATOM     17  C2  5U6 d   1      10.022  -7.899   4.326  0.00  0.00     0.003 A 
ATOM     18  H10 5U6 d   1       9.488  -8.839   4.241  0.00  0.00     0.114 H 
ATOM     19  N8  5U6 d   1      11.467  -3.108   4.807  0.00  0.00    -0.327 N 
ATOM     20  O11 5U6 d   1      13.385  -4.282   4.688  0.00  0.00    -0.267 OA
ATOM     21  C9  5U6 d   1      10.098  -3.076   4.852  0.00  0.00    -0.006 A 
ATOM     22  H14 5U6 d   1       9.604  -2.111   4.951  0.00  0.00     0.113 H 
ATOM     23  H9  5U6 d   1       8.227  -6.754   4.514  0.00  0.00     0.087 H 
BRANCH  19  24
ATOM     24  C12 5U6 d   1      12.182  -1.835   4.946  0.00  0.00    -0.011 C 
ATOM     25  H15 5U6 d   1      13.266  -2.015   4.891  0.00  0.00     0.057 H 
ATOM     26  H16 5U6 d   1      11.935  -1.380   5.916  0.00  0.00     0.057 H 
ATOM     27  H17 5U6 d   1      11.882  -1.155   4.135  0.00  0.00     0.057 H 
ENDBRANCH  19  24
ENDBRANCH   5   9
BRANCH   2  28
ATOM     28  O25 5U6 d   1       8.023  -2.957   7.019  0.00  0.00    -0.355 OA
BRANCH  28  29
ATOM     29  C26 5U6 d   1       7.566  -1.819   7.753  0.00  0.00     0.010 C 
ATOM     30  H6  5U6 d   1       8.313  -1.550   8.514  0.00  0.00     0.066 H 
ATOM     31  H7  5U6 d   1       6.612  -2.059   8.244  0.00  0.00     0.066 H 
ATOM     32  H8  5U6 d   1       7.422  -0.973   7.065  0.00  0.00     0.066 H 
ENDBRANCH  28  29
ENDBRANCH   2  28
BRANCH   3  33
ATOM     33  O22 5U6 d   1       4.789  -5.014   3.007  0.00  0.00    -0.355 OA
BRANCH  33  34
ATOM     34  C23 5U6 d   1       5.110  -6.244   2.346  0.00  0.00     0.010 C 
ATOM     35  H22 5U6 d   1       4.345  -6.463   1.587  0.00  0.00     0.066 H 
ATOM     36  H23 5U6 d   1       5.139  -7.060   3.083  0.00  0.00     0.066 H 
ATOM     37  H24 5U6 d   1       6.093  -6.154   1.860  0.00  0.00     0.066 H 
ENDBRANCH  33  34
ENDBRANCH   3  33
BRANCH   4  38
ATOM     38  C14 5U6 d   1       3.548  -3.776   5.270  0.00  0.00     0.109 C 
ATOM     39  H19 5U6 d   1       3.319  -3.413   6.283  0.00  0.00     0.083 H 
ATOM     40  H20 5U6 d   1       3.081  -4.761   5.119  0.00  0.00     0.083 H 
BRANCH  38  41
ATOM     41  N15 5U6 d   1       3.009  -2.827   4.281  0.00  0.00    -0.075 N 
ATOM     42  H21 5U6 d   1       3.309  -3.131   3.368  0.00  0.00     0.279 HD
BRANCH  41  43
ATOM     43  C24 5U6 d   1       3.514  -1.462   4.488  0.00  0.00     0.066 C 
ATOM     44  H3  5U6 d   1       3.084  -0.793   3.728  0.00  0.00     0.068 H 
ATOM     45  H4  5U6 d   1       4.611  -1.460   4.401  0.00  0.00     0.068 H 
ATOM     46  H5  5U6 d   1       3.225  -1.112   5.490  0.00  0.00     0.068 H 
ENDBRANCH  41  43
BRANCH  41  47
ATOM     47  C16 5U6 d   1       1.537  -2.838   4.307  0.00  0.00     0.066 C 
ATOM     48  H11 5U6 d   1       1.175  -3.865   4.151  0.00  0.00     0.068 H 
ATOM     49  H12 5U6 d   1       1.151  -2.188   3.508  0.00  0.00     0.068 H 
ATOM     50  H13 5U6 d   1       1.185  -2.469   5.282  0.00  0.00     0.068 H 
ENDBRANCH  41  47
ENDBRANCH  38  41
ENDBRANCH   4  38
TORSDOF 10
