REMARK  4 active torsions:
REMARK  status: ('A' for Active; 'I' for Inactive)
REMARK    1  A    between atoms: C04_3  and  C02_2 
REMARK    2  A    between atoms: C08_6  and  C09_7 
REMARK    3  A    between atoms: C12_10  and  C13_11 
REMARK    4  A    between atoms: C13_11  and  C14_12 
ROOT
ATOM      1  C04 42O d   1       7.213   5.647  16.757  0.00  0.00     0.113 C 
ATOM      2  C05 42O d   1       6.896   6.219  18.134  0.00  0.00     0.011 C 
ATOM      3  C07 42O d   1       6.421   3.714  17.986  0.00  0.00     0.083 A 
ATOM      4  C08 42O d   1       5.909   2.435  18.091  0.00  0.00    -0.013 A 
ATOM      5  C12 42O d   1       5.642   1.709  16.865  0.00  0.00    -0.039 A 
ATOM      6  S06 42O d   1       6.835   4.815  19.276  0.00  0.00    -0.109 SA
ATOM      7  C24 42O d   1       5.892   2.282  15.675  0.00  0.00    -0.010 A 
ATOM      8  C25 42O d   1       6.415   3.589  15.532  0.00  0.00     0.249 A 
ATOM      9  O26 42O d   1       6.652   4.135  14.467  0.00  0.00    -0.268 OA
ATOM     10  N27 42O d   1       6.667   4.279  16.724  0.00  0.00    -0.292 N 
ATOM     11  H1  42O d   1       6.749   6.262  15.972  0.00  0.00     0.091 H 
ATOM     12  H2  42O d   1       5.925   6.736  18.116  0.00  0.00     0.053 H 
ATOM     13  H3  42O d   1       7.682   6.925  18.442  0.00  0.00     0.053 H 
ATOM     14  H18 42O d   1       5.681   1.710  14.773  0.00  0.00     0.092 H 
ENDROOT
BRANCH   5  15
ATOM     15  C13 42O d   1       5.083   0.310  16.965  0.00  0.00    -0.015 C 
ATOM     16  H9  42O d   1       4.452   0.231  17.863  0.00  0.00     0.047 H 
ATOM     17  H10 42O d   1       5.911  -0.411  17.033  0.00  0.00     0.047 H 
BRANCH  15  18
ATOM     18  C14 42O d   1       4.236   0.003  15.714  0.00  0.00    -0.043 A 
ATOM     19  C15 42O d   1       2.881   0.216  15.735  0.00  0.00    -0.076 A 
ATOM     20  C16 42O d   1       2.097  -0.058  14.607  0.00  0.00    -0.082 A 
ATOM     21  H11 42O d   1       2.412   0.600  16.634  0.00  0.00     0.084 H 
ATOM     22  C17 42O d   1       2.682  -0.553  13.440  0.00  0.00    -0.072 A 
ATOM     23  H12 42O d   1       1.028   0.116  14.640  0.00  0.00     0.083 H 
ATOM     24  C18 42O d   1       4.076  -0.780  13.398  0.00  0.00    -0.025 A 
ATOM     25  H13 42O d   1       2.070  -0.762  12.570  0.00  0.00     0.084 H 
ATOM     26  C19 42O d   1       4.689  -1.280  12.231  0.00  0.00    -0.072 A 
ATOM     27  C23 42O d   1       4.856  -0.498  14.546  0.00  0.00    -0.019 A 
ATOM     28  C20 42O d   1       6.066  -1.497  12.208  0.00  0.00    -0.082 A 
ATOM     29  H14 42O d   1       4.091  -1.495  11.353  0.00  0.00     0.084 H 
ATOM     30  C21 42O d   1       6.841  -1.221  13.337  0.00  0.00    -0.082 A 
ATOM     31  H15 42O d   1       6.537  -1.881  11.311  0.00  0.00     0.083 H 
ATOM     32  C22 42O d   1       6.249  -0.727  14.499  0.00  0.00    -0.072 A 
ATOM     33  H16 42O d   1       7.911  -1.392  13.310  0.00  0.00     0.083 H 
ATOM     34  H17 42O d   1       6.860  -0.518  15.370  0.00  0.00     0.084 H 
ENDBRANCH  15  18
ENDBRANCH   5  15
BRANCH   4  35
ATOM     35  C09 42O d   1       5.633   1.805  19.473  0.00  0.00    -0.025 A 
ATOM     36  C10 42O d   1       6.136   0.435  19.895  0.00  0.00    -0.057 A 
ATOM     37  C11 42O d   1       6.676   1.683  20.571  0.00  0.00    -0.057 A 
ATOM     38  H5  42O d   1       6.780  -0.147  19.219  0.00  0.00     0.034 H 
ATOM     39  H6  42O d   1       5.474  -0.247  20.448  0.00  0.00     0.034 H 
ATOM     40  H7  42O d   1       6.405   1.905  21.614  0.00  0.00     0.034 H 
ATOM     41  H8  42O d   1       7.711   2.005  20.385  0.00  0.00     0.034 H 
ATOM     42  H4  42O d   1       4.611   2.091  19.760  0.00  0.00     0.047 H 
ENDBRANCH   4  35
BRANCH   1  43
ATOM     43  C02 42O d   1       8.722   5.604  16.553  0.00  0.00     0.198 C 
ATOM     44  O01 42O d   1       9.131   4.655  15.828  0.00  0.00    -0.646 OA
ATOM     45  O03 42O d   1       9.525   6.438  17.056  0.00  0.00    -0.646 OA
ENDBRANCH   1  43
TORSDOF 4
