REMARK  17 active torsions:
REMARK  status: ('A' for Active; 'I' for Inactive)
REMARK    1  A    between atoms: N01_1  and  C02_2 
REMARK    2  A    between atoms: C02_2  and  C03_3 
REMARK    3  A    between atoms: C02_2  and  C06_6 
REMARK    4  A    between atoms: C02_2  and  C11_11 
REMARK    5  A    between atoms: C06_6  and  C07_7 
REMARK    6  A    between atoms: C07_7  and  C08_8 
REMARK    7  A    between atoms: C08_8  and  C09_9 
REMARK    8  A    between atoms: C09_9  and  N10_10 
REMARK    9  A    between atoms: C11_11  and  C12_12 
REMARK   10  A    between atoms: C12_12  and  C13_13 
REMARK   11  A    between atoms: C13_13  and  N14_14 
REMARK   12  A    between atoms: C13_13  and  C15_15 
REMARK   13  A    between atoms: C13_13  and  C20_20 
REMARK   14  A    between atoms: C15_15  and  C16_16 
REMARK   15  A    between atoms: C16_16  and  C17_17 
REMARK   16  A    between atoms: C17_17  and  C18_18 
REMARK   17  A    between atoms: C18_18  and  N19_19 
ROOT
ATOM      1  C11 3VN d   1      31.946 -12.216 -12.285  0.00  0.00    -0.021 C 
ATOM      2  H15 3VN d   1      31.344 -11.921 -11.413  0.00  0.00     0.037 H 
ATOM      3  H16 3VN d   1      32.102 -11.342 -12.935  0.00  0.00     0.037 H 
ENDROOT
BRANCH   1   4
ATOM      4  C02 3VN d   1      31.132 -13.193 -13.062  0.00  0.00     0.210 C 
BRANCH   4   5
ATOM      5  N01 3VN d   1      30.820 -14.321 -12.229  0.00  0.00    -0.060 N 
ATOM      6  H1  3VN d   1      31.673 -14.784 -11.958  0.00  0.00     0.275 HD
ATOM      7  H2  3VN d   1      30.236 -14.964 -12.740  0.00  0.00     0.275 HD
ATOM      8  H3  3VN d   1      30.332 -14.006 -11.405  0.00  0.00     0.275 HD
ENDBRANCH   4   5
BRANCH   4   9
ATOM      9  C03 3VN d   1      29.877 -12.503 -13.467  0.00  0.00     0.210 C 
ATOM     10  O04 3VN d   1      29.929 -11.337 -13.936  0.00  0.00    -0.646 OA
ATOM     11  O05 3VN d   1      28.767 -13.080 -13.331  0.00  0.00    -0.646 OA
ENDBRANCH   4   9
BRANCH   4  12
ATOM     12  C06 3VN d   1      31.903 -13.641 -14.262  0.00  0.00    -0.024 C 
ATOM     13  H4  3VN d   1      32.678 -14.337 -13.908  0.00  0.00     0.037 H 
ATOM     14  H5  3VN d   1      32.381 -12.748 -14.692  0.00  0.00     0.037 H 
BRANCH  12  15
ATOM     15  C07 3VN d   1      31.173 -14.324 -15.369  0.00  0.00    -0.061 C 
ATOM     16  H6  3VN d   1      30.947 -13.562 -16.130  0.00  0.00     0.033 H 
ATOM     17  H7  3VN d   1      30.233 -14.713 -14.949  0.00  0.00     0.033 H 
BRANCH  15  18
ATOM     18  C08 3VN d   1      31.850 -15.458 -16.065  0.00  0.00    -0.043 C 
ATOM     19  H8  3VN d   1      32.122 -16.201 -15.301  0.00  0.00     0.035 H 
ATOM     20  H9  3VN d   1      32.763 -15.062 -16.534  0.00  0.00     0.035 H 
BRANCH  18  21
ATOM     21  C09 3VN d   1      31.070 -16.164 -17.123  0.00  0.00     0.080 C 
ATOM     22  H10 3VN d   1      31.161 -15.571 -18.045  0.00  0.00     0.075 H 
ATOM     23  H11 3VN d   1      30.019 -16.177 -16.798  0.00  0.00     0.075 H 
BRANCH  21  24
ATOM     24  N10 3VN d   1      31.431 -17.518 -17.451  0.00  0.00    -0.079 N 
ATOM     25  H12 3VN d   1      30.822 -17.862 -18.177  0.00  0.00     0.274 HD
ATOM     26  H13 3VN d   1      31.339 -18.098 -16.632  0.00  0.00     0.274 HD
ATOM     27  H14 3VN d   1      32.385 -17.542 -17.774  0.00  0.00     0.274 HD
ENDBRANCH  21  24
ENDBRANCH  18  21
ENDBRANCH  15  18
ENDBRANCH  12  15
ENDBRANCH   4  12
ENDBRANCH   1   4
BRANCH   1  28
ATOM     28  C12 3VN d   1      33.288 -12.617 -11.769  0.00  0.00    -0.021 C 
ATOM     29  H17 3VN d   1      33.891 -12.947 -12.628  0.00  0.00     0.037 H 
ATOM     30  H18 3VN d   1      33.142 -13.460 -11.078  0.00  0.00     0.037 H 
BRANCH  28  31
ATOM     31  C13 3VN d   1      34.065 -11.570 -11.046  0.00  0.00     0.210 C 
BRANCH  31  32
ATOM     32  N14 3VN d   1      33.471 -11.331  -9.761  0.00  0.00    -0.060 N 
ATOM     33  H19 3VN d   1      33.998 -10.623  -9.274  0.00  0.00     0.275 HD
ATOM     34  H20 3VN d   1      33.478 -12.184  -9.224  0.00  0.00     0.275 HD
ATOM     35  H21 3VN d   1      32.521 -11.018  -9.883  0.00  0.00     0.275 HD
ENDBRANCH  31  32
BRANCH  31  36
ATOM     36  C15 3VN d   1      34.028 -10.318 -11.853  0.00  0.00    -0.024 C 
ATOM     37  H22 3VN d   1      32.969 -10.104 -12.062  0.00  0.00     0.037 H 
ATOM     38  H23 3VN d   1      34.552 -10.530 -12.796  0.00  0.00     0.037 H 
BRANCH  36  39
ATOM     39  C16 3VN d   1      34.623  -9.065 -11.299  0.00  0.00    -0.061 C 
ATOM     40  H24 3VN d   1      35.684  -9.265 -11.086  0.00  0.00     0.033 H 
ATOM     41  H25 3VN d   1      34.098  -8.832 -10.361  0.00  0.00     0.033 H 
BRANCH  39  42
ATOM     42  C17 3VN d   1      34.556  -7.852 -12.169  0.00  0.00    -0.043 C 
ATOM     43  H26 3VN d   1      34.362  -8.194 -13.196  0.00  0.00     0.035 H 
ATOM     44  H27 3VN d   1      35.539  -7.361 -12.125  0.00  0.00     0.035 H 
BRANCH  42  45
ATOM     45  C18 3VN d   1      33.526  -6.822 -11.839  0.00  0.00     0.080 C 
ATOM     46  H28 3VN d   1      33.838  -6.337 -10.902  0.00  0.00     0.075 H 
ATOM     47  H29 3VN d   1      32.575  -7.352 -11.678  0.00  0.00     0.075 H 
BRANCH  45  48
ATOM     48  N19 3VN d   1      33.275  -5.777 -12.796  0.00  0.00    -0.079 N 
ATOM     49  H30 3VN d   1      32.561  -5.160 -12.441  0.00  0.00     0.274 HD
ATOM     50  H31 3VN d   1      32.965  -6.184 -13.665  0.00  0.00     0.274 HD
ATOM     51  H32 3VN d   1      34.123  -5.255 -12.953  0.00  0.00     0.274 HD
ENDBRANCH  45  48
ENDBRANCH  42  45
ENDBRANCH  39  42
ENDBRANCH  36  39
ENDBRANCH  31  36
BRANCH  31  52
ATOM     52  C20 3VN d   1      35.479 -12.005 -10.882  0.00  0.00     0.210 C 
ATOM     53  O21 3VN d   1      36.231 -12.073 -11.891  0.00  0.00    -0.646 OA
ATOM     54  O22 3VN d   1      35.914 -12.302  -9.734  0.00  0.00    -0.646 OA
ENDBRANCH  31  52
ENDBRANCH  28  31
ENDBRANCH   1  28
TORSDOF 17
