REMARK  11 active torsions:
REMARK  status: ('A' for Active; 'I' for Inactive)
REMARK    1  A    between atoms: O3B_8  and  PG_1 
REMARK    2  A    between atoms: PB_5  and  O3B_8 
REMARK    3  A    between atoms: O3A_12  and  PB_5 
REMARK    4  A    between atoms: PA_9  and  O3A_12 
REMARK    5  A    between atoms: PA_9  and  O5'_13 
REMARK    6  A    between atoms: O5'_13  and  C5'_14 
REMARK    7  A    between atoms: C5'_14  and  C4'_15 
REMARK    8  A    between atoms: C3'_17  and  O3'_18 
REMARK    9  A    between atoms: C2'_19  and  O2'_20 
REMARK   10  A    between atoms: C1'_21  and  N9_22 
REMARK   11  A    between atoms: C6_26  and  N6_27 
ROOT
ATOM      1  C4' ATP d   1      18.003  -4.824   5.797  0.00  0.00     0.089 C 
ATOM      2  O4' ATP d   1      17.127  -5.765   5.137  0.00  0.00    -0.353 OA
ATOM      3  C3' ATP d   1      18.618  -5.571   6.976  0.00  0.00     0.091 C 
ATOM      4  C2' ATP d   1      18.280  -7.037   6.645  0.00  0.00     0.105 C 
ATOM      5  C1' ATP d   1      16.904  -6.842   5.988  0.00  0.00     0.139 C 
ATOM      6  H3  ATP d   1      17.428  -3.963   6.169  0.00  0.00     0.090 H 
ATOM      7  H4  ATP d   1      19.703  -5.410   7.052  0.00  0.00     0.091 H 
ATOM      8  H6  ATP d   1      18.996  -7.470   5.931  0.00  0.00     0.093 H 
ATOM      9  H8  ATP d   1      16.158  -6.576   6.751  0.00  0.00     0.122 H 
ENDROOT
BRANCH   1  10
ATOM     10  C5' ATP d   1      19.043  -4.328   4.788  0.00  0.00     0.058 C 
ATOM     11  H1  ATP d   1      19.735  -3.630   5.282  0.00  0.00     0.079 H 
ATOM     12  H2  ATP d   1      19.608  -5.183   4.388  0.00  0.00     0.079 H 
BRANCH  10  13
ATOM     13  O5' ATP d   1      18.359  -3.655   3.715  0.00  0.00    -0.287 OA
BRANCH  13  14
ATOM     14  PA  ATP d   1      19.054  -3.163   2.379  0.00  0.00     0.417 P 
ATOM     15  O1A ATP d   1      17.979  -2.503   1.577  0.00  0.00    -0.624 OA
ATOM     16  O2A ATP d   1      19.704  -4.365   1.721  0.00  0.00    -0.624 OA
BRANCH  14  17
ATOM     17  O3A ATP d   1      20.131  -2.127   3.000  0.00  0.00    -0.180 OA
BRANCH  17  18
ATOM     18  PB  ATP d   1      20.660  -0.688   2.474  0.00  0.00     0.428 P 
ATOM     19  O1B ATP d   1      20.608  -0.610   0.949  0.00  0.00    -0.624 OA
ATOM     20  O2B ATP d   1      22.054  -0.540   2.990  0.00  0.00    -0.624 OA
BRANCH  18  21
ATOM     21  O3B ATP d   1      19.599   0.250   3.200  0.00  0.00    -0.173 OA
BRANCH  21  22
ATOM     22  PG  ATP d   1      19.907   1.448   4.226  0.00  0.00     0.431 P 
ATOM     23  O1G ATP d   1      20.943   2.274   3.513  0.00  0.00    -0.616 OA
ATOM     24  O2G ATP d   1      18.587   2.157   4.470  0.00  0.00    -0.616 OA
ATOM     25  O3G ATP d   1      20.548   0.791   5.432  0.00  0.00    -0.616 OA
ENDBRANCH  21  22
ENDBRANCH  18  21
ENDBRANCH  17  18
ENDBRANCH  14  17
ENDBRANCH  13  14
ENDBRANCH  10  13
ENDBRANCH   1  10
BRANCH   3  26
ATOM     26  O3' ATP d   1      17.974  -5.157   8.156  0.00  0.00    -0.390 OA
ATOM     27  H5  ATP d   1      18.349  -5.616   8.898  0.00  0.00     0.210 HD
ENDBRANCH   3  26
BRANCH   5  28
ATOM     28  N9  ATP d   1      16.407  -8.054   5.255  0.00  0.00    -0.294 N 
ATOM     29  C8  ATP d   1      16.960  -8.658   4.178  0.00  0.00     0.071 A 
ATOM     30  N7  ATP d   1      16.216  -9.709   3.851  0.00  0.00    -0.236 NA
ATOM     31  H9  ATP d   1      17.865  -8.336   3.664  0.00  0.00     0.144 H 
ATOM     32  C5  ATP d   1      15.171  -9.777   4.676  0.00  0.00     0.149 A 
ATOM     33  C6  ATP d   1      14.058 -10.636   4.834  0.00  0.00     0.155 A 
ATOM     34  C4  ATP d   1      15.290  -8.715   5.597  0.00  0.00     0.167 A 
ATOM     35  N1  ATP d   1      13.175 -10.418   5.809  0.00  0.00    -0.222 NA
ATOM     36  C2  ATP d   1      13.320  -9.396   6.641  0.00  0.00     0.091 A 
ATOM     37  N3  ATP d   1      14.340  -8.564   6.541  0.00  0.00    -0.222 NA
ATOM     38  H12 ATP d   1      12.584  -9.240   7.421  0.00  0.00     0.146 H 
BRANCH  33  39
ATOM     39  N6  ATP d   1      13.901 -11.711   3.964  0.00  0.00    -0.382 N 
ATOM     40  H10 ATP d   1      13.095 -12.344   4.068  0.00  0.00     0.157 HD
ATOM     41  H11 ATP d   1      14.591 -11.873   3.216  0.00  0.00     0.157 HD
ENDBRANCH  33  39
ENDBRANCH   5  28
BRANCH   4  42
ATOM     42  O2' ATP d   1      18.277  -7.824   7.816  0.00  0.00    -0.388 OA
ATOM     43  H7  ATP d   1      18.067  -8.723   7.591  0.00  0.00     0.210 HD
ENDBRANCH   4  42
TORSDOF 11
