REMARK  4 active torsions:
REMARK  status: ('A' for Active; 'I' for Inactive)
REMARK       I    between atoms: C13_8  and  N1_1 
REMARK    1  A    between atoms: C4_2  and  C5_3 
REMARK    2  A    between atoms: C2_13  and  C7_5 
REMARK    3  A    between atoms: C10_7  and  C13_8 
REMARK    4  A    between atoms: N_17  and  C_18 
ROOT
ATOM      1  C4  5TU d   1      12.340  -5.361   4.884  0.00  0.00     0.007 A 
ATOM      2  C6  5TU d   1      13.087  -4.073   4.893  0.00  0.00     0.253 A 
ATOM      3  C2  5TU d   1      10.268  -4.111   4.689  0.00  0.00    -0.010 A 
ATOM      4  C1  5TU d   1      10.992  -2.907   4.706  0.00  0.00    -0.007 A 
ATOM      5  C3  5TU d   1      10.951  -5.329   4.796  0.00  0.00    -0.060 A 
ATOM      6  O   5TU d   1      14.337  -4.075   4.988  0.00  0.00    -0.267 OA
ATOM      7  N   5TU d   1      12.338  -2.866   4.806  0.00  0.00    -0.328 N 
ATOM      8  H10 5TU d   1      10.445  -1.968   4.636  0.00  0.00     0.113 H 
ATOM      9  H11 5TU d   1      10.389  -6.262   4.811  0.00  0.00     0.086 H 
ENDROOT
BRANCH   3  10
ATOM     10  C7  5TU d   1       8.770  -4.121   4.622  0.00  0.00    -0.025 A 
ATOM     11  C8  5TU d   1       8.018  -3.100   5.227  0.00  0.00    -0.071 A 
ATOM     12  C9  5TU d   1       6.618  -3.132   5.185  0.00  0.00    -0.067 A 
ATOM     13  H6  5TU d   1       8.524  -2.283   5.729  0.00  0.00     0.084 H 
ATOM     14  C10 5TU d   1       5.960  -4.194   4.551  0.00  0.00     0.031 A 
ATOM     15  H7  5TU d   1       6.044  -2.335   5.643  0.00  0.00     0.085 H 
ATOM     16  C11 5TU d   1       6.703  -5.224   3.960  0.00  0.00    -0.067 A 
ATOM     17  C12 5TU d   1       8.100  -5.185   3.997  0.00  0.00    -0.071 A 
ATOM     18  H8  5TU d   1       6.196  -6.050   3.475  0.00  0.00     0.085 H 
ATOM     19  H9  5TU d   1       8.671  -5.984   3.539  0.00  0.00     0.084 H 
BRANCH  14  20
ATOM     20  C13 5TU d   1       4.457  -4.239   4.513  0.00  0.00     0.249 C 
ATOM     21  N1  5TU d   1       3.837  -4.350   3.336  0.00  0.00    -0.366 N 
ATOM     22  H1  5TU d   1       2.838  -4.381   3.298  0.00  0.00     0.159 HD
ATOM     23  H2  5TU d   1       4.371  -4.402   2.492  0.00  0.00     0.159 HD
ATOM     24  O1  5TU d   1       3.830  -4.184   5.561  0.00  0.00    -0.268 OA
ENDBRANCH  14  20
ENDBRANCH   3  10
BRANCH   7  25
ATOM     25  C   5TU d   1      13.007  -1.560   4.808  0.00  0.00    -0.011 C 
ATOM     26  H12 5TU d   1      14.094  -1.705   4.895  0.00  0.00     0.057 H 
ATOM     27  H13 5TU d   1      12.647  -0.965   5.660  0.00  0.00     0.057 H 
ATOM     28  H14 5TU d   1      12.782  -1.031   3.870  0.00  0.00     0.057 H 
ENDBRANCH   7  25
BRANCH   1  29
ATOM     29  C5  5TU d   1      13.047  -6.685   4.975  0.00  0.00    -0.046 C 
ATOM     30  H3  5TU d   1      12.307  -7.498   4.951  0.00  0.00     0.033 H 
ATOM     31  H4  5TU d   1      13.615  -6.734   5.916  0.00  0.00     0.033 H 
ATOM     32  H5  5TU d   1      13.736  -6.792   4.125  0.00  0.00     0.033 H 
ENDBRANCH   1  29
TORSDOF 4
