REMARK  4 active torsions:
REMARK  status: ('A' for Active; 'I' for Inactive)
REMARK    1  A    between atoms: N6_10  and  C13_4 
REMARK    2  A    between atoms: N11_13  and  C15_5 
REMARK    3  A    between atoms: C3_8  and  N11_13 
REMARK    4  A    between atoms: N11_13  and  C14_15 
ROOT
ATOM      1  C5  5TY d   1     -24.858  -5.380 -10.641  0.00  0.00     0.094 A 
ATOM      2  C8  5TY d   1     -25.575  -4.115 -10.618  0.00  0.00    -0.038 A 
ATOM      3  C10 5TY d   1     -22.878  -6.653 -10.433  0.00  0.00     0.038 A 
ATOM      4  C1  5TY d   1     -23.472  -5.391 -10.429  0.00  0.00     0.080 A 
ATOM      5  C2  5TY d   1     -22.759  -4.118 -10.221  0.00  0.00     0.261 A 
ATOM      6  C3  5TY d   1     -24.869  -7.671 -10.845  0.00  0.00     0.724 A 
ATOM      7  N4  5TY d   1     -25.568  -6.509 -10.845  0.00  0.00    -0.062 NA
ATOM      8  N6  5TY d   1     -23.539  -2.959 -10.240  0.00  0.00    -0.328 N 
ATOM      9  N7  5TY d   1     -23.539  -7.796 -10.652  0.00  0.00    -0.074 NA
ATOM     10  C9  5TY d   1     -24.896  -2.980 -10.445  0.00  0.00    -0.015 A 
ATOM     11  O12 5TY d   1     -21.556  -4.048 -10.040  0.00  0.00    -0.267 OA
ATOM     12  H1  5TY d   1     -26.657  -4.095 -10.741  0.00  0.00     0.089 H 
ATOM     13  H2  5TY d   1     -21.812  -6.712 -10.247  0.00  0.00     0.117 H 
ATOM     14  H9  5TY d   1     -25.438  -2.036 -10.467  0.00  0.00     0.111 H 
ENDROOT
BRANCH   6  15
ATOM     15  N11 5TY d   1     -25.567  -8.811 -11.044  0.00  0.00    -0.223 N 
BRANCH  15  16
ATOM     16  C15 5TY d   1     -27.004  -8.794 -11.283  0.00  0.00    -0.003 C 
ATOM     17  H6  5TY d   1     -27.366  -9.824 -11.418  0.00  0.00     0.057 H 
ATOM     18  H7  5TY d   1     -27.218  -8.209 -12.190  0.00  0.00     0.057 H 
ATOM     19  H8  5TY d   1     -27.514  -8.336 -10.422  0.00  0.00     0.057 H 
ENDBRANCH  15  16
BRANCH  15  20
ATOM     20  C14 5TY d   1     -24.913 -10.111 -11.060  0.00  0.00    -0.003 C 
ATOM     21  H10 5TY d   1     -23.838  -9.983 -10.867  0.00  0.00     0.057 H 
ATOM     22  H11 5TY d   1     -25.056 -10.581 -12.044  0.00  0.00     0.057 H 
ATOM     23  H12 5TY d   1     -25.351 -10.752 -10.280  0.00  0.00     0.057 H 
ENDBRANCH  15  20
ENDBRANCH   6  15
BRANCH   8  24
ATOM     24  C13 5TY d   1     -22.851  -1.682 -10.045  0.00  0.00    -0.012 C 
ATOM     25  H3  5TY d   1     -23.583  -0.862 -10.084  0.00  0.00     0.057 H 
ATOM     26  H4  5TY d   1     -22.103  -1.544 -10.839  0.00  0.00     0.057 H 
ATOM     27  H5  5TY d   1     -22.350  -1.681  -9.066  0.00  0.00     0.057 H 
ENDBRANCH   8  24
TORSDOF 4
