REMARK  11 active torsions:
REMARK  status: ('A' for Active; 'I' for Inactive)
REMARK    1  A    between atoms: C3B_8  and  PG_1 
REMARK    2  A    between atoms: PB_5  and  C3B_8 
REMARK    3  A    between atoms: O3A_12  and  PB_5 
REMARK    4  A    between atoms: PA_9  and  O3A_12 
REMARK    5  A    between atoms: PA_9  and  O5'_13 
REMARK    6  A    between atoms: O5'_13  and  C5'_14 
REMARK    7  A    between atoms: C5'_14  and  C4'_15 
REMARK    8  A    between atoms: C3'_17  and  O3'_18 
REMARK    9  A    between atoms: C2'_19  and  O2'_20 
REMARK   10  A    between atoms: C1'_21  and  N9_22 
REMARK   11  A    between atoms: C6_26  and  N6_27 
ROOT
ATOM      1  C4' ACP d   1      17.926  -4.432   5.635  0.00  0.00     0.089 C 
ATOM      2  O4' ACP d   1      17.181  -5.413   4.902  0.00  0.00    -0.353 OA
ATOM      3  C3' ACP d   1      18.545  -5.157   6.846  0.00  0.00     0.091 C 
ATOM      4  C2' ACP d   1      18.284  -6.615   6.587  0.00  0.00     0.105 C 
ATOM      5  C1' ACP d   1      16.957  -6.470   5.826  0.00  0.00     0.139 C 
ATOM      6  H5  ACP d   1      17.258  -3.636   5.996  0.00  0.00     0.090 H 
ATOM      7  H6  ACP d   1      19.620  -4.941   6.936  0.00  0.00     0.091 H 
ATOM      8  H8  ACP d   1      19.058  -7.054   5.940  0.00  0.00     0.093 H 
ATOM      9  H10 ACP d   1      16.134  -6.239   6.518  0.00  0.00     0.122 H 
ENDROOT
BRANCH   1  10
ATOM     10  C5' ACP d   1      18.951  -3.823   4.692  0.00  0.00     0.058 C 
ATOM     11  H3  ACP d   1      19.633  -3.155   5.238  0.00  0.00     0.079 H 
ATOM     12  H4  ACP d   1      19.532  -4.610   4.189  0.00  0.00     0.079 H 
BRANCH  10  13
ATOM     13  O5' ACP d   1      18.178  -3.093   3.754  0.00  0.00    -0.287 OA
BRANCH  13  14
ATOM     14  PA  ACP d   1      18.761  -2.288   2.514  0.00  0.00     0.416 P 
ATOM     15  O1A ACP d   1      17.695  -1.783   1.607  0.00  0.00    -0.624 OA
ATOM     16  O2A ACP d   1      20.003  -2.909   1.903  0.00  0.00    -0.624 OA
BRANCH  14  17
ATOM     17  O3A ACP d   1      19.311  -0.991   3.283  0.00  0.00    -0.203 OA
BRANCH  17  18
ATOM     18  PB  ACP d   1      20.238   0.150   2.616  0.00  0.00     0.272 P 
ATOM     19  O1B ACP d   1      19.908   0.154   1.135  0.00  0.00    -0.646 OA
ATOM     20  O2B ACP d   1      21.690  -0.096   2.918  0.00  0.00    -0.646 OA
BRANCH  18  21
ATOM     21  C3B ACP d   1      19.638   1.685   3.403  0.00  0.00     0.134 C 
ATOM     22  H1  ACP d   1      18.582   1.538   3.675  0.00  0.00     0.073 H 
ATOM     23  H2  ACP d   1      20.231   1.855   4.314  0.00  0.00     0.073 H 
BRANCH  21  24
ATOM     24  PG  ACP d   1      19.752   3.192   2.363  0.00  0.00     0.271 P 
ATOM     25  O1G ACP d   1      18.655   2.954   1.362  0.00  0.00    -0.639 OA
ATOM     26  O2G ACP d   1      21.147   3.255   1.738  0.00  0.00    -0.639 OA
ATOM     27  O3G ACP d   1      19.569   4.308   3.382  0.00  0.00    -0.639 OA
ENDBRANCH  21  24
ENDBRANCH  18  21
ENDBRANCH  17  18
ENDBRANCH  14  17
ENDBRANCH  13  14
ENDBRANCH  10  13
ENDBRANCH   1  10
BRANCH   3  28
ATOM     28  O3' ACP d   1      17.869  -4.812   8.019  0.00  0.00    -0.390 OA
ATOM     29  H7  ACP d   1      18.262  -5.266   8.755  0.00  0.00     0.210 HD
ENDBRANCH   3  28
BRANCH   5  30
ATOM     30  N9  ACP d   1      16.647  -7.643   5.057  0.00  0.00    -0.294 N 
ATOM     31  C8  ACP d   1      17.382  -8.206   4.060  0.00  0.00     0.071 A 
ATOM     32  N7  ACP d   1      16.758  -9.309   3.621  0.00  0.00    -0.236 NA
ATOM     33  H11 ACP d   1      18.327  -7.822   3.679  0.00  0.00     0.144 H 
ATOM     34  C5  ACP d   1      15.599  -9.443   4.323  0.00  0.00     0.149 A 
ATOM     35  C6  ACP d   1      14.538 -10.383   4.335  0.00  0.00     0.155 A 
ATOM     36  C4  ACP d   1      15.547  -8.387   5.249  0.00  0.00     0.167 A 
ATOM     37  N1  ACP d   1      13.526 -10.182   5.231  0.00  0.00    -0.222 NA
ATOM     38  C2  ACP d   1      13.544  -9.125   6.082  0.00  0.00     0.091 A 
ATOM     39  N3  ACP d   1      14.517  -8.222   6.131  0.00  0.00    -0.222 NA
ATOM     40  H14 ACP d   1      12.711  -9.010   6.766  0.00  0.00     0.146 H 
BRANCH  35  41
ATOM     41  N6  ACP d   1      14.457 -11.458   3.497  0.00  0.00    -0.382 N 
ATOM     42  H12 ACP d   1      13.656 -12.102   3.561  0.00  0.00     0.157 HD
ATOM     43  H13 ACP d   1      15.197 -11.625   2.801  0.00  0.00     0.157 HD
ENDBRANCH  35  41
ENDBRANCH   5  30
BRANCH   4  44
ATOM     44  O2' ACP d   1      18.231  -7.380   7.795  0.00  0.00    -0.388 OA
ATOM     45  H9  ACP d   1      19.060  -7.306   8.252  0.00  0.00     0.210 HD
ENDBRANCH   4  44
TORSDOF 11
