REMARK WARNING: 32 MAX_TORS EXCEEDED!!!
REMARK  39 active torsions:
REMARK  status: ('A' for Active; 'I' for Inactive)
REMARK    1  A    between atoms: N_1  and  CA_2 
REMARK    2  A    between atoms: CA_2  and  C_3 
REMARK    3  A    between atoms: CA_2  and  CB_5 
REMARK       I    between atoms: C_3  and  N_7 
REMARK    4  A    between atoms: CB_5  and  OG_6 
REMARK    5  A    between atoms: N_7  and  CA_8 
REMARK    6  A    between atoms: CA_8  and  C_9 
REMARK    7  A    between atoms: CA_8  and  CB_11 
REMARK       I    between atoms: C_9  and  N_13 
REMARK    8  A    between atoms: CB_11  and  OG_12 
REMARK    9  A    between atoms: N_13  and  CA_14 
REMARK   10  A    between atoms: CA_14  and  C_15 
REMARK   11  A    between atoms: CA_14  and  CB_17 
REMARK       I    between atoms: C_15  and  N_20 
REMARK   12  A    between atoms: CB_17  and  OG1_18 
REMARK   13  A    between atoms: CB_17  and  CG2_19 
REMARK   14  A    between atoms: N_20  and  CA_21 
REMARK   15  A    between atoms: CA_21  and  C_22 
REMARK   16  A    between atoms: CA_21  and  CB_24 
REMARK       I    between atoms: C_22  and  N_29 
REMARK   17  A    between atoms: CB_24  and  CG1_25 
REMARK   18  A    between atoms: CB_24  and  CG2_26 
REMARK   19  A    between atoms: CG1_25  and  CD1_27 
REMARK   20  A    between atoms: CA_30  and  C_31 
REMARK   21  A    between atoms: CA_30  and  CB_33 
REMARK   22  A    between atoms: C_31  and  OXT_35 
REMARK   23  A    between atoms: CB_33  and  SG_34 
REMARK   24  A    between atoms: SG_34  and  C1_37 
REMARK   25  A    between atoms: OXT_35  and  C1_36 
REMARK   26  A    between atoms: C1_37  and  C2_38 
REMARK   27  A    between atoms: C2_38  and  C3_39 
REMARK   28  A    between atoms: C3_39  and  C5_40 
REMARK   29  A    between atoms: C3_39  and  C4_50 
REMARK   30  A    between atoms: C5_40  and  C6_41 
REMARK   31  A    between atoms: C6_41  and  C7_42 
REMARK   32  A    between atoms: C7_42  and  C8_43 
REMARK   33  A    between atoms: C8_43  and  C9_44 
REMARK   34  A    between atoms: C8_43  and  C10_51 
REMARK   35  A    between atoms: C9_44  and  C11_45 
REMARK   36  A    between atoms: C11_45  and  C12_46 
REMARK   37  A    between atoms: C12_46  and  C13_47 
REMARK   38  A    between atoms: C13_47  and  C14_48 
REMARK   39  A    between atoms: C13_47  and  C15_49 
ROOT
ATOM      1  C   ILE d   1      -4.530  14.194  12.323  0.00  0.00     0.249 C 
ATOM      2  O   ILE d   1      -3.424  13.736  12.495  0.00  0.00    -0.275 OA
ATOM      3  OXT ILE d   1      -4.628  15.369  12.592  0.00  0.00    -0.251 OA
ATOM      4  N   CMT d   1      -4.714  15.723  12.220  0.00  0.00    -0.076 NA
ATOM      5  CA  CMT d   1      -3.617  16.627  12.451  0.00  0.00     0.263 A 
ENDROOT
BRANCH   1   6
ATOM      6  CA  ILE d   1      -5.698  13.363  11.812  0.00  0.00     0.090 C 
ATOM      7  H21 ILE d   1      -6.047  12.720  12.634  0.00  0.00     0.087 H 
BRANCH   6   8
ATOM      8  N   ILE d   1      -6.865  14.219  11.409  0.00  0.00    -0.346 N 
ATOM      9  C   THR d   1      -8.071  14.072  11.998  0.00  0.00     0.243 C 
ATOM     10  O   THR d   1      -8.262  13.275  12.934  0.00  0.00    -0.271 OA
ATOM     11  H20 ILE d   1      -6.747  14.908  10.694  0.00  0.00     0.163 HD
BRANCH   9  12
ATOM     12  CA  THR d   1      -9.223  14.905  11.460  0.00  0.00     0.113 C 
ATOM     13  H14 THR d   1      -9.613  15.532  12.275  0.00  0.00     0.091 H 
BRANCH  12  14
ATOM     14  N   THR d   1      -8.777  15.798  10.359  0.00  0.00    -0.344 N 
ATOM     15  C   SER d   1      -8.371  17.033  10.580  0.00  0.00     0.243 C 
ATOM     16  O   SER d   1      -8.370  17.619  11.619  0.00  0.00    -0.271 OA
ATOM     17  H13 THR d   1      -8.785  15.451   9.421  0.00  0.00     0.163 HD
BRANCH  15  18
ATOM     18  CA  SER d   1      -7.860  17.742   9.322  0.00  0.00     0.109 C 
ATOM     19  H9  SER d   1      -8.277  17.245   8.433  0.00  0.00     0.090 H 
BRANCH  18  20
ATOM     20  N   SER d   1      -8.221  19.169   9.242  0.00  0.00    -0.344 N 
ATOM     21  C   SER d   1      -8.313  19.758   8.029  0.00  0.00     0.251 C 
ATOM     22  O   SER d   1      -8.285  19.085   6.963  0.00  0.00    -0.271 OA
ATOM     23  H8  SER d   1      -8.396  19.695  10.075  0.00  0.00     0.163 HD
BRANCH  21  24
ATOM     24  CA  SER d   1      -8.409  21.289   7.978  0.00  0.00     0.195 C 
ATOM     25  H4  SER d   1      -7.642  21.654   8.677  0.00  0.00     0.102 H 
BRANCH  24  26
ATOM     26  N   SER d   1      -8.026  21.875   6.614  0.00  0.00    -0.064 N 
ATOM     27  H1  SER d   1      -8.109  22.879   6.644  0.00  0.00     0.275 HD
ATOM     28  H2  SER d   1      -8.642  21.508   5.906  0.00  0.00     0.275 HD
ATOM     29  H3  SER d   1      -7.075  21.623   6.395  0.00  0.00     0.275 HD
ENDBRANCH  24  26
BRANCH  24  30
ATOM     30  CB  SER d   1      -9.761  21.830   8.527  0.00  0.00     0.051 C 
ATOM     31  H5  SER d   1      -9.797  22.919   8.374  0.00  0.00     0.077 H 
ATOM     32  H6  SER d   1      -9.823  21.608   9.603  0.00  0.00     0.077 H 
BRANCH  30  33
ATOM     33  OG  SER d   1     -10.860  21.242   7.877  0.00  0.00    -0.398 OA
ATOM     34  H7  SER d   1     -11.665  21.595   8.237  0.00  0.00     0.209 HD
ENDBRANCH  30  33
ENDBRANCH  24  30
ENDBRANCH  21  24
ENDBRANCH  18  20
BRANCH  18  35
ATOM     35  CB  SER d   1      -6.365  17.526   9.367  0.00  0.00     0.044 C 
ATOM     36  H10 SER d   1      -5.973  17.882  10.331  0.00  0.00     0.077 H 
ATOM     37  H11 SER d   1      -5.890  18.086   8.548  0.00  0.00     0.077 H 
BRANCH  35  38
ATOM     38  OG  SER d   1      -6.079  16.150   9.223  0.00  0.00    -0.398 OA
ATOM     39  H12 SER d   1      -6.418  15.843   8.390  0.00  0.00     0.209 HD
ENDBRANCH  35  38
ENDBRANCH  18  35
ENDBRANCH  15  18
ENDBRANCH  12  14
BRANCH  12  40
ATOM     40  CB  THR d   1     -10.349  13.959  10.979  0.00  0.00     0.060 C 
ATOM     41  H15 THR d   1     -10.623  13.311  11.825  0.00  0.00     0.086 H 
BRANCH  40  42
ATOM     42  OG1 THR d   1      -9.866  13.114   9.928  0.00  0.00    -0.393 OA
ATOM     43  H16 THR d   1      -9.576  13.651   9.200  0.00  0.00     0.210 HD
ENDBRANCH  40  42
BRANCH  40  44
ATOM     44  CG2 THR d   1     -11.595  14.721  10.578  0.00  0.00    -0.050 C 
ATOM     45  H17 THR d   1     -12.367  14.012  10.244  0.00  0.00     0.031 H 
ATOM     46  H18 THR d   1     -11.354  15.413   9.758  0.00  0.00     0.031 H 
ATOM     47  H19 THR d   1     -11.970  15.291  11.441  0.00  0.00     0.031 H 
ENDBRANCH  40  44
ENDBRANCH  12  40
ENDBRANCH   9  12
ENDBRANCH   6   8
BRANCH   6  48
ATOM     48  CB  ILE d   1      -5.167  12.465  10.725  0.00  0.00    -0.030 C 
ATOM     49  H22 ILE d   1      -4.358  11.856  11.154  0.00  0.00     0.043 H 
BRANCH  48  50
ATOM     50  CG1 ILE d   1      -4.558  13.283   9.555  0.00  0.00    -0.063 C 
ATOM     51  H23 ILE d   1      -4.086  14.188   9.964  0.00  0.00     0.033 H 
ATOM     52  H24 ILE d   1      -5.366  13.570   8.866  0.00  0.00     0.033 H 
BRANCH  50  53
ATOM     53  CD1 ILE d   1      -3.537  12.511   8.800  0.00  0.00    -0.076 C 
ATOM     54  H28 ILE d   1      -3.137  13.132   7.985  0.00  0.00     0.027 H 
ATOM     55  H29 ILE d   1      -3.999  11.606   8.379  0.00  0.00     0.027 H 
ATOM     56  H30 ILE d   1      -2.719  12.224   9.477  0.00  0.00     0.027 H 
ENDBRANCH  50  53
ENDBRANCH  48  50
BRANCH  48  57
ATOM     57  CG2 ILE d   1      -6.272  11.512  10.264  0.00  0.00    -0.071 C 
ATOM     58  H25 ILE d   1      -6.666  10.961  11.131  0.00  0.00     0.028 H 
ATOM     59  H26 ILE d   1      -5.861  10.801   9.533  0.00  0.00     0.028 H 
ATOM     60  H27 ILE d   1      -7.084  12.090   9.798  0.00  0.00     0.028 H 
ENDBRANCH  48  57
ENDBRANCH   6  48
ENDBRANCH   1   6
BRANCH   5  61
ATOM     61  C   CMT d   1      -4.272  17.806  13.175  0.00  0.00     0.314 C 
ATOM     62  O   CMT d   1      -5.177  18.465  12.653  0.00  0.00    -0.260 OA
BRANCH  61  63
ATOM     63  OXT CMT d   1      -3.859  17.934  14.434  0.00  0.00    -0.323 OA
BRANCH  63  64
ATOM     64  C1  CMT d   1      -4.803  18.627  15.278  0.00  0.00     0.013 C 
ATOM     65  H33 ILE d   1      -4.400  18.697  16.299  0.00  0.00     0.067 H 
ATOM     66  H34 ILE d   1      -5.753  18.074  15.296  0.00  0.00     0.067 H 
ATOM     67  H35 ILE d   1      -4.975  19.639  14.882  0.00  0.00     0.067 H 
ENDBRANCH  63  64
ENDBRANCH  61  63
ENDBRANCH   5  61
BRANCH   5  68
ATOM     68  CB  CMT d   1      -2.998  16.996  11.072  0.00  0.00     0.032 C 
ATOM     69  H31 ILE d   1      -3.778  17.357  10.386  0.00  0.00     0.056 H 
ATOM     70  H32 ILE d   1      -2.497  16.122  10.630  0.00  0.00     0.056 H 
BRANCH  68  71
ATOM     71  SG  CMT d   1      -1.805  18.299  11.406  0.00  0.00    -0.164 SA
BRANCH  71  72
ATOM     72  C1  FAR d   1      -0.492  17.084  11.728  0.00  0.00    -0.023 C 
ATOM     73  H36 ILE d   1      -0.883  16.273  12.361  0.00  0.00     0.049 H 
ATOM     74  H37 ILE d   1       0.350  17.574  12.239  0.00  0.00     0.049 H 
BRANCH  72  75
ATOM     75  C2  FAR d   1      -0.031  16.524  10.415  0.00  0.00    -0.054 C 
ATOM     76  H38 ILE d   1       0.857  17.102  10.118  0.00  0.00     0.034 H 
ATOM     77  H39 ILE d   1      -0.842  16.700   9.693  0.00  0.00     0.034 H 
BRANCH  75  78
ATOM     78  C3  FAR d   1       0.340  15.074  10.304  0.00  0.00    -0.057 C 
ATOM     79  H40 ILE d   1       1.336  15.257  10.733  0.00  0.00     0.039 H 
BRANCH  78  80
ATOM     80  C5  FAR d   1       0.943  14.516   9.002  0.00  0.00    -0.062 C 
ATOM     81  H41 ILE d   1       0.139  14.066   8.400  0.00  0.00     0.033 H 
ATOM     82  H42 ILE d   1       1.687  13.746   9.254  0.00  0.00     0.033 H 
BRANCH  80  83
ATOM     83  C6  FAR d   1       1.633  15.629   8.169  0.00  0.00    -0.064 C 
ATOM     84  H43 ILE d   1       2.291  16.220   8.824  0.00  0.00     0.033 H 
ATOM     85  H44 ILE d   1       0.866  16.285   7.731  0.00  0.00     0.033 H 
BRANCH  83  86
ATOM     86  C7  FAR d   1       2.468  14.999   7.043  0.00  0.00    -0.062 C 
ATOM     87  H45 ILE d   1       2.763  15.817   6.370  0.00  0.00     0.033 H 
ATOM     88  H46 ILE d   1       1.806  14.303   6.507  0.00  0.00     0.033 H 
BRANCH  86  89
ATOM     89  C8  FAR d   1       3.739  14.226   7.382  0.00  0.00    -0.058 C 
ATOM     90  H47 ILE d   1       3.148  13.309   7.522  0.00  0.00     0.039 H 
BRANCH  89  91
ATOM     91  C9  FAR d   1       4.628  13.539   6.340  0.00  0.00    -0.062 C 
ATOM     92  H48 ILE d   1       4.488  12.454   6.456  0.00  0.00     0.033 H 
ATOM     93  H49 ILE d   1       5.670  13.802   6.575  0.00  0.00     0.033 H 
BRANCH  91  94
ATOM     94  C11 FAR d   1       4.397  13.873   4.858  0.00  0.00    -0.064 C 
ATOM     95  H50 ILE d   1       3.343  13.677   4.614  0.00  0.00     0.033 H 
ATOM     96  H51 ILE d   1       5.042  13.225   4.247  0.00  0.00     0.033 H 
BRANCH  94  97
ATOM     97  C12 FAR d   1       4.706  15.299   4.531  0.00  0.00    -0.062 C 
ATOM     98  H52 ILE d   1       5.338  15.679   5.347  0.00  0.00     0.033 H 
ATOM     99  H53 ILE d   1       3.746  15.837   4.529  0.00  0.00     0.033 H 
BRANCH  97 100
ATOM    100  C13 FAR d   1       5.409  15.660   3.232  0.00  0.00    -0.061 C 
ATOM    101  H54 ILE d   1       6.386  15.631   3.737  0.00  0.00     0.038 H 
BRANCH 100 102
ATOM    102  C14 FAR d   1       5.545  17.104   2.964  0.00  0.00    -0.073 C 
ATOM    103  H55 ILE d   1       6.064  17.252   2.006  0.00  0.00     0.028 H 
ATOM    104  H56 ILE d   1       6.125  17.574   3.772  0.00  0.00     0.028 H 
ATOM    105  H57 ILE d   1       4.547  17.563   2.915  0.00  0.00     0.028 H 
ENDBRANCH 100 102
BRANCH 100 106
ATOM    106  C15 FAR d   1       5.915  14.635   2.209  0.00  0.00    -0.073 C 
ATOM    107  H58 ILE d   1       5.726  13.618   2.584  0.00  0.00     0.028 H 
ATOM    108  H59 ILE d   1       6.995  14.774   2.054  0.00  0.00     0.028 H 
ATOM    109  H60 ILE d   1       5.386  14.777   1.255  0.00  0.00     0.028 H 
ENDBRANCH 100 106
ENDBRANCH  97 100
ENDBRANCH  94  97
ENDBRANCH  91  94
ENDBRANCH  89  91
BRANCH  89 110
ATOM    110  C10 FAR d   1       4.261  14.169   8.796  0.00  0.00    -0.073 C 
ATOM    111  H64 ILE d   1       3.559  14.686   9.467  0.00  0.00     0.028 H 
ATOM    112  H65 ILE d   1       5.244  14.661   8.844  0.00  0.00     0.028 H 
ATOM    113  H66 ILE d   1       4.361  13.119   9.108  0.00  0.00     0.028 H 
ENDBRANCH  89 110
ENDBRANCH  86  89
ENDBRANCH  83  86
ENDBRANCH  80  83
ENDBRANCH  78  80
BRANCH  78 114
ATOM    114  C4  FAR d   1      -0.024  14.131  11.401  0.00  0.00    -0.073 C 
ATOM    115  H61 ILE d   1      -0.437  14.697  12.249  0.00  0.00     0.028 H 
ATOM    116  H62 ILE d   1       0.873  13.584  11.727  0.00  0.00     0.028 H 
ATOM    117  H63 ILE d   1      -0.776  13.416  11.036  0.00  0.00     0.028 H 
ENDBRANCH  78 114
ENDBRANCH  75  78
ENDBRANCH  72  75
ENDBRANCH  71  72
ENDBRANCH  68  71
ENDBRANCH   5  68
TORSDOF 39
