REMARK  13 active torsions:
REMARK  status: ('A' for Active; 'I' for Inactive)
REMARK    1  A    between atoms: C10_1  and  N11_17 
REMARK    2  A    between atoms: N14_19  and  C15_3 
REMARK    3  A    between atoms: N22_24  and  C21_5 
REMARK    4  A    between atoms: S27_28  and  C28_7 
REMARK    5  A    between atoms: C28_7  and  C29_29 
REMARK    6  A    between atoms: C28_7  and  C30_30 
REMARK    7  A    between atoms: C28_7  and  C31_31 
REMARK    8  A    between atoms: C02_9  and  C01_8 
REMARK    9  A    between atoms: C05_12  and  N06_13 
REMARK   10  A    between atoms: N06_13  and  C07_14 
REMARK   11  A    between atoms: C23_25  and  N22_24 
REMARK   12  A    between atoms: N26_27  and  C25_26 
REMARK   13  A    between atoms: N26_27  and  S27_28 
ROOT
ATOM      1  C21 5VY d   1      62.941  76.349  77.219  0.00  0.00     0.154 A 
ATOM      2  C02 5VY d   1      63.780  75.326  76.725  0.00  0.00     0.003 A 
ATOM      3  C03 5VY d   1      65.098  75.300  77.214  0.00  0.00     0.030 A 
ATOM      4  N04 5VY d   1      65.536  76.209  78.088  0.00  0.00    -0.074 NA
ATOM      5  C05 5VY d   1      64.743  77.179  78.583  0.00  0.00     0.728 A 
ATOM      6  N20 5VY d   1      63.465  77.221  78.142  0.00  0.00    -0.044 NA
ATOM      7  H12 5VY d   1      65.774  74.524  76.874  0.00  0.00     0.116 H 
ENDROOT
BRANCH   5   8
ATOM      8  N06 5VY d   1      65.218  78.059  79.503  0.00  0.00    -0.188 N 
ATOM      9  H13 5VY d   1      66.196  77.893  79.782  0.00  0.00     0.184 HD
BRANCH   8  10
ATOM     10  C07 5VY d   1      64.629  79.126  80.125  0.00  0.00     0.049 A 
ATOM     11  C08 5VY d   1      63.333  79.616  79.862  0.00  0.00    -0.054 A 
ATOM     12  C09 5VY d   1      62.841  80.743  80.550  0.00  0.00    -0.055 A 
ATOM     13  H14 5VY d   1      62.711  79.122  79.125  0.00  0.00     0.087 H 
ATOM     14  C10 5VY d   1      63.601  81.414  81.535  0.00  0.00     0.030 A 
ATOM     15  H15 5VY d   1      61.847  81.107  80.316  0.00  0.00     0.087 H 
ATOM     16  C18 5VY d   1      64.903  80.919  81.790  0.00  0.00    -0.055 A 
ATOM     17  C19 5VY d   1      65.404  79.789  81.100  0.00  0.00    -0.054 A 
ATOM     18  H21 5VY d   1      65.526  81.414  82.526  0.00  0.00     0.087 H 
ATOM     19  H22 5VY d   1      66.401  79.427  81.325  0.00  0.00     0.087 H 
BRANCH  14  20
ATOM     20  N11 5VY d   1      63.070  82.527  82.177  0.00  0.00    -0.378 N 
ATOM     21  C17 5VY d   1      63.961  83.188  83.118  0.00  0.00     0.018 C 
ATOM     22  C16 5VY d   1      63.424  84.478  83.786  0.00  0.00     0.098 C 
ATOM     23  H6  5VY d   1      64.883  83.450  82.578  0.00  0.00     0.066 H 
ATOM     24  H7  5VY d   1      64.195  82.470  83.918  0.00  0.00     0.066 H 
ATOM     25  N14 5VY d   1      62.053  84.827  83.333  0.00  0.00    -0.072 N 
ATOM     26  H19 5VY d   1      64.099  85.310  83.539  0.00  0.00     0.078 H 
ATOM     27  H20 5VY d   1      63.408  84.330  84.876  0.00  0.00     0.078 H 
ATOM     28  C13 5VY d   1      61.806  84.723  81.869  0.00  0.00     0.098 C 
ATOM     29  H18 5VY d   1      61.481  84.094  83.724  0.00  0.00     0.279 HD
ATOM     30  C12 5VY d   1      62.258  83.360  81.307  0.00  0.00     0.018 C 
ATOM     31  H1  5VY d   1      60.730  84.847  81.680  0.00  0.00     0.078 H 
ATOM     32  H2  5VY d   1      62.362  85.522  81.356  0.00  0.00     0.078 H 
ATOM     33  H16 5VY d   1      62.840  83.553  80.394  0.00  0.00     0.066 H 
ATOM     34  H17 5VY d   1      61.353  82.790  81.051  0.00  0.00     0.066 H 
BRANCH  25  35
ATOM     35  C15 5VY d   1      61.513  86.065  83.939  0.00  0.00     0.066 C 
ATOM     36  H3  5VY d   1      61.733  86.072  85.017  0.00  0.00     0.068 H 
ATOM     37  H4  5VY d   1      60.424  86.103  83.786  0.00  0.00     0.068 H 
ATOM     38  H5  5VY d   1      61.981  86.940  83.464  0.00  0.00     0.068 H 
ENDBRANCH  25  35
ENDBRANCH  14  20
ENDBRANCH   8  10
ENDBRANCH   5   8
BRANCH   1  39
ATOM     39  N22 5VY d   1      61.637  76.456  76.820  0.00  0.00    -0.340 N 
ATOM     40  H23 5VY d   1      61.319  75.773  76.118  0.00  0.00     0.167 HD
BRANCH  39  41
ATOM     41  C23 5VY d   1      60.700  77.369  77.247  0.00  0.00     0.035 A 
ATOM     42  C24 5VY d   1      59.788  78.008  76.399  0.00  0.00    -0.031 A 
ATOM     43  C25 5VY d   1      58.848  78.919  76.890  0.00  0.00     0.044 A 
ATOM     44  H8  5VY d   1      59.811  77.791  75.337  0.00  0.00     0.090 H 
ATOM     45  C34 5VY d   1      58.804  79.203  78.273  0.00  0.00    -0.057 A 
ATOM     46  C35 5VY d   1      59.694  78.560  79.151  0.00  0.00    -0.079 A 
ATOM     47  H34 5VY d   1      58.084  79.917  78.657  0.00  0.00     0.086 H 
ATOM     48  C36 5VY d   1      60.631  77.656  78.638  0.00  0.00    -0.057 A 
ATOM     49  H35 5VY d   1      59.655  78.763  80.215  0.00  0.00     0.083 H 
ATOM     50  H36 5VY d   1      61.319  77.164  79.316  0.00  0.00     0.086 H 
BRANCH  43  51
ATOM     51  N26 5VY d   1      57.958  79.563  76.101  0.00  0.00    -0.284 N 
ATOM     52  H24 5VY d   1      57.100  79.849  76.528  0.00  0.00     0.178 HD
BRANCH  51  53
ATOM     53  S27 5VY d   1      58.155  79.934  74.456  0.00  0.00     0.238 S 
ATOM     54  O32 5VY d   1      59.668  79.779  74.006  0.00  0.00    -0.205 OA
ATOM     55  O33 5VY d   1      57.545  81.378  74.256  0.00  0.00    -0.205 OA
BRANCH  53  56
ATOM     56  C28 5VY d   1      57.055  78.783  73.560  0.00  0.00     0.072 C 
BRANCH  56  57
ATOM     57  C29 5VY d   1      57.625  77.344  73.760  0.00  0.00    -0.055 C 
ATOM     58  H25 5VY d   1      56.986  76.620  73.233  0.00  0.00     0.029 H 
ATOM     59  H26 5VY d   1      57.644  77.103  74.833  0.00  0.00     0.029 H 
ATOM     60  H27 5VY d   1      58.647  77.295  73.355  0.00  0.00     0.029 H 
ENDBRANCH  56  57
BRANCH  56  61
ATOM     61  C30 5VY d   1      55.613  78.931  74.137  0.00  0.00    -0.055 C 
ATOM     62  H28 5VY d   1      54.935  78.245  73.609  0.00  0.00     0.029 H 
ATOM     63  H29 5VY d   1      55.267  79.966  73.999  0.00  0.00     0.029 H 
ATOM     64  H30 5VY d   1      55.620  78.687  75.210  0.00  0.00     0.029 H 
ENDBRANCH  56  61
BRANCH  56  65
ATOM     65  C31 5VY d   1      57.169  79.286  72.098  0.00  0.00    -0.055 C 
ATOM     66  H31 5VY d   1      56.540  78.662  71.446  0.00  0.00     0.029 H 
ATOM     67  H32 5VY d   1      58.216  79.221  71.769  0.00  0.00     0.029 H 
ATOM     68  H33 5VY d   1      56.831  80.331  72.043  0.00  0.00     0.029 H 
ENDBRANCH  56  65
ENDBRANCH  53  56
ENDBRANCH  51  53
ENDBRANCH  43  51
ENDBRANCH  39  41
ENDBRANCH   1  39
BRANCH   2  69
ATOM     69  C01 5VY d   1      63.347  74.304  75.724  0.00  0.00    -0.046 C 
ATOM     70  H9  5VY d   1      64.185  73.625  75.508  0.00  0.00     0.033 H 
ATOM     71  H10 5VY d   1      63.035  74.808  74.797  0.00  0.00     0.033 H 
ATOM     72  H11 5VY d   1      62.503  73.728  76.130  0.00  0.00     0.033 H 
ENDBRANCH   2  69
TORSDOF 13
