REMARK  13 active torsions:
REMARK  status: ('A' for Active; 'I' for Inactive)
REMARK    1  A    between atoms: C15_2  and  N16_21 
REMARK    2  A    between atoms: N16_21  and  C17_3 
REMARK    3  A    between atoms: C22_5  and  N23_25 
REMARK    4  A    between atoms: N23_25  and  C24_6 
REMARK    5  A    between atoms: C03_10  and  N04_11 
REMARK    6  A    between atoms: N04_11  and  S05_12 
REMARK    7  A    between atoms: S05_12  and  C06_13 
REMARK    8  A    between atoms: C06_13  and  C07_14 
REMARK    9  A    between atoms: C06_13  and  C08_15 
REMARK   10  A    between atoms: C06_13  and  C09_16 
REMARK   11  A    between atoms: C18_22  and  C19_23 
REMARK   12  A    between atoms: C27_27  and  N28_28 
REMARK   13  A    between atoms: N31_31  and  C32_32 
ROOT
ATOM      1  C17 5VZ d   1      12.794  39.070  78.947  0.00  0.00     0.154 A 
ATOM      2  C20 5VZ d   1      14.888  40.193  79.210  0.00  0.00     0.030 A 
ATOM      3  C22 5VZ d   1      14.689  38.419  77.677  0.00  0.00     0.728 A 
ATOM      4  C18 5VZ d   1      13.541  40.075  79.598  0.00  0.00     0.003 A 
ATOM      5  N21 5VZ d   1      15.417  39.388  78.268  0.00  0.00    -0.074 NA
ATOM      6  N37 5VZ d   1      13.398  38.265  78.040  0.00  0.00    -0.044 NA
ATOM      7  H2  5VZ d   1      15.512  40.946  79.678  0.00  0.00     0.116 H 
ENDROOT
BRANCH   3   8
ATOM      8  N23 5VZ d   1      15.268  37.627  76.747  0.00  0.00    -0.188 N 
ATOM      9  H20 5VZ d   1      16.264  37.835  76.586  0.00  0.00     0.184 HD
BRANCH   8  10
ATOM     10  C24 5VZ d   1      14.790  36.610  75.984  0.00  0.00     0.049 A 
ATOM     11  C25 5VZ d   1      13.528  36.019  76.101  0.00  0.00    -0.054 A 
ATOM     12  C26 5VZ d   1      13.157  34.956  75.234  0.00  0.00    -0.055 A 
ATOM     13  H21 5VZ d   1      12.832  36.372  76.854  0.00  0.00     0.087 H 
ATOM     14  C27 5VZ d   1      14.054  34.437  74.271  0.00  0.00     0.030 A 
ATOM     15  H3  5VZ d   1      12.162  34.532  75.312  0.00  0.00     0.087 H 
ATOM     16  C35 5VZ d   1      15.324  35.025  74.180  0.00  0.00    -0.055 A 
ATOM     17  C36 5VZ d   1      15.689  36.081  75.025  0.00  0.00    -0.054 A 
ATOM     18  H34 5VZ d   1      16.032  34.658  73.446  0.00  0.00     0.087 H 
ATOM     19  H35 5VZ d   1      16.684  36.504  74.943  0.00  0.00     0.087 H 
BRANCH  14  20
ATOM     20  N28 5VZ d   1      13.689  33.401  73.428  0.00  0.00    -0.378 N 
ATOM     21  C29 5VZ d   1      14.700  32.429  73.042  0.00  0.00     0.018 C 
ATOM     22  C30 5VZ d   1      14.207  31.278  72.125  0.00  0.00     0.098 C 
ATOM     23  H22 5VZ d   1      15.106  31.980  73.960  0.00  0.00     0.066 H 
ATOM     24  H23 5VZ d   1      15.500  32.965  72.511  0.00  0.00     0.066 H 
ATOM     25  N31 5VZ d   1      12.790  31.471  71.716  0.00  0.00    -0.072 N 
ATOM     26  H24 5VZ d   1      14.295  30.326  72.669  0.00  0.00     0.078 H 
ATOM     27  H25 5VZ d   1      14.837  31.245  71.224  0.00  0.00     0.078 H 
ATOM     28  C33 5VZ d   1      12.582  32.856  71.237  0.00  0.00     0.098 C 
ATOM     29  H26 5VZ d   1      12.222  31.346  72.540  0.00  0.00     0.279 HD
ATOM     30  C34 5VZ d   1      12.713  33.805  72.441  0.00  0.00     0.018 C 
ATOM     31  H30 5VZ d   1      11.579  32.951  70.795  0.00  0.00     0.078 H 
ATOM     32  H31 5VZ d   1      13.341  33.107  70.481  0.00  0.00     0.078 H 
ATOM     33  H32 5VZ d   1      12.998  34.798  72.064  0.00  0.00     0.066 H 
ATOM     34  H33 5VZ d   1      11.732  33.868  72.935  0.00  0.00     0.066 H 
BRANCH  25  35
ATOM     35  C32 5VZ d   1      12.329  30.472  70.718  0.00  0.00     0.066 C 
ATOM     36  H27 5VZ d   1      11.278  30.670  70.459  0.00  0.00     0.068 H 
ATOM     37  H28 5VZ d   1      12.418  29.461  71.143  0.00  0.00     0.068 H 
ATOM     38  H29 5VZ d   1      12.949  30.545  69.813  0.00  0.00     0.068 H 
ENDBRANCH  25  35
ENDBRANCH  14  20
ENDBRANCH   8  10
ENDBRANCH   3   8
BRANCH   1  39
ATOM     39  N16 5VZ d   1      11.485  38.871  79.252  0.00  0.00    -0.340 N 
ATOM     40  H16 5VZ d   1      11.129  39.369  80.080  0.00  0.00     0.167 HD
BRANCH  39  41
ATOM     41  C15 5VZ d   1      10.585  38.084  78.584  0.00  0.00     0.035 A 
ATOM     42  C12 5VZ d   1      10.727  37.745  77.229  0.00  0.00    -0.029 A 
ATOM     43  C03 5VZ d   1       9.787  36.968  76.547  0.00  0.00     0.066 A 
ATOM     44  H14 5VZ d   1      11.599  38.099  76.692  0.00  0.00     0.090 H 
ATOM     45  C02 5VZ d   1       8.657  36.521  77.260  0.00  0.00     0.061 A 
ATOM     46  C13 5VZ d   1       8.484  36.869  78.606  0.00  0.00    -0.058 A 
ATOM     47 CL1  5VZ d   1       7.475  35.585  76.472  0.00  0.00    -0.082 Cl
ATOM     48  C14 5VZ d   1       9.443  37.650  79.272  0.00  0.00    -0.055 A 
ATOM     49  H1  5VZ d   1       7.602  36.532  79.138  0.00  0.00     0.086 H 
ATOM     50  H15 5VZ d   1       9.301  37.916  80.313  0.00  0.00     0.087 H 
BRANCH  43  51
ATOM     51  N04 5VZ d   1       9.951  36.617  75.228  0.00  0.00    -0.282 N 
ATOM     52  H4  5VZ d   1       9.698  35.682  74.979  0.00  0.00     0.178 HD
BRANCH  51  53
ATOM     53  S05 5VZ d   1      10.537  37.601  73.981  0.00  0.00     0.238 S 
ATOM     54  O10 5VZ d   1      10.874  36.660  72.798  0.00  0.00    -0.205 OA
ATOM     55  O11 5VZ d   1      11.753  38.422  74.501  0.00  0.00    -0.205 OA
BRANCH  53  56
ATOM     56  C06 5VZ d   1       9.206  38.742  73.494  0.00  0.00     0.072 C 
BRANCH  56  57
ATOM     57  C07 5VZ d   1       9.770  39.602  72.345  0.00  0.00    -0.055 C 
ATOM     58  H5  5VZ d   1       9.002  40.315  72.009  0.00  0.00     0.029 H 
ATOM     59  H6  5VZ d   1      10.057  38.951  71.507  0.00  0.00     0.029 H 
ATOM     60  H7  5VZ d   1      10.653  40.154  72.700  0.00  0.00     0.029 H 
ENDBRANCH  56  57
BRANCH  56  61
ATOM     61  C08 5VZ d   1       7.993  37.913  73.012  0.00  0.00    -0.055 C 
ATOM     62  H8  5VZ d   1       7.180  38.592  72.714  0.00  0.00     0.029 H 
ATOM     63  H9  5VZ d   1       7.646  37.262  73.828  0.00  0.00     0.029 H 
ATOM     64  H10 5VZ d   1       8.289  37.296  72.151  0.00  0.00     0.029 H 
ENDBRANCH  56  61
BRANCH  56  65
ATOM     65  C09 5VZ d   1       8.809  39.640  74.692  0.00  0.00    -0.055 C 
ATOM     66  H11 5VZ d   1       8.004  40.325  74.386  0.00  0.00     0.029 H 
ATOM     67  H12 5VZ d   1       9.683  40.223  75.018  0.00  0.00     0.029 H 
ATOM     68  H13 5VZ d   1       8.458  39.010  75.522  0.00  0.00     0.029 H 
ENDBRANCH  56  65
ENDBRANCH  53  56
ENDBRANCH  51  53
ENDBRANCH  43  51
ENDBRANCH  39  41
ENDBRANCH   1  39
BRANCH   4  69
ATOM     69  C19 5VZ d   1      12.944  40.985  80.614  0.00  0.00    -0.046 C 
ATOM     70  H17 5VZ d   1      11.887  40.720  80.767  0.00  0.00     0.033 H 
ATOM     71  H18 5VZ d   1      13.014  42.025  80.261  0.00  0.00     0.033 H 
ATOM     72  H19 5VZ d   1      13.489  40.882  81.564  0.00  0.00     0.033 H 
ENDBRANCH   4  69
TORSDOF 13
