REMARK  13 active torsions:
REMARK  status: ('A' for Active; 'I' for Inactive)
REMARK    1  A    between atoms: C13_3  and  N12_2 
REMARK    2  A    between atoms: N12_2  and  C11_19 
REMARK    3  A    between atoms: C16_21  and  C17_5 
REMARK    4  A    between atoms: N19_23  and  C20_6 
REMARK    5  A    between atoms: C24_9  and  N25_25 
REMARK    6  A    between atoms: N02_11  and  C01_10 
REMARK    7  A    between atoms: C08_17  and  N05_14 
REMARK    8  A    between atoms: C18_22  and  N19_23 
REMARK    9  A    between atoms: N25_25  and  S26_26 
REMARK   10  A    between atoms: S26_26  and  C29_29 
REMARK   11  A    between atoms: C29_29  and  C30_30 
REMARK   12  A    between atoms: C29_29  and  C31_31 
REMARK   13  A    between atoms: C29_29  and  C32_32 
ROOT
ATOM      1  C13 5W0 d   1      -3.505 -11.518  -6.031  0.00  0.00     0.728 A 
ATOM      2  C15 5W0 d   1      -4.031 -10.077  -4.281  0.00  0.00     0.030 A 
ATOM      3  N14 5W0 d   1      -4.382 -11.033  -5.156  0.00  0.00    -0.074 NA
ATOM      4  C16 5W0 d   1      -2.697  -9.633  -4.323  0.00  0.00     0.003 A 
ATOM      5  C18 5W0 d   1      -1.813 -10.186  -5.284  0.00  0.00     0.154 A 
ATOM      6  N34 5W0 d   1      -2.243 -11.113  -6.142  0.00  0.00    -0.044 NA
ATOM      7  H3  5W0 d   1      -4.743  -9.666  -3.575  0.00  0.00     0.116 H 
ENDROOT
BRANCH   1   8
ATOM      8  N12 5W0 d   1      -4.032 -12.528  -6.860  0.00  0.00    -0.188 N 
ATOM      9  H2  5W0 d   1      -5.003 -12.808  -6.660  0.00  0.00     0.184 HD
BRANCH   8  10
ATOM     10  C11 5W0 d   1      -3.399 -13.215  -7.940  0.00  0.00     0.052 A 
ATOM     11  C10 5W0 d   1      -4.214 -14.056  -8.691  0.00  0.00    -0.055 A 
ATOM     12  C09 5W0 d   1      -3.703 -14.753  -9.779  0.00  0.00    -0.057 A 
ATOM     13  H1  5W0 d   1      -5.259 -14.169  -8.425  0.00  0.00     0.087 H 
ATOM     14  C08 5W0 d   1      -2.372 -14.628 -10.132  0.00  0.00     0.049 A 
ATOM     15  H21 5W0 d   1      -4.353 -15.400 -10.356  0.00  0.00     0.086 H 
ATOM     16  C36 5W0 d   1      -1.564 -13.790  -9.369  0.00  0.00     0.139 A 
ATOM     17  C35 5W0 d   1      -2.068 -13.086  -8.285  0.00  0.00    -0.018 A 
ATOM     18  F37 5W0 d   1      -0.267 -13.662  -9.651  0.00  0.00    -0.204 F 
ATOM     19  H35 5W0 d   1      -1.418 -12.436  -7.710  0.00  0.00     0.091 H 
BRANCH  14  20
ATOM     20  N05 5W0 d   1      -1.806 -15.295 -11.262  0.00  0.00    -0.278 NA
ATOM     21  C04 5W0 d   1      -1.332 -14.433 -12.243  0.00  0.00     0.006 C 
ATOM     22  C03 5W0 d   1      -0.566 -15.098 -13.367  0.00  0.00     0.094 C 
ATOM     23  H15 5W0 d   1      -2.194 -13.909 -12.681  0.00  0.00     0.058 H 
ATOM     24  H16 5W0 d   1      -0.665 -13.703 -11.761  0.00  0.00     0.058 H 
ATOM     25  N02 5W0 d   1      -1.319 -16.125 -13.953  0.00  0.00    -0.073 N 
ATOM     26  H13 5W0 d   1      -0.327 -14.346 -14.133  0.00  0.00     0.077 H 
ATOM     27  H14 5W0 d   1       0.366 -15.521 -12.965  0.00  0.00     0.077 H 
ATOM     28  C07 5W0 d   1      -1.786 -16.998 -12.974  0.00  0.00     0.094 C 
ATOM     29  H12 5W0 d   1      -2.124 -15.684 -14.370  0.00  0.00     0.279 HD
ATOM     30  C06 5W0 d   1      -2.548 -16.304 -11.867  0.00  0.00     0.006 C 
ATOM     31  H19 5W0 d   1      -0.924 -17.519 -12.531  0.00  0.00     0.077 H 
ATOM     32  H20 5W0 d   1      -2.453 -17.732 -13.450  0.00  0.00     0.077 H 
ATOM     33  H17 5W0 d   1      -3.463 -15.864 -12.290  0.00  0.00     0.058 H 
ATOM     34  H18 5W0 d   1      -2.819 -17.049 -11.104  0.00  0.00     0.058 H 
BRANCH  25  35
ATOM     35  C01 5W0 d   1      -0.742 -16.766 -14.886  0.00  0.00     0.066 C 
ATOM     36  H9  5W0 d   1      -0.381 -16.059 -15.648  0.00  0.00     0.068 H 
ATOM     37  H10 5W0 d   1      -1.455 -17.467 -15.345  0.00  0.00     0.068 H 
ATOM     38  H11 5W0 d   1       0.110 -17.327 -14.473  0.00  0.00     0.068 H 
ENDBRANCH  25  35
ENDBRANCH  14  20
ENDBRANCH   8  10
ENDBRANCH   1   8
BRANCH   5  39
ATOM     39  N19 5W0 d   1      -0.480  -9.750  -5.358  0.00  0.00    -0.340 N 
ATOM     40  H22 5W0 d   1      -0.169  -9.011  -4.711  0.00  0.00     0.167 HD
BRANCH  39  41
ATOM     41  C20 5W0 d   1       0.462 -10.280  -6.283  0.00  0.00     0.035 A 
ATOM     42  C21 5W0 d   1       0.595 -11.637  -6.499  0.00  0.00    -0.057 A 
ATOM     43  C22 5W0 d   1       1.546 -12.085  -7.391  0.00  0.00    -0.079 A 
ATOM     44  H7  5W0 d   1      -0.040 -12.341  -5.974  0.00  0.00     0.086 H 
ATOM     45  C23 5W0 d   1       2.365 -11.195  -8.060  0.00  0.00    -0.057 A 
ATOM     46  H8  5W0 d   1       1.653 -13.149  -7.570  0.00  0.00     0.083 H 
ATOM     47  C24 5W0 d   1       2.246  -9.835  -7.837  0.00  0.00     0.044 A 
ATOM     48  H23 5W0 d   1       3.104 -11.564  -8.762  0.00  0.00     0.086 H 
ATOM     49  C33 5W0 d   1       1.299  -9.374  -6.944  0.00  0.00    -0.031 A 
ATOM     50  H34 5W0 d   1       1.204  -8.311  -6.755  0.00  0.00     0.090 H 
BRANCH  47  51
ATOM     51  N25 5W0 d   1       3.158  -8.989  -8.544  0.00  0.00    -0.284 N 
ATOM     52  H24 5W0 d   1       4.012  -9.409  -8.851  0.00  0.00     0.178 HD
BRANCH  51  53
ATOM     53  S26 5W0 d   1       2.949  -7.408  -8.902  0.00  0.00     0.238 S 
ATOM     54  O27 5W0 d   1       1.580  -7.027  -8.771  0.00  0.00    -0.205 OA
ATOM     55  O28 5W0 d   1       3.458  -7.236 -10.222  0.00  0.00    -0.205 OA
BRANCH  53  56
ATOM     56  C29 5W0 d   1       3.952  -6.422  -7.799  0.00  0.00     0.072 C 
BRANCH  56  57
ATOM     57  C30 5W0 d   1       3.880  -4.967  -8.233  0.00  0.00    -0.055 C 
ATOM     58  H25 5W0 d   1       4.495  -4.353  -7.559  0.00  0.00     0.029 H 
ATOM     59  H26 5W0 d   1       2.836  -4.623  -8.192  0.00  0.00     0.029 H 
ATOM     60  H27 5W0 d   1       4.257  -4.872  -9.262  0.00  0.00     0.029 H 
ENDBRANCH  56  57
BRANCH  56  61
ATOM     61  C31 5W0 d   1       3.463  -6.571  -6.370  0.00  0.00    -0.055 C 
ATOM     62  H28 5W0 d   1       4.088  -5.960  -5.703  0.00  0.00     0.029 H 
ATOM     63  H29 5W0 d   1       3.528  -7.627  -6.068  0.00  0.00     0.029 H 
ATOM     64  H30 5W0 d   1       2.418  -6.234  -6.303  0.00  0.00     0.029 H 
ENDBRANCH  56  61
BRANCH  56  65
ATOM     65  C32 5W0 d   1       5.373  -6.947  -7.937  0.00  0.00    -0.055 C 
ATOM     66  H31 5W0 d   1       6.041  -6.375  -7.277  0.00  0.00     0.029 H 
ATOM     67  H32 5W0 d   1       5.705  -6.837  -8.980  0.00  0.00     0.029 H 
ATOM     68  H33 5W0 d   1       5.400  -8.010  -7.654  0.00  0.00     0.029 H 
ENDBRANCH  56  65
ENDBRANCH  53  56
ENDBRANCH  51  53
ENDBRANCH  47  51
ENDBRANCH  39  41
ENDBRANCH   5  39
BRANCH   4  69
ATOM     69  C17 5W0 d   1      -2.252  -8.565  -3.342  0.00  0.00    -0.046 C 
ATOM     70  H4  5W0 d   1      -3.097  -8.286  -2.695  0.00  0.00     0.033 H 
ATOM     71  H5  5W0 d   1      -1.906  -7.680  -3.896  0.00  0.00     0.033 H 
ATOM     72  H6  5W0 d   1      -1.430  -8.955  -2.724  0.00  0.00     0.033 H 
ENDBRANCH   4  69
TORSDOF 13
