REMARK  13 active torsions:
REMARK  status: ('A' for Active; 'I' for Inactive)
REMARK    1  A    between atoms: C19_24  and  C20_2 
REMARK    2  A    between atoms: N22_25  and  C21_3 
REMARK    3  A    between atoms: C28_6  and  N29_29 
REMARK    4  A    between atoms: N02_8  and  C01_7 
REMARK    5  A    between atoms: C08_14  and  N07_13 
REMARK    6  A    between atoms: N15_20  and  C14_19 
REMARK    7  A    between atoms: C16_21  and  N15_20 
REMARK    8  A    between atoms: N22_25  and  C23_26 
REMARK    9  A    between atoms: N29_29  and  S30_30 
REMARK   10  A    between atoms: S30_30  and  C31_31 
REMARK   11  A    between atoms: C31_31  and  C32_32 
REMARK   12  A    between atoms: C31_31  and  C33_33 
REMARK   13  A    between atoms: C31_31  and  C34_34 
ROOT
ATOM      1  C21 5W1 d   1      12.512  -5.236   0.182  0.00  0.00     0.154 A 
ATOM      2  C16 5W1 d   1      14.390  -5.841  -1.135  0.00  0.00     0.728 A 
ATOM      3  N17 5W1 d   1      15.141  -4.882  -0.543  0.00  0.00    -0.074 NA
ATOM      4  C18 5W1 d   1      14.621  -4.085   0.412  0.00  0.00     0.030 A 
ATOM      5  C19 5W1 d   1      13.286  -4.229   0.823  0.00  0.00     0.003 A 
ATOM      6  N38 5W1 d   1      13.098  -6.003  -0.762  0.00  0.00    -0.044 NA
ATOM      7  H21 5W1 d   1      15.242  -3.323   0.869  0.00  0.00     0.116 H 
ENDROOT
BRANCH   2   8
ATOM      8  N15 5W1 d   1      14.960  -6.614  -2.101  0.00  0.00    -0.188 N 
ATOM      9  H20 5W1 d   1      15.940  -6.372  -2.306  0.00  0.00     0.184 HD
BRANCH   8  10
ATOM     10  C14 5W1 d   1      14.477  -7.649  -2.848  0.00  0.00     0.052 A 
ATOM     11  C13 5W1 d   1      15.312  -8.116  -3.898  0.00  0.00    -0.054 A 
ATOM     12  C12 5W1 d   1      14.913  -9.180  -4.732  0.00  0.00    -0.052 A 
ATOM     13  H1  5W1 d   1      16.275  -7.645  -4.061  0.00  0.00     0.087 H 
ATOM     14  C08 5W1 d   1      13.676  -9.821  -4.517  0.00  0.00     0.069 A 
ATOM     15  H19 5W1 d   1      15.558  -9.506  -5.540  0.00  0.00     0.087 H 
ATOM     16  C09 5W1 d   1      12.849  -9.359  -3.471  0.00  0.00     0.145 A 
ATOM     17  F10 5W1 d   1      11.712  -9.950  -3.251  0.00  0.00    -0.204 F 
ATOM     18  C11 5W1 d   1      13.239  -8.285  -2.638  0.00  0.00    -0.017 A 
ATOM     19  H18 5W1 d   1      12.586  -7.952  -1.839  0.00  0.00     0.091 H 
BRANCH  14  20
ATOM     20  N07 5W1 d   1      13.269 -10.877  -5.313  0.00  0.00    -0.375 N 
ATOM     21  C04 5W1 d   1      13.397 -10.773  -6.749  0.00  0.00     0.018 C 
ATOM     22  C03 5W1 d   1      12.329 -11.621  -7.478  0.00  0.00     0.098 C 
ATOM     23  H12 5W1 d   1      13.278  -9.720  -7.043  0.00  0.00     0.066 H 
ATOM     24  H13 5W1 d   1      14.396 -11.126  -7.045  0.00  0.00     0.066 H 
ATOM     25  N02 5W1 d   1      12.289 -12.998  -6.914  0.00  0.00    -0.072 N 
ATOM     26  H10 5W1 d   1      11.343 -11.149  -7.353  0.00  0.00     0.078 H 
ATOM     27  H11 5W1 d   1      12.577 -11.674  -8.548  0.00  0.00     0.078 H 
ATOM     28  C05 5W1 d   1      11.986 -12.999  -5.456  0.00  0.00     0.098 C 
ATOM     29  H9  5W1 d   1      13.217 -13.379  -7.014  0.00  0.00     0.279 HD
ATOM     30  C06 5W1 d   1      13.061 -12.179  -4.707  0.00  0.00     0.018 C 
ATOM     31  H14 5W1 d   1      11.987 -14.033  -5.082  0.00  0.00     0.078 H 
ATOM     32  H15 5W1 d   1      10.997 -12.549  -5.287  0.00  0.00     0.078 H 
ATOM     33  H16 5W1 d   1      14.010 -12.735  -4.726  0.00  0.00     0.066 H 
ATOM     34  H17 5W1 d   1      12.739 -12.039  -3.665  0.00  0.00     0.066 H 
BRANCH  25  35
ATOM     35  C01 5W1 d   1      11.381 -13.881  -7.692  0.00  0.00     0.066 C 
ATOM     36  H6  5W1 d   1      11.652 -13.839  -8.757  0.00  0.00     0.068 H 
ATOM     37  H7  5W1 d   1      10.342 -13.542  -7.565  0.00  0.00     0.068 H 
ATOM     38  H8  5W1 d   1      11.476 -14.915  -7.330  0.00  0.00     0.068 H 
ENDBRANCH  25  35
ENDBRANCH  14  20
ENDBRANCH   8  10
ENDBRANCH   2   8
BRANCH   1  39
ATOM     39  N22 5W1 d   1      11.204  -5.450   0.498  0.00  0.00    -0.340 N 
ATOM     40  H22 5W1 d   1      10.864  -4.982   1.350  0.00  0.00     0.167 HD
BRANCH  39  41
ATOM     41  C23 5W1 d   1      10.288  -6.207  -0.174  0.00  0.00     0.035 A 
ATOM     42  C24 5W1 d   1       9.172  -6.677   0.520  0.00  0.00    -0.055 A 
ATOM     43  C25 5W1 d   1       8.210  -7.463  -0.147  0.00  0.00    -0.058 A 
ATOM     44  H5  5W1 d   1       9.045  -6.438   1.570  0.00  0.00     0.087 H 
ATOM     45  C26 5W1 d   1       8.362  -7.753  -1.508  0.00  0.00     0.061 A 
ATOM     46  H23 5W1 d   1       7.352  -7.843   0.395  0.00  0.00     0.086 H 
ATOM     47  C28 5W1 d   1       9.480  -7.293  -2.230  0.00  0.00     0.066 A 
ATOM     48 CL1  5W1 d   1       7.176  -8.691  -2.273  0.00  0.00    -0.082 Cl
ATOM     49  C37 5W1 d   1      10.416  -6.527  -1.539  0.00  0.00    -0.029 A 
ATOM     50  H34 5W1 d   1      11.283  -6.160  -2.077  0.00  0.00     0.090 H 
BRANCH  47  51
ATOM     51  N29 5W1 d   1       9.633  -7.632  -3.558  0.00  0.00    -0.282 N 
ATOM     52  H24 5W1 d   1       9.362  -8.559  -3.817  0.00  0.00     0.178 HD
BRANCH  51  53
ATOM     53  S30 5W1 d   1      10.235  -6.638  -4.803  0.00  0.00     0.238 S 
ATOM     54  O35 5W1 d   1      10.567  -7.545  -6.024  0.00  0.00    -0.205 OA
ATOM     55  O36 5W1 d   1      11.476  -5.877  -4.283  0.00  0.00    -0.205 OA
BRANCH  53  56
ATOM     56  C31 5W1 d   1       8.907  -5.478  -5.266  0.00  0.00     0.072 C 
BRANCH  56  57
ATOM     57  C32 5W1 d   1       8.519  -4.603  -4.044  0.00  0.00    -0.055 C 
ATOM     58  H25 5W1 d   1       7.718  -3.906  -4.332  0.00  0.00     0.029 H 
ATOM     59  H26 5W1 d   1       9.397  -4.033  -3.708  0.00  0.00     0.029 H 
ATOM     60  H27 5W1 d   1       8.167  -5.250  -3.227  0.00  0.00     0.029 H 
ENDBRANCH  56  57
BRANCH  56  61
ATOM     61  C33 5W1 d   1       9.456  -4.618  -6.431  0.00  0.00    -0.055 C 
ATOM     62  H28 5W1 d   1       8.688  -3.898  -6.749  0.00  0.00     0.029 H 
ATOM     63  H29 5W1 d   1       9.719  -5.271  -7.277  0.00  0.00     0.029 H 
ATOM     64  H30 5W1 d   1      10.352  -4.075  -6.095  0.00  0.00     0.029 H 
ENDBRANCH  56  61
BRANCH  56  65
ATOM     65  C34 5W1 d   1       7.664  -6.302  -5.708  0.00  0.00    -0.055 C 
ATOM     66  H31 5W1 d   1       6.852  -5.617  -5.991  0.00  0.00     0.029 H 
ATOM     67  H32 5W1 d   1       7.332  -6.940  -4.876  0.00  0.00     0.029 H 
ATOM     68  H33 5W1 d   1       7.929  -6.932  -6.570  0.00  0.00     0.029 H 
ENDBRANCH  56  65
ENDBRANCH  53  56
ENDBRANCH  51  53
ENDBRANCH  47  51
ENDBRANCH  39  41
ENDBRANCH   1  39
BRANCH   5  69
ATOM     69  C20 5W1 d   1      12.731  -3.327   1.874  0.00  0.00    -0.046 C 
ATOM     70  H2  5W1 d   1      13.516  -2.637   2.216  0.00  0.00     0.033 H 
ATOM     71  H3  5W1 d   1      12.376  -3.929   2.724  0.00  0.00     0.033 H 
ATOM     72  H4  5W1 d   1      11.892  -2.751   1.457  0.00  0.00     0.033 H 
ENDBRANCH   5  69
TORSDOF 13
