REMARK  13 active torsions:
REMARK  status: ('A' for Active; 'I' for Inactive)
REMARK    1  A    between atoms: N16_22  and  C15_2 
REMARK    2  A    between atoms: C17_3  and  N16_22 
REMARK    3  A    between atoms: N23_26  and  C22_5 
REMARK    4  A    between atoms: C24_6  and  N23_26 
REMARK    5  A    between atoms: C28_8  and  C29_29 
REMARK    6  A    between atoms: N04_12  and  S05_13 
REMARK    7  A    between atoms: S05_13  and  C06_14 
REMARK    8  A    between atoms: C06_14  and  C07_15 
REMARK    9  A    between atoms: C06_14  and  C08_16 
REMARK   10  A    between atoms: C06_14  and  C09_17 
REMARK   11  A    between atoms: C18_23  and  C19_24 
REMARK       I    between atoms: C29_29  and  N30_30 
REMARK   12  A    between atoms: N30_30  and  C31_31 
REMARK   13  A    between atoms: N34_34  and  C35_35 
ROOT
ATOM      1  C17 5W2 d   1      12.682  -5.176   0.233  0.00  0.00     0.154 A 
ATOM      2  C20 5W2 d   1      14.769  -4.009   0.488  0.00  0.00     0.030 A 
ATOM      3  C22 5W2 d   1      14.590  -5.759  -1.067  0.00  0.00     0.728 A 
ATOM      4  C18 5W2 d   1      13.433  -4.163   0.882  0.00  0.00     0.003 A 
ATOM      5  N21 5W2 d   1      15.298  -4.786  -0.471  0.00  0.00    -0.074 NA
ATOM      6  N41 5W2 d   1      13.296  -5.947  -0.706  0.00  0.00    -0.044 NA
ATOM      7  H2  5W2 d   1      15.383  -3.253   0.964  0.00  0.00     0.116 H 
ENDROOT
BRANCH   3   8
ATOM      8  N23 5W2 d   1      15.116  -6.528  -2.046  0.00  0.00    -0.188 N 
ATOM      9  H19 5W2 d   1      16.065  -6.249  -2.333  0.00  0.00     0.184 HD
BRANCH   8  10
ATOM     10  C24 5W2 d   1      14.627  -7.600  -2.723  0.00  0.00     0.052 A 
ATOM     11  C25 5W2 d   1      13.405  -8.257  -2.391  0.00  0.00    -0.018 A 
ATOM     12  C26 5W2 d   1      13.042  -9.401  -3.185  0.00  0.00     0.134 A 
ATOM     13  H20 5W2 d   1      12.778  -7.910  -1.577  0.00  0.00     0.091 H 
ATOM     14  C28 5W2 d   1      13.893  -9.864  -4.251  0.00  0.00     0.070 A 
ATOM     15  F27 5W2 d   1      11.904 -10.072  -2.915  0.00  0.00    -0.205 F 
ATOM     16  C39 5W2 d   1      15.102  -9.162  -4.510  0.00  0.00    -0.062 A 
ATOM     17  C40 5W2 d   1      15.512  -8.043  -3.778  0.00  0.00    -0.056 A 
ATOM     18  H35 5W2 d   1      15.738  -9.512  -5.315  0.00  0.00     0.085 H 
ATOM     19  H36 5W2 d   1      16.445  -7.534  -3.990  0.00  0.00     0.087 H 
BRANCH  14  20
ATOM     20  C29 5W2 d   1      13.600 -11.021  -5.069  0.00  0.00     0.255 C 
ATOM     21  N30 5W2 d   1      14.634 -11.847  -5.478  0.00  0.00    -0.352 N 
ATOM     22  H21 5W2 d   1      15.543 -11.479  -5.282  0.00  0.00     0.163 HD
ATOM     23  O38 5W2 d   1      12.405 -11.367  -5.212  0.00  0.00    -0.268 OA
BRANCH  21  24
ATOM     24  C31 5W2 d   1      14.659 -13.140  -6.134  0.00  0.00     0.015 C 
ATOM     25  C32 5W2 d   1      13.385 -13.497  -6.952  0.00  0.00    -0.023 C 
ATOM     26  C33 5W2 d   1      13.652 -14.818  -7.725  0.00  0.00     0.085 C 
ATOM     27  H23 5W2 d   1      13.162 -12.689  -7.664  0.00  0.00     0.038 H 
ATOM     28  H24 5W2 d   1      12.532 -13.631  -6.271  0.00  0.00     0.038 H 
ATOM     29  N34 5W2 d   1      14.053 -15.950  -6.820  0.00  0.00    -0.075 N 
ATOM     30  H25 5W2 d   1      14.461 -14.644  -8.450  0.00  0.00     0.076 H 
ATOM     31  H26 5W2 d   1      12.735 -15.104  -8.260  0.00  0.00     0.076 H 
ATOM     32  C36 5W2 d   1      15.159 -15.633  -5.855  0.00  0.00     0.085 C 
ATOM     33  H27 5W2 d   1      13.254 -16.045  -6.213  0.00  0.00     0.279 HD
ATOM     34  C37 5W2 d   1      14.951 -14.280  -5.112  0.00  0.00    -0.023 C 
ATOM     35  H31 5W2 d   1      16.107 -15.585  -6.412  0.00  0.00     0.076 H 
ATOM     36  H32 5W2 d   1      15.213 -16.438  -5.108  0.00  0.00     0.076 H 
ATOM     37  H33 5W2 d   1      14.101 -14.373  -4.420  0.00  0.00     0.038 H 
ATOM     38  H34 5W2 d   1      15.861 -14.034  -4.545  0.00  0.00     0.038 H 
ATOM     39  H22 5W2 d   1      15.496 -13.110  -6.848  0.00  0.00     0.072 H 
BRANCH  29  40
ATOM     40  C35 5W2 d   1      14.117 -17.286  -7.486  0.00  0.00     0.066 C 
ATOM     41  H28 5W2 d   1      14.416 -18.048  -6.751  0.00  0.00     0.068 H 
ATOM     42  H29 5W2 d   1      14.854 -17.254  -8.302  0.00  0.00     0.068 H 
ATOM     43  H30 5W2 d   1      13.128 -17.540  -7.895  0.00  0.00     0.068 H 
ENDBRANCH  29  40
ENDBRANCH  21  24
ENDBRANCH  14  20
ENDBRANCH   8  10
ENDBRANCH   3   8
BRANCH   1  44
ATOM     44  N16 5W2 d   1      11.375  -5.393   0.575  0.00  0.00    -0.340 N 
ATOM     45  H15 5W2 d   1      11.035  -4.928   1.429  0.00  0.00     0.167 HD
BRANCH  44  46
ATOM     46  C15 5W2 d   1      10.478  -6.166  -0.105  0.00  0.00     0.035 A 
ATOM     47  C12 5W2 d   1      10.616  -6.488  -1.462  0.00  0.00    -0.029 A 
ATOM     48  C03 5W2 d   1       9.676  -7.280  -2.125  0.00  0.00     0.066 A 
ATOM     49  H13 5W2 d   1      11.473  -6.113  -2.010  0.00  0.00     0.090 H 
ATOM     50  C02 5W2 d   1       8.561  -7.751  -1.400  0.00  0.00     0.061 A 
ATOM     51  N04 5W2 d   1       9.807  -7.618  -3.441  0.00  0.00    -0.282 N 
ATOM     52  C13 5W2 d   1       8.394  -7.413  -0.042  0.00  0.00    -0.058 A 
ATOM     53 CL1  5W2 d   1       7.357  -8.697  -2.162  0.00  0.00    -0.082 Cl
ATOM     54  C14 5W2 d   1       9.356  -6.635   0.604  0.00  0.00    -0.055 A 
ATOM     55  H1  5W2 d   1       7.520  -7.757   0.500  0.00  0.00     0.086 H 
ATOM     56  H14 5W2 d   1       9.239  -6.391   1.654  0.00  0.00     0.087 H 
ATOM     57  H3  5W2 d   1       9.543  -8.549  -3.694  0.00  0.00     0.178 HD
BRANCH  51  58
ATOM     58  S05 5W2 d   1      10.368  -6.626  -4.684  0.00  0.00     0.238 S 
ATOM     59  O10 5W2 d   1      10.671  -7.590  -5.873  0.00  0.00    -0.205 OA
ATOM     60  O11 5W2 d   1      11.610  -5.821  -4.195  0.00  0.00    -0.205 OA
BRANCH  58  61
ATOM     61  C06 5W2 d   1       9.021  -5.510  -5.168  0.00  0.00     0.072 C 
BRANCH  61  62
ATOM     62  C07 5W2 d   1       7.824  -6.389  -5.612  0.00  0.00    -0.055 C 
ATOM     63  H4  5W2 d   1       6.986  -5.743  -5.913  0.00  0.00     0.029 H 
ATOM     64  H5  5W2 d   1       7.510  -7.030  -4.775  0.00  0.00     0.029 H 
ATOM     65  H6  5W2 d   1       8.126  -7.018  -6.463  0.00  0.00     0.029 H 
ENDBRANCH  61  62
BRANCH  61  66
ATOM     66  C08 5W2 d   1       9.563  -4.660  -6.340  0.00  0.00    -0.055 C 
ATOM     67  H7  5W2 d   1       8.784  -3.961  -6.677  0.00  0.00     0.029 H 
ATOM     68  H8  5W2 d   1       9.847  -5.321  -7.172  0.00  0.00     0.029 H 
ATOM     69  H9  5W2 d   1      10.444  -4.093  -6.005  0.00  0.00     0.029 H 
ENDBRANCH  61  66
BRANCH  61  70
ATOM     70  C09 5W2 d   1       8.628  -4.618  -3.961  0.00  0.00    -0.055 C 
ATOM     71  H10 5W2 d   1       7.812  -3.942  -4.255  0.00  0.00     0.029 H 
ATOM     72  H11 5W2 d   1       9.499  -4.025  -3.644  0.00  0.00     0.029 H 
ATOM     73  H12 5W2 d   1       8.295  -5.254  -3.128  0.00  0.00     0.029 H 
ENDBRANCH  61  70
ENDBRANCH  58  61
ENDBRANCH  51  58
ENDBRANCH  44  46
ENDBRANCH   1  44
BRANCH   4  74
ATOM     74  C19 5W2 d   1      12.894  -3.264   1.933  0.00  0.00    -0.046 C 
ATOM     75  H16 5W2 d   1      11.840  -3.514   2.124  0.00  0.00     0.033 H 
ATOM     76  H17 5W2 d   1      12.967  -2.220   1.595  0.00  0.00     0.033 H 
ATOM     77  H18 5W2 d   1      13.475  -3.392   2.858  0.00  0.00     0.033 H 
ENDBRANCH   4  74
TORSDOF 13
