REMARK  7 active torsions:
REMARK  status: ('A' for Active; 'I' for Inactive)
REMARK    1  A    between atoms: P_1  and  O5'_5 
REMARK    2  A    between atoms: O5'_5  and  C5'_6 
REMARK    3  A    between atoms: C5'_6  and  C4'_7 
REMARK    4  A    between atoms: C3'_9  and  O3'_10 
REMARK    5  A    between atoms: C2'_11  and  O2'_12 
REMARK    6  A    between atoms: C1'_13  and  N9_14 
REMARK    7  A    between atoms: C6_18  and  N6_19 
ROOT
ATOM      1  C4' AMP d   1      16.031  44.164   9.184  0.00  0.00     0.089 C 
ATOM      2  O4' AMP d   1      16.971  43.348   8.509  0.00  0.00    -0.353 OA
ATOM      3  C3' AMP d   1      14.897  44.501   8.120  0.00  0.00     0.091 C 
ATOM      4  C2' AMP d   1      15.586  44.178   6.713  0.00  0.00     0.105 C 
ATOM      5  C1' AMP d   1      17.006  43.562   7.123  0.00  0.00     0.139 C 
ATOM      6  H3  AMP d   1      16.502  45.095   9.532  0.00  0.00     0.090 H 
ATOM      7  H4  AMP d   1      14.021  43.856   8.281  0.00  0.00     0.091 H 
ATOM      8  H6  AMP d   1      14.975  43.510   6.089  0.00  0.00     0.093 H 
ATOM      9  H8  AMP d   1      17.773  44.323   6.915  0.00  0.00     0.122 H 
ENDROOT
BRANCH   5  10
ATOM     10  N9  AMP d   1      17.413  42.298   6.326  0.00  0.00    -0.294 N 
ATOM     11  C8  AMP d   1      17.091  40.919   6.629  0.00  0.00     0.071 A 
ATOM     12  N7  AMP d   1      17.607  40.038   5.738  0.00  0.00    -0.236 NA
ATOM     13  H9  AMP d   1      16.493  40.619   7.488  0.00  0.00     0.144 H 
ATOM     14  C5  AMP d   1      18.310  40.840   4.798  0.00  0.00     0.149 A 
ATOM     15  C6  AMP d   1      19.071  40.508   3.631  0.00  0.00     0.155 A 
ATOM     16  C4  AMP d   1      18.197  42.243   5.145  0.00  0.00     0.167 A 
ATOM     17  N1  AMP d   1      19.663  41.516   2.867  0.00  0.00    -0.222 NA
ATOM     18  C2  AMP d   1      19.471  42.810   3.324  0.00  0.00     0.091 A 
ATOM     19  N3  AMP d   1      18.788  43.271   4.390  0.00  0.00    -0.222 NA
ATOM     20  H12 AMP d   1      19.949  43.577   2.726  0.00  0.00     0.146 H 
BRANCH  15  21
ATOM     21  N6  AMP d   1      19.244  39.191   3.207  0.00  0.00    -0.382 N 
ATOM     22  H10 AMP d   1      19.798  38.990   2.362  0.00  0.00     0.157 HD
ATOM     23  H11 AMP d   1      18.817  38.419   3.739  0.00  0.00     0.157 HD
ENDBRANCH  15  21
ENDBRANCH   5  10
BRANCH   4  24
ATOM     24  O2' AMP d   1      15.927  45.388   6.042  0.00  0.00    -0.388 OA
ATOM     25  H7  AMP d   1      15.140  45.899   5.893  0.00  0.00     0.210 HD
ENDBRANCH   4  24
BRANCH   1  26
ATOM     26  C5' AMP d   1      15.481  43.339  10.450  0.00  0.00     0.059 C 
ATOM     27  H1  AMP d   1      16.149  42.491  10.662  0.00  0.00     0.079 H 
ATOM     28  H2  AMP d   1      15.432  43.996  11.331  0.00  0.00     0.079 H 
BRANCH  26  29
ATOM     29  O5' AMP d   1      14.241  42.883  10.146  0.00  0.00    -0.280 OA
BRANCH  29  30
ATOM     30  P   AMP d   1      13.836  41.187  10.436  0.00  0.00     0.422 P 
ATOM     31  O1P AMP d   1      12.735  40.967   9.430  0.00  0.00    -0.617 OA
ATOM     32  O2P AMP d   1      15.146  40.499  10.169  0.00  0.00    -0.617 OA
ATOM     33  O3P AMP d   1      13.354  41.311  11.867  0.00  0.00    -0.617 OA
ENDBRANCH  29  30
ENDBRANCH  26  29
ENDBRANCH   1  26
BRANCH   3  34
ATOM     34  O3' AMP d   1      14.487  45.853   8.171  0.00  0.00    -0.390 OA
ATOM     35  H5  AMP d   1      15.231  46.416   7.992  0.00  0.00     0.210 HD
ENDBRANCH   3  34
TORSDOF 7
