REMARK  6 active torsions:
REMARK  status: ('A' for Active; 'I' for Inactive)
REMARK    1  A    between atoms: O4_1  and  C4_2 
REMARK    2  A    between atoms: C3_3  and  O3_4 
REMARK    3  A    between atoms: C2_5  and  N2_6 
REMARK    4  A    between atoms: C1_7  and  O1_8 
REMARK    5  A    between atoms: C5_10  and  C6_11 
REMARK    6  A    between atoms: C6_11  and  O6_12 
ROOT
ATOM      1  C4  X6X d   1      45.184  -2.652  11.780  0.00  0.00     0.089 C 
ATOM      2  C3  X6X d   1      46.069  -3.582  12.619  0.00  0.00     0.094 C 
ATOM      3  C2  X6X d   1      47.205  -2.775  13.214  0.00  0.00     0.173 C 
ATOM      4  C1  X6X d   1      47.969  -2.014  12.153  0.00  0.00     0.158 C 
ATOM      5  O   X6X d   1      47.098  -1.184  11.348  0.00  0.00    -0.349 OA
ATOM      6  C5  X6X d   1      46.037  -1.940  10.713  0.00  0.00     0.089 C 
ATOM      7  H2  X6X d   1      44.416  -3.255  11.273  0.00  0.00     0.091 H 
ATOM      8  H3  X6X d   1      46.477  -4.366  11.964  0.00  0.00     0.090 H 
ATOM      9  H5  X6X d   1      46.774  -2.054  13.925  0.00  0.00     0.096 H 
ATOM     10  H9  X6X d   1      48.714  -1.371  12.645  0.00  0.00     0.132 H 
ATOM     11  H11 X6X d   1      46.470  -2.688  10.032  0.00  0.00     0.090 H 
ENDROOT
BRANCH   6  12
ATOM     12  C6  X6X d   1      45.184  -0.984   9.939  0.00  0.00     0.043 C 
ATOM     13  H12 X6X d   1      44.817  -0.192  10.608  0.00  0.00     0.078 H 
ATOM     14  H13 X6X d   1      44.329  -1.522   9.504  0.00  0.00     0.078 H 
BRANCH  12  15
ATOM     15  O6  X6X d   1      45.981  -0.392   8.873  0.00  0.00    -0.398 OA
ATOM     16  H14 X6X d   1      46.297  -1.078   8.297  0.00  0.00     0.209 HD
ENDBRANCH  12  15
ENDBRANCH   6  12
BRANCH   1  17
ATOM     17  O4  X6X d   1      44.537  -1.706  12.621  0.00  0.00    -0.390 OA
ATOM     18  H1  X6X d   1      43.997  -2.164  13.254  0.00  0.00     0.210 HD
ENDBRANCH   1  17
BRANCH   2  19
ATOM     19  O3  X6X d   1      45.375  -4.186  13.666  0.00  0.00    -0.391 OA
ATOM     20  H4  X6X d   1      45.028  -3.516  14.243  0.00  0.00     0.210 HD
ENDBRANCH   2  19
BRANCH   4  21
ATOM     21  O1  X6X d   1      48.641  -2.957  11.303  0.00  0.00    -0.369 OA
ATOM     22  H10 X6X d   1      47.997  -3.501  10.864  0.00  0.00     0.212 HD
ENDBRANCH   4  21
BRANCH   3  23
ATOM     23  N2  X6X d   1      48.173  -3.638  13.937  0.00  0.00    -0.068 N 
ATOM     24  H6  X6X d   1      48.912  -3.068  14.318  0.00  0.00     0.275 HD
ATOM     25  H7  X6X d   1      48.564  -4.312  13.298  0.00  0.00     0.275 HD
ATOM     26  H8  X6X d   1      47.700  -4.119  14.686  0.00  0.00     0.275 HD
ENDBRANCH   3  23
TORSDOF 6
