REMARK  11 active torsions:
REMARK  status: ('A' for Active; 'I' for Inactive)
REMARK    1  A    between atoms: C21_1  and  C20_2 
REMARK    2  A    between atoms: C31_4  and  O33_5 
REMARK    3  A    between atoms: C27_6  and  C28_7 
REMARK    4  A    between atoms: C37_12  and  C38_13 
REMARK    5  A    between atoms: C37_12  and  C39_14 
REMARK    6  A    between atoms: C16_21  and  C17_22 
REMARK    7  A    between atoms: C3_26  and  C4_27 
REMARK    8  A    between atoms: C7_30  and  O9_31 
REMARK    9  A    between atoms: C10_32  and  C11_33 
REMARK   10  A    between atoms: C10_32  and  C12_34 
REMARK   11  A    between atoms: C12_34  and  O13_35 
ROOT
ATOM      1  C20 5VN d   1      37.611 -10.034  41.018  0.00  0.00    -0.010 C 
ATOM      2  C34 5VN d   1      37.798 -11.468  41.265  0.00  0.00    -0.029 C 
ATOM      3  C31 5VN d   1      39.116 -11.835  42.063  0.00  0.00     0.054 C 
ATOM      4  C27 5VN d   1      38.950 -11.192  43.395  0.00  0.00     0.081 C 
ATOM      5  C35 5VN d   1      39.998 -11.604  44.436  0.00  0.00    -0.045 C 
ATOM      6  C36 5VN d   1      41.333 -10.877  44.255  0.00  0.00    -0.057 C 
ATOM      7  C37 5VN d   1      41.129  -9.364  44.300  0.00  0.00    -0.047 C 
ATOM      8  C40 5VN d   1      40.218  -8.983  43.151  0.00  0.00    -0.051 C 
ATOM      9  C25 5VN d   1      38.862  -9.672  43.354  0.00  0.00    -0.012 C 
ATOM     10  C22 5VN d   1      37.866  -9.232  42.294  0.00  0.00    -0.069 C 
ATOM     11  C23 5VN d   1      37.217  -8.046  42.585  0.00  0.00    -0.099 C 
ATOM     12  C24 5VN d   1      36.210  -7.504  41.629  0.00  0.00    -0.045 C 
ATOM     13  C14 5VN d   1      36.540  -8.113  40.284  0.00  0.00    -0.036 C 
ATOM     14  C16 5VN d   1      36.301  -9.664  40.339  0.00  0.00    -0.028 C 
ATOM     15  C18 5VN d   1      36.317 -10.292  38.899  0.00  0.00    -0.057 C 
ATOM     16  C19 5VN d   1      35.559  -9.463  37.854  0.00  0.00    -0.059 C 
ATOM     17  C1  5VN d   1      36.150  -8.049  37.853  0.00  0.00    -0.035 C 
ATOM     18  C3  5VN d   1      35.854  -7.346  39.208  0.00  0.00    -0.035 C 
ATOM     19  C5  5VN d   1      36.454  -5.977  39.151  0.00  0.00    -0.055 C 
ATOM     20  C6  5VN d   1      35.785  -5.188  38.045  0.00  0.00    -0.040 C 
ATOM     21  C7  5VN d   1      36.194  -5.791  36.739  0.00  0.00     0.045 C 
ATOM     22  C10 5VN d   1      35.697  -7.226  36.635  0.00  0.00     0.007 C 
ATOM     23  H4  5VN d   1      37.832 -11.982  40.293  0.00  0.00     0.038 H 
ATOM     24  H5  5VN d   1      36.935 -11.832  41.842  0.00  0.00     0.038 H 
ATOM     25  H6  5VN d   1      39.123 -12.926  42.205  0.00  0.00     0.085 H 
ATOM     26  H8  5VN d   1      40.173 -12.687  44.349  0.00  0.00     0.035 H 
ATOM     27  H9  5VN d   1      39.606 -11.375  45.438  0.00  0.00     0.035 H 
ATOM     28  H10 5VN d   1      41.768 -11.155  43.283  0.00  0.00     0.034 H 
ATOM     29  H11 5VN d   1      42.019 -11.174  45.062  0.00  0.00     0.034 H 
ATOM     30  H18 5VN d   1      40.663  -9.312  42.200  0.00  0.00     0.035 H 
ATOM     31  H19 5VN d   1      40.080  -7.892  43.133  0.00  0.00     0.035 H 
ATOM     32  H20 5VN d   1      38.477  -9.343  44.331  0.00  0.00     0.049 H 
ATOM     33  H21 5VN d   1      37.440  -7.511  43.507  0.00  0.00     0.077 H 
ATOM     34  H22 5VN d   1      36.282  -6.407  41.580  0.00  0.00     0.039 H 
ATOM     35  H23 5VN d   1      35.195  -7.792  41.940  0.00  0.00     0.039 H 
ATOM     36  H24 5VN d   1      37.618  -7.978  40.112  0.00  0.00     0.042 H 
ATOM     37  H28 5VN d   1      35.857 -11.290  38.950  0.00  0.00     0.034 H 
ATOM     38  H29 5VN d   1      37.364 -10.387  38.574  0.00  0.00     0.034 H 
ATOM     39  H30 5VN d   1      34.491  -9.421  38.114  0.00  0.00     0.033 H 
ATOM     40  H31 5VN d   1      35.677  -9.918  36.859  0.00  0.00     0.033 H 
ATOM     41  H32 5VN d   1      37.242  -8.152  37.774  0.00  0.00     0.042 H 
ATOM     42  H36 5VN d   1      37.532  -6.056  38.947  0.00  0.00     0.034 H 
ATOM     43  H37 5VN d   1      36.299  -5.467  40.113  0.00  0.00     0.034 H 
ATOM     44  H38 5VN d   1      36.106  -4.137  38.088  0.00  0.00     0.036 H 
ATOM     45  H39 5VN d   1      34.692  -5.242  38.156  0.00  0.00     0.036 H 
ATOM     46  H40 5VN d   1      37.291  -5.780  36.664  0.00  0.00     0.084 H 
ENDROOT
BRANCH  22  47
ATOM     47  C11 5VN d   1      34.188  -7.230  36.469  0.00  0.00    -0.064 C 
ATOM     48  H42 5VN d   1      33.830  -8.268  36.394  0.00  0.00     0.028 H 
ATOM     49  H43 5VN d   1      33.918  -6.682  35.554  0.00  0.00     0.028 H 
ATOM     50  H44 5VN d   1      33.722  -6.744  37.339  0.00  0.00     0.028 H 
ENDBRANCH  22  47
BRANCH  22  51
ATOM     51  C12 5VN d   1      36.307  -7.823  35.390  0.00  0.00     0.026 C 
ATOM     52  H45 5VN d   1      35.970  -8.864  35.280  0.00  0.00     0.075 H 
ATOM     53  H46 5VN d   1      37.404  -7.800  35.472  0.00  0.00     0.075 H 
BRANCH  51  54
ATOM     54  O13 5VN d   1      35.899  -7.067  34.247  0.00  0.00    -0.400 OA
ATOM     55  H47 5VN d   1      36.191  -6.168  34.343  0.00  0.00     0.209 HD
ENDBRANCH  51  54
ENDBRANCH  22  51
BRANCH  21  56
ATOM     56  O9  5VN d   1      35.632  -5.027  35.661  0.00  0.00    -0.395 OA
ATOM     57  H41 5VN d   1      35.893  -5.411  34.832  0.00  0.00     0.210 HD
ENDBRANCH  21  56
BRANCH  18  58
ATOM     58  C4  5VN d   1      34.408  -7.204  39.641  0.00  0.00    -0.068 C 
ATOM     59  H33 5VN d   1      34.365  -6.690  40.612  0.00  0.00     0.028 H 
ATOM     60  H34 5VN d   1      33.953  -8.201  39.734  0.00  0.00     0.028 H 
ATOM     61  H35 5VN d   1      33.856  -6.618  38.891  0.00  0.00     0.028 H 
ENDBRANCH  18  58
BRANCH  14  62
ATOM     62  C17 5VN d   1      35.052 -10.155  41.124  0.00  0.00    -0.068 C 
ATOM     63  H25 5VN d   1      35.003 -11.253  41.085  0.00  0.00     0.028 H 
ATOM     64  H26 5VN d   1      34.144  -9.731  40.671  0.00  0.00     0.028 H 
ATOM     65  H27 5VN d   1      35.126  -9.829  42.172  0.00  0.00     0.028 H 
ENDBRANCH  14  62
BRANCH   1  66
ATOM     66  C21 5VN d   1      38.617  -9.707  39.972  0.00  0.00    -0.064 C 
ATOM     67  H1  5VN d   1      39.625  -9.935  40.349  0.00  0.00     0.028 H 
ATOM     68  H2  5VN d   1      38.552  -8.638  39.722  0.00  0.00     0.028 H 
ATOM     69  H3  5VN d   1      38.418 -10.307  39.072  0.00  0.00     0.028 H 
ENDBRANCH   1  66
BRANCH   3  70
ATOM     70  O33 5VN d   1      40.382 -11.506  41.428  0.00  0.00    -0.394 OA
ATOM     71  H7  5VN d   1      40.425 -10.569  41.277  0.00  0.00     0.210 HD
ENDBRANCH   3  70
BRANCH   4  72
ATOM     72  C28 5VN d   1      37.579 -11.741  43.736  0.00  0.00     0.185 C 
ATOM     73  O30 5VN d   1      36.672 -10.930  44.014  0.00  0.00    -0.647 OA
ATOM     74  O29 5VN d   1      37.414 -12.961  43.543  0.00  0.00    -0.647 OA
ENDBRANCH   4  72
BRANCH   7  75
ATOM     75  C38 5VN d   1      40.545  -8.938  45.627  0.00  0.00    -0.069 C 
ATOM     76  H12 5VN d   1      40.408  -7.847  45.634  0.00  0.00     0.028 H 
ATOM     77  H13 5VN d   1      41.229  -9.227  46.438  0.00  0.00     0.028 H 
ATOM     78  H14 5VN d   1      39.572  -9.430  45.775  0.00  0.00     0.028 H 
ENDBRANCH   7  75
BRANCH   7  79
ATOM     79  C39 5VN d   1      42.454  -8.633  44.215  0.00  0.00    -0.069 C 
ATOM     80  H15 5VN d   1      42.953  -8.888  43.269  0.00  0.00     0.028 H 
ATOM     81  H16 5VN d   1      43.093  -8.932  45.059  0.00  0.00     0.028 H 
ATOM     82  H17 5VN d   1      42.278  -7.548  44.256  0.00  0.00     0.028 H 
ENDBRANCH   7  79
TORSDOF 11
