REMARK  5 active torsions:
REMARK  status: ('A' for Active; 'I' for Inactive)
REMARK    1  A    between atoms: O13_21  and  C1_1 
REMARK    2  A    between atoms: C14_4  and  C15_5 
REMARK    3  A    between atoms: C14_4  and  O13_21 
REMARK    4  A    between atoms: C19_9  and  C21_11 
REMARK    5  A    between atoms: C8_16  and  C10_18 
REMARK       I    between atoms: C10_18  and  N11_19 
ROOT
ATOM      1  C1  5WD d   1       3.414  10.040   1.794  0.00  0.00     0.070 A 
ATOM      2  C2  5WD d   1       2.123   9.594   2.205  0.00  0.00    -0.049 A 
ATOM      3  C3  5WD d   1       1.798   8.212   2.285  0.00  0.00    -0.054 A 
ATOM      4  C4  5WD d   1       4.388   9.077   1.465  0.00  0.00    -0.039 A 
ATOM      5  C5  5WD d   1       4.055   7.728   1.551  0.00  0.00    -0.004 A 
ATOM      6  C6  5WD d   1       2.805   7.281   1.945  0.00  0.00     0.043 A 
ATOM      7  N7  5WD d   1       2.804   5.918   1.923  0.00  0.00    -0.351 N 
ATOM      8  C8  5WD d   1       3.986   5.453   1.551  0.00  0.00     0.101 A 
ATOM      9  C9  5WD d   1       4.822   6.468   1.310  0.00  0.00    -0.040 A 
ATOM     10  H1  5WD d   1       1.369  10.329   2.463  0.00  0.00     0.087 H 
ATOM     11  H2  5WD d   1       0.813   7.884   2.596  0.00  0.00     0.087 H 
ATOM     12  H9  5WD d   1       5.380   9.381   1.150  0.00  0.00     0.089 H 
ATOM     13  H10 5WD d   1       1.993   5.330   2.163  0.00  0.00     0.166 HD
ATOM     14  H11 5WD d   1       5.862   6.391   0.998  0.00  0.00     0.088 H 
ENDROOT
BRANCH   1  15
ATOM     15  O13 5WD d   1       3.814  11.399   1.693  0.00  0.00    -0.347 OA
BRANCH  15  16
ATOM     16  C14 5WD d   1       5.182  11.790   1.960  0.00  0.00     0.050 C 
ATOM     17  H3  5WD d   1       5.363  11.703   3.042  0.00  0.00     0.082 H 
ATOM     18  H4  5WD d   1       5.851  11.103   1.420  0.00  0.00     0.082 H 
BRANCH  16  19
ATOM     19  C15 5WD d   1       5.510  13.224   1.528  0.00  0.00    -0.033 A 
ATOM     20  C16 5WD d   1       5.915  13.486   0.206  0.00  0.00    -0.075 A 
ATOM     21  C17 5WD d   1       6.248  14.797  -0.175  0.00  0.00    -0.081 A 
ATOM     22  H5  5WD d   1       5.970  12.679  -0.516  0.00  0.00     0.084 H 
ATOM     23  C18 5WD d   1       6.238  15.841   0.768  0.00  0.00    -0.066 A 
ATOM     24  H6  5WD d   1       6.515  15.006  -1.205  0.00  0.00     0.083 H 
ATOM     25  C19 5WD d   1       5.884  15.581   2.104  0.00  0.00     0.041 A 
ATOM     26  H7  5WD d   1       6.503  16.847   0.464  0.00  0.00     0.085 H 
ATOM     27  C20 5WD d   1       5.543  14.264   2.479  0.00  0.00    -0.058 A 
ATOM     28  H8  5WD d   1       5.303  14.049   3.514  0.00  0.00     0.086 H 
BRANCH  25  29
ATOM     29  C21 5WD d   1       5.880  16.704   3.120  0.00  0.00     0.209 C 
ATOM     30  O22 5WD d   1       6.762  16.685   4.124  0.00  0.00    -0.644 OA
ATOM     31  O23 5WD d   1       5.076  17.616   3.012  0.00  0.00    -0.644 OA
ENDBRANCH  25  29
ENDBRANCH  16  19
ENDBRANCH  15  16
ENDBRANCH   1  15
BRANCH   8  32
ATOM     32  C10 5WD d   1       4.439   4.056   1.402  0.00  0.00     0.266 C 
ATOM     33  N11 5WD d   1       5.718   3.735   1.115  0.00  0.00    -0.365 N 
ATOM     34  H12 5WD d   1       5.984   2.776   1.022  0.00  0.00     0.159 HD
ATOM     35  H13 5WD d   1       6.400   4.457   0.995  0.00  0.00     0.159 HD
ATOM     36  O12 5WD d   1       3.610   3.183   1.570  0.00  0.00    -0.266 OA
ENDBRANCH   8  32
TORSDOF 5
