REMARK  7 active torsions:
REMARK  status: ('A' for Active; 'I' for Inactive)
REMARK    1  A    between atoms: C9_23  and  C11_4 
REMARK    2  A    between atoms: C12_5  and  C13_6 
REMARK       I    between atoms: N4_18  and  C12_5 
REMARK    3  A    between atoms: C13_6  and  N14_25 
REMARK    4  A    between atoms: C18_9  and  C24_13 
REMARK       I    between atoms: C24_13  and  N25_29 
REMARK    5  A    between atoms: C6_20  and  C5_19 
REMARK       I    between atoms: N7_21  and  C6_20 
REMARK    6  A    between atoms: N7_21  and  C9_23 
REMARK    7  A    between atoms: C9_23  and  C10_24 
ROOT
ATOM      1  C1  5WC d   1      -2.084 -10.396  10.865  0.00  0.00    -0.030 A 
ATOM      2  C2  5WC d   1      -0.699 -10.193  11.559  0.00  0.00    -0.032 A 
ATOM      3  C3  5WC d   1      -2.026  -9.661   9.520  0.00  0.00     0.019 A 
ATOM      4  C12 5WC d   1      -0.266  -8.317   8.534  0.00  0.00     0.240 C 
ATOM      5  N4  5WC d   1      -0.658  -9.137   9.516  0.00  0.00    -0.332 N 
ATOM      6  C5  5WC d   1       0.255  -9.389  10.616  0.00  0.00     0.092 A 
ATOM      7  O15 5WC d   1       0.855  -7.799   8.461  0.00  0.00    -0.271 OA
ATOM      8  C34 5WC d   1      -2.924  -9.128  10.638  0.00  0.00    -0.040 A 
ATOM      9  H1  5WC d   1      -2.538 -11.383  11.036  0.00  0.00     0.043 H 
ATOM     10  H2  5WC d   1      -0.253 -11.175  11.778  0.00  0.00     0.037 H 
ATOM     11  H3  5WC d   1      -0.839  -9.636  12.497  0.00  0.00     0.037 H 
ATOM     12  H4  5WC d   1      -2.414 -10.006   8.550  0.00  0.00     0.073 H 
ATOM     13  H12 5WC d   1       0.640  -8.458  11.058  0.00  0.00     0.087 H 
ATOM     14  H21 5WC d   1      -2.661  -8.194  11.156  0.00  0.00     0.036 H 
ATOM     15  H22 5WC d   1      -4.018  -9.202  10.547  0.00  0.00     0.036 H 
ENDROOT
BRANCH   4  16
ATOM     16  C13 5WC d   1      -1.307  -7.998   7.522  0.00  0.00     0.091 C 
ATOM     17  H5  5WC d   1      -2.203  -7.611   8.029  0.00  0.00     0.082 H 
ATOM     18  H6  5WC d   1      -1.566  -8.910   6.965  0.00  0.00     0.082 H 
BRANCH  16  19
ATOM     19  N14 5WC d   1      -0.799  -6.984   6.589  0.00  0.00    -0.258 N 
ATOM     20  C16 5WC d   1      -0.114  -7.279   5.441  0.00  0.00     0.083 A 
ATOM     21  C17 5WC d   1       0.179  -6.130   4.718  0.00  0.00     0.031 A 
ATOM     22  C20 5WC d   1       0.339  -8.575   5.004  0.00  0.00     0.030 A 
ATOM     23  C18 5WC d   1      -0.458  -5.096   5.580  0.00  0.00     0.157 A 
ATOM     24  C23 5WC d   1       0.935  -6.148   3.508  0.00  0.00    -0.051 A 
ATOM     25  N19 5WC d   1      -1.060  -5.662   6.589  0.00  0.00    -0.165 NA
ATOM     26  C22 5WC d   1       1.368  -7.455   3.117  0.00  0.00     0.003 A 
ATOM     27  H9  5WC d   1       1.161  -5.254   2.938  0.00  0.00     0.087 H 
ATOM     28  N21 5WC d   1       1.060  -8.593   3.844  0.00  0.00    -0.271 NA
ATOM     29  H8  5WC d   1       1.961  -7.558   2.216  0.00  0.00     0.114 H 
ATOM     30  H7  5WC d   1       0.121  -9.479   5.561  0.00  0.00     0.118 H 
BRANCH  23  31
ATOM     31  C24 5WC d   1      -0.481  -3.674   5.261  0.00  0.00     0.270 C 
ATOM     32  N25 5WC d   1      -1.439  -2.852   5.835  0.00  0.00    -0.365 N 
ATOM     33  H18 5WC d   1      -1.456  -1.876   5.617  0.00  0.00     0.159 HD
ATOM     34  H19 5WC d   1      -2.113  -3.235   6.467  0.00  0.00     0.159 HD
ATOM     35  O26 5WC d   1       0.324  -3.293   4.441  0.00  0.00    -0.266 OA
ENDBRANCH  23  31
ENDBRANCH  16  19
ENDBRANCH   4  16
BRANCH   6  36
ATOM     36  C6  5WC d   1       1.389 -10.334  10.270  0.00  0.00     0.241 C 
ATOM     37  N7  5WC d   1       2.310 -10.481  11.229  0.00  0.00    -0.351 N 
ATOM     38  H13 5WC d   1       2.251  -9.912  12.049  0.00  0.00     0.163 HD
ATOM     39  O8  5WC d   1       1.360 -10.949   9.225  0.00  0.00    -0.271 OA
BRANCH  37  40
ATOM     40  C9  5WC d   1       3.399 -11.447  11.114  0.00  0.00     0.037 C 
ATOM     41  H14 5WC d   1       3.039 -12.291  10.507  0.00  0.00     0.079 H 
BRANCH  40  42
ATOM     42  C11 5WC d   1       4.681 -10.956  10.448  0.00  0.00     0.004 A 
ATOM     43  C27 5WC d   1       5.311  -9.807  10.909  0.00  0.00     0.146 A 
ATOM     44  C28 5WC d   1       6.480  -9.365  10.355  0.00  0.00     0.073 A 
ATOM     45  F   5WC d   1       4.785  -9.114  11.909  0.00  0.00    -0.204 F 
ATOM     46  C29 5WC d   1       7.107 -10.078   9.334  0.00  0.00    -0.059 A 
ATOM     47 CL   5WC d   1       7.179  -7.902  11.062  0.00  0.00    -0.081 Cl
ATOM     48  C30 5WC d   1       6.480 -11.225   8.850  0.00  0.00    -0.081 A 
ATOM     49  H10 5WC d   1       8.057  -9.749   8.928  0.00  0.00     0.086 H 
ATOM     50  C31 5WC d   1       5.265 -11.694   9.416  0.00  0.00    -0.072 A 
ATOM     51  H11 5WC d   1       6.928 -11.769   8.026  0.00  0.00     0.083 H 
ATOM     52  H20 5WC d   1       4.801 -12.605   9.055  0.00  0.00     0.084 H 
ENDBRANCH  40  42
BRANCH  40  53
ATOM     53  C10 5WC d   1       3.632 -11.949  12.584  0.00  0.00    -0.053 C 
ATOM     54  H15 5WC d   1       4.445 -12.690  12.594  0.00  0.00     0.030 H 
ATOM     55  H16 5WC d   1       2.710 -12.412  12.964  0.00  0.00     0.030 H 
ATOM     56  H17 5WC d   1       3.904 -11.097  13.224  0.00  0.00     0.030 H 
ENDBRANCH  40  53
ENDBRANCH  37  40
ENDBRANCH   6  36
TORSDOF 7
