REMARK  4 active torsions:
REMARK  status: ('A' for Active; 'I' for Inactive)
REMARK    1  A    between atoms: S1_1  and  N1_4 
REMARK    2  A    between atoms: N2_5  and  S1_1 
REMARK    3  A    between atoms: C9_15  and  N2_5 
REMARK    4  A    between atoms: C2_8  and  C9_15 
ROOT
ATOM      1  S2  5WN d   1      -6.035   5.608  13.760  0.00  0.00    -0.101 SA
ATOM      2  C1  5WN d   1      -5.990   3.939  14.209  0.00  0.00    -0.036 A 
ATOM      3  C2  5WN d   1      -4.763   3.401  14.222  0.00  0.00    -0.022 A 
ATOM      4  C3  5WN d   1      -3.745   4.366  13.852  0.00  0.00    -0.011 A 
ATOM      5  C4  5WN d   1      -4.315   5.646  13.563  0.00  0.00     0.015 A 
ATOM      6  C5  5WN d   1      -2.310   4.230  13.735  0.00  0.00    -0.071 A 
ATOM      7  C6  5WN d   1      -1.537   5.319  13.355  0.00  0.00    -0.082 A 
ATOM      8  C7  5WN d   1      -2.121   6.577  13.072  0.00  0.00    -0.082 A 
ATOM      9  C8  5WN d   1      -3.530   6.759  13.174  0.00  0.00    -0.066 A 
ATOM     10  H4  5WN d   1      -6.885   3.372  14.460  0.00  0.00     0.096 H 
ATOM     11  H5  5WN d   1      -1.837   3.277  13.944  0.00  0.00     0.084 H 
ATOM     12  H6  5WN d   1      -0.462   5.203  13.273  0.00  0.00     0.083 H 
ATOM     13  H7  5WN d   1      -1.491   7.408  12.775  0.00  0.00     0.083 H 
ATOM     14  H8  5WN d   1      -3.987   7.719  12.961  0.00  0.00     0.085 H 
ENDROOT
BRANCH   3  15
ATOM     15  C9  5WN d   1      -4.479   1.965  14.578  0.00  0.00     0.029 C 
ATOM     16  H9  5WN d   1      -5.303   1.336  14.210  0.00  0.00     0.072 H 
ATOM     17  H10 5WN d   1      -3.539   1.657  14.097  0.00  0.00     0.072 H 
BRANCH  15  18
ATOM     18  N2  5WN d   1      -4.354   1.787  16.016  0.00  0.00    -0.299 N 
ATOM     19  H3  5WN d   1      -3.644   2.224  16.569  0.00  0.00     0.174 HD
BRANCH  18  20
ATOM     20  S1  5WN d   1      -5.485   0.808  16.623  0.00  0.00     0.313 S 
ATOM     21  O1  5WN d   1      -6.766   1.250  16.161  0.00  0.00    -0.183 OA
ATOM     22  O2  5WN d   1      -5.207   0.762  18.024  0.00  0.00    -0.183 OA
BRANCH  20  23
ATOM     23  N1  5WN d   1      -5.194  -0.655  16.020  0.00  0.00    -0.312 N 
ATOM     24  H1  5WN d   1      -5.330  -0.830  15.045  0.00  0.00     0.170 HD
ATOM     25  H2  5WN d   1      -4.877  -1.389  16.620  0.00  0.00     0.170 HD
ENDBRANCH  20  23
ENDBRANCH  18  20
ENDBRANCH  15  18
ENDBRANCH   3  15
TORSDOF 4
