REMARK  4 active torsions:
REMARK  status: ('A' for Active; 'I' for Inactive)
REMARK    1  A    between atoms: C1_3  and  C2_4 
REMARK    2  A    between atoms: N2_14  and  C1_3 
REMARK    3  A    between atoms: S1_12  and  N1_13 
REMARK    4  A    between atoms: S1_12  and  N2_14 
ROOT
ATOM      1  C2  5WM d   1      -4.705   4.126  14.046  0.00  0.00    -0.017 A 
ATOM      2  C3  5WM d   1      -5.290   5.236  13.233  0.00  0.00    -0.006 A 
ATOM      3  C4  5WM d   1      -6.640   5.533  12.934  0.00  0.00    -0.071 A 
ATOM      4  C5  5WM d   1      -6.960   6.650  12.127  0.00  0.00    -0.082 A 
ATOM      5  C6  5WM d   1      -5.955   7.481  11.607  0.00  0.00    -0.082 A 
ATOM      6  C7  5WM d   1      -4.586   7.216  11.888  0.00  0.00    -0.061 A 
ATOM      7  C8  5WM d   1      -4.291   6.093  12.699  0.00  0.00     0.074 A 
ATOM      8  C9  5WM d   1      -3.387   4.162  14.112  0.00  0.00     0.021 A 
ATOM      9  S2  5WM d   1      -2.713   5.507  13.216  0.00  0.00     0.198 S 
ATOM     10  O3  5WM d   1      -2.114   6.470  14.110  0.00  0.00    -0.218 OA
ATOM     11  O4  5WM d   1      -1.943   5.039  12.081  0.00  0.00    -0.218 OA
ATOM     12  H3  5WM d   1      -7.431   4.903  13.324  0.00  0.00     0.084 H 
ATOM     13  H4  5WM d   1      -7.999   6.868  11.906  0.00  0.00     0.083 H 
ATOM     14  H5  5WM d   1      -6.224   8.329  10.988  0.00  0.00     0.083 H 
ATOM     15  H6  5WM d   1      -3.798   7.849  11.496  0.00  0.00     0.085 H 
ATOM     16  H7  5WM d   1      -2.787   3.438  14.661  0.00  0.00     0.103 H 
ENDROOT
BRANCH   1  17
ATOM     17  C1  5WM d   1      -5.585   3.100  14.696  0.00  0.00     0.029 C 
ATOM     18  H1  5WM d   1      -6.348   2.782  13.970  0.00  0.00     0.072 H 
ATOM     19  H2  5WM d   1      -6.076   3.560  15.566  0.00  0.00     0.072 H 
BRANCH  17  20
ATOM     20  N2  5WM d   1      -4.818   1.868  15.166  0.00  0.00    -0.299 N 
ATOM     21  H10 5WM d   1      -3.942   1.633  14.744  0.00  0.00     0.174 HD
BRANCH  20  22
ATOM     22  S1  5WM d   1      -5.438   0.913  16.383  0.00  0.00     0.313 S 
ATOM     23  O1  5WM d   1      -6.868   1.087  16.302  0.00  0.00    -0.183 OA
ATOM     24  O2  5WM d   1      -4.807   1.291  17.617  0.00  0.00    -0.183 OA
BRANCH  22  25
ATOM     25  N1  5WM d   1      -5.065  -0.583  16.076  0.00  0.00    -0.312 N 
ATOM     26  H8  5WM d   1      -5.415  -1.026  15.251  0.00  0.00     0.170 HD
ATOM     27  H9  5WM d   1      -4.478  -1.091  16.706  0.00  0.00     0.170 HD
ENDBRANCH  22  25
ENDBRANCH  20  22
ENDBRANCH  17  20
ENDBRANCH   1  17
TORSDOF 4
