REMARK  2 active torsions:
REMARK  status: ('A' for Active; 'I' for Inactive)
REMARK    1  A    between atoms: C5_2  and  C6_3 
REMARK       I    between atoms: N1_4  and  C5_2 
REMARK    2  A    between atoms: C_11  and  N_12 
ROOT
ATOM      1  C4  5WZ d   1       0.679   7.627  32.976  0.00  0.00    -0.024 C 
ATOM      2  C5  5WZ d   1       0.671  11.409  32.882  0.00  0.00     0.231 C 
ATOM      3  N1  5WZ d   1       1.071  10.110  32.809  0.00  0.00    -0.351 N 
ATOM      4  O   5WZ d   1       1.123  12.288  32.150  0.00  0.00    -0.272 OA
ATOM      5  C2  5WZ d   1       2.144   9.613  31.948  0.00  0.00    -0.001 C 
ATOM      6  C1  5WZ d   1       1.595   8.677  30.865  0.00  0.00    -0.024 C 
ATOM      7  C3  5WZ d   1       0.438   9.017  33.585  0.00  0.00    -0.001 C 
ATOM      8  C   5WZ d   1       0.627   7.669  31.459  0.00  0.00     0.103 C 
ATOM      9  H1  5WZ d   1      -0.096   6.937  33.342  0.00  0.00     0.038 H 
ATOM     10  H2  5WZ d   1       1.669   7.266  33.290  0.00  0.00     0.038 H 
ATOM     11  H6  5WZ d   1       2.872   9.063  32.562  0.00  0.00     0.064 H 
ATOM     12  H7  5WZ d   1       2.642  10.467  31.466  0.00  0.00     0.064 H 
ATOM     13  H8  5WZ d   1       2.432   8.139  30.396  0.00  0.00     0.038 H 
ATOM     14  H9  5WZ d   1       1.071   9.274  30.105  0.00  0.00     0.038 H 
ATOM     15  H10 5WZ d   1       0.849   9.028  34.605  0.00  0.00     0.064 H 
ATOM     16  H11 5WZ d   1      -0.646   9.198  33.625  0.00  0.00     0.064 H 
ATOM     17  H12 5WZ d   1      -0.386   7.994  31.178  0.00  0.00     0.084 H 
ENDROOT
BRANCH   2  18
ATOM     18  C6  5WZ d   1      -0.402  11.726  33.773  0.00  0.00     0.056 A 
ATOM     19  C7  5WZ d   1      -1.143  12.989  33.486  0.00  0.00    -0.089 A 
ATOM     20  C8  5WZ d   1      -0.204  12.938  34.635  0.00  0.00    -0.089 A 
ATOM     21  H4  5WZ d   1      -1.855  13.544  32.877  0.00  0.00     0.078 H 
ATOM     22  H5  5WZ d   1       0.277  13.424  35.483  0.00  0.00     0.078 H 
ATOM     23  H3  5WZ d   1      -0.909  10.823  34.142  0.00  0.00     0.067 H 
ENDBRANCH   2  18
BRANCH   8  24
ATOM     24  N   5WZ d   1       0.825   6.328  30.902  0.00  0.00    -0.075 N 
ATOM     25  H13 5WZ d   1       0.166   5.690  31.320  0.00  0.00     0.274 HD
ATOM     26  H14 5WZ d   1       1.764   6.018  31.098  0.00  0.00     0.274 HD
ATOM     27  H15 5WZ d   1       0.681   6.354  29.905  0.00  0.00     0.274 HD
ENDBRANCH   8  24
TORSDOF 2
