REMARK  4 active torsions:
REMARK  status: ('A' for Active; 'I' for Inactive)
REMARK    1  A    between atoms: N1_4  and  C2_12 
REMARK    2  A    between atoms: C1_9  and  C_10 
REMARK    3  A    between atoms: C2_12  and  C3_13 
REMARK    4  A    between atoms: C3_13  and  O_14 
ROOT
ATOM      1  C4  5WU d   1     -10.041  39.125  22.775  0.00  0.00     0.046 A 
ATOM      2  C5  5WU d   1      -9.806  38.756  24.081  0.00  0.00     0.060 A 
ATOM      3  C6  5WU d   1      -8.988  37.617  24.449  0.00  0.00     0.163 C 
ATOM      4  N1  5WU d   1     -10.876  40.201  22.835  0.00  0.00    -0.271 N 
ATOM      5  C7  5WU d   1      -8.320  36.865  23.326  0.00  0.00    -0.005 C 
ATOM      6  C8  5WU d   1      -9.058  36.969  21.981  0.00  0.00    -0.053 C 
ATOM      7  C9  5WU d   1      -9.431  38.422  21.605  0.00  0.00    -0.024 C 
ATOM      8  O1  5WU d   1      -8.809  37.306  25.632  0.00  0.00    -0.292 OA
ATOM      9  C1  5WU d   1     -10.536  39.692  24.863  0.00  0.00     0.067 A 
ATOM     10  N   5WU d   1     -11.195  40.537  24.106  0.00  0.00    -0.176 NA
ATOM     11  H1  5WU d   1      -8.261  35.803  23.607  0.00  0.00     0.044 H 
ATOM     12  H2  5WU d   1      -7.304  37.267  23.196  0.00  0.00     0.044 H 
ATOM     13  H3  5WU d   1      -9.982  36.375  22.042  0.00  0.00     0.034 H 
ATOM     14  H4  5WU d   1      -8.409  36.559  21.193  0.00  0.00     0.034 H 
ATOM     15  H5  5WU d   1      -8.524  38.959  21.293  0.00  0.00     0.042 H 
ATOM     16  H6  5WU d   1     -10.153  38.407  20.775  0.00  0.00     0.042 H 
ENDROOT
BRANCH   4  17
ATOM     17  C2  5WU d   1     -11.362  41.061  21.755  0.00  0.00     0.036 C 
ATOM     18  H10 5WU d   1     -12.449  41.186  21.866  0.00  0.00     0.070 H 
ATOM     19  H11 5WU d   1     -11.145  40.575  20.792  0.00  0.00     0.070 H 
BRANCH  17  20
ATOM     20  C3  5WU d   1     -10.708  42.437  21.766  0.00  0.00     0.033 C 
ATOM     21  H12 5WU d   1     -10.855  42.891  22.757  0.00  0.00     0.076 H 
ATOM     22  H13 5WU d   1     -11.189  43.064  21.001  0.00  0.00     0.076 H 
BRANCH  20  23
ATOM     23  O   5WU d   1      -9.297  42.372  21.491  0.00  0.00    -0.399 OA
ATOM     24  H14 5WU d   1      -9.160  41.987  20.633  0.00  0.00     0.209 HD
ENDBRANCH  20  23
ENDBRANCH  17  20
ENDBRANCH   4  17
BRANCH   9  25
ATOM     25  C   5WU d   1     -10.586  39.853  26.344  0.00  0.00    -0.033 C 
ATOM     26  H7  5WU d   1     -11.259  40.684  26.600  0.00  0.00     0.035 H 
ATOM     27  H8  5WU d   1      -9.576  40.069  26.724  0.00  0.00     0.035 H 
ATOM     28  H9  5WU d   1     -10.960  38.925  26.801  0.00  0.00     0.035 H 
ENDBRANCH   9  25
TORSDOF 4
