REMARK  5 active torsions:
REMARK  status: ('A' for Active; 'I' for Inactive)
REMARK    1  A    between atoms: CAA_1  and  CAL_2 
REMARK    2  A    between atoms: NAQ_6  and  CAB_7 
REMARK    3  A    between atoms: CAM_13  and  NAK_14 
REMARK    4  A    between atoms: NAK_14  and  SAR_15 
REMARK    5  A    between atoms: SAR_15  and  CAC_18 
ROOT
ATOM      1  CAL 5WS d   1     -11.273  18.330  76.918  0.00  0.00    -0.046 A 
ATOM      2  CAI 5WS d   1     -10.589  19.373  76.313  0.00  0.00     0.034 A 
ATOM      3  CAN 5WS d   1      -9.607  20.082  76.992  0.00  0.00     0.228 A 
ATOM      4  OAD 5WS d   1      -9.039  20.996  76.404  0.00  0.00    -0.273 OA
ATOM      5  NAQ 5WS d   1      -9.290  19.783  78.264  0.00  0.00    -0.321 N 
ATOM      6  CAP 5WS d   1      -9.943  18.758  78.912  0.00  0.00     0.049 A 
ATOM      7  CAJ 5WS d   1      -9.632  18.414  80.243  0.00  0.00    -0.030 A 
ATOM      8  CAO 5WS d   1     -10.950  18.007  78.251  0.00  0.00    -0.003 A 
ATOM      9  CAH 5WS d   1     -11.602  16.964  78.941  0.00  0.00    -0.068 A 
ATOM     10  CAG 5WS d   1     -11.271  16.654  80.251  0.00  0.00    -0.056 A 
ATOM     11  CAM 5WS d   1     -10.282  17.374  80.901  0.00  0.00     0.044 A 
ATOM     12  H3  5WS d   1     -11.349  20.108  76.008  0.00  0.00     0.054 H 
ATOM     13  H4  5WS d   1     -10.107  18.952  75.419  0.00  0.00     0.054 H 
ATOM     14  H8  5WS d   1      -8.867  18.974  80.768  0.00  0.00     0.090 H 
ATOM     15  H9  5WS d   1     -12.376  16.395  78.438  0.00  0.00     0.085 H 
ATOM     16  H10 5WS d   1     -11.785  15.850  80.766  0.00  0.00     0.087 H 
ENDROOT
BRANCH  11  17
ATOM     17  NAK 5WS d   1      -9.961  17.080  82.162  0.00  0.00    -0.285 N 
ATOM     18  H11 5WS d   1     -10.445  17.512  82.923  0.00  0.00     0.178 HD
BRANCH  17  19
ATOM     19  SAR 5WS d   1      -8.713  15.958  82.456  0.00  0.00     0.227 S 
ATOM     20  OAE 5WS d   1      -8.909  14.722  81.576  0.00  0.00    -0.206 OA
ATOM     21  OAF 5WS d   1      -7.336  16.567  82.171  0.00  0.00    -0.206 OA
BRANCH  19  22
ATOM     22  CAC 5WS d   1      -8.794  15.568  84.195  0.00  0.00     0.033 C 
ATOM     23  H12 5WS d   1      -8.006  14.842  84.445  0.00  0.00     0.051 H 
ATOM     24  H13 5WS d   1      -9.778  15.135  84.428  0.00  0.00     0.051 H 
ATOM     25  H14 5WS d   1      -8.648  16.486  84.784  0.00  0.00     0.051 H 
ENDBRANCH  19  22
ENDBRANCH  17  19
ENDBRANCH  11  17
BRANCH   5  26
ATOM     26  CAB 5WS d   1      -8.209  20.600  78.925  0.00  0.00    -0.011 C 
ATOM     27  H5  5WS d   1      -7.837  21.356  78.218  0.00  0.00     0.057 H 
ATOM     28  H6  5WS d   1      -7.382  19.940  79.225  0.00  0.00     0.057 H 
ATOM     29  H7  5WS d   1      -8.620  21.101  79.814  0.00  0.00     0.057 H 
ENDBRANCH   5  26
BRANCH   1  30
ATOM     30  CAA 5WS d   1     -12.262  17.681  76.154  0.00  0.00    -0.114 C 
ATOM     31  H1  5WS d   1     -12.449  17.993  75.128  0.00  0.00     0.067 H 
ATOM     32  H2  5WS d   1     -12.839  16.867  76.590  0.00  0.00     0.067 H 
ENDBRANCH   1  30
TORSDOF 5
