REMARK  3 active torsions:
REMARK  status: ('A' for Active; 'I' for Inactive)
REMARK    1  A    between atoms: C3_13  and  C2_16 
REMARK    2  A    between atoms: N_17  and  C1_18 
REMARK    3  A    between atoms: N_17  and  C_19 
ROOT
ATOM      1  C4  5XL d   1      12.720   7.478  29.793  0.00  0.00    -0.053 C 
ATOM      2  C5  5XL d   1      12.773   6.680  28.510  0.00  0.00    -0.012 C 
ATOM      3  C6  5XL d   1      11.447   4.630  27.810  0.00  0.00     0.058 A 
ATOM      4  C11 5XL d   1      10.579   3.606  28.260  0.00  0.00     0.081 A 
ATOM      5  C7  5XL d   1      11.901   4.690  26.492  0.00  0.00    -0.056 A 
ATOM      6  C8  5XL d   1      11.484   3.753  25.582  0.00  0.00    -0.079 A 
ATOM      7  C9  5XL d   1      10.615   2.757  25.961  0.00  0.00    -0.061 A 
ATOM      8  C10 5XL d   1      10.149   2.708  27.266  0.00  0.00     0.052 A 
ATOM      9  C12 5XL d   1      10.208   3.560  29.704  0.00  0.00     0.261 A 
ATOM     10  C13 5XL d   1      11.441   5.532  30.066  0.00  0.00     0.126 A 
ATOM     11  N1  5XL d   1      11.848   5.564  28.755  0.00  0.00    -0.306 N 
ATOM     12  N2  5XL d   1      10.651   4.590  30.526  0.00  0.00    -0.308 N 
ATOM     13  C3  5XL d   1      11.978   6.626  30.777  0.00  0.00     0.025 C 
ATOM     14 CL   5XL d   1       8.931   1.514  27.576  0.00  0.00    -0.083 Cl
ATOM     15  O   5XL d   1       9.626   2.572  30.209  0.00  0.00    -0.267 OA
ATOM     16  H1  5XL d   1      13.136   8.469  29.966  0.00  0.00     0.087 H 
ATOM     17  H2  5XL d   1      13.359   6.884  27.615  0.00  0.00     0.112 H 
ATOM     18  H3  5XL d   1      12.582   5.476  26.188  0.00  0.00     0.087 H 
ATOM     19  H4  5XL d   1      11.841   3.798  24.559  0.00  0.00     0.083 H 
ATOM     20  H5  5XL d   1      10.295   2.012  25.241  0.00  0.00     0.086 H 
ATOM     21  H6  5XL d   1      10.363   4.614  31.483  0.00  0.00     0.170 HD
ENDROOT
BRANCH  13  22
ATOM     22  C2  5XL d   1      11.806   6.807  32.105  0.00  0.00    -0.013 C 
ATOM     23  N   5XL d   1      12.148   7.792  32.930  0.00  0.00    -0.398 N 
ATOM     24  H7  5XL d   1      11.286   5.986  32.595  0.00  0.00     0.112 H 
BRANCH  23  25
ATOM     25  C1  5XL d   1      12.779   9.068  32.499  0.00  0.00    -0.020 C 
ATOM     26  H8  5XL d   1      12.957   9.704  33.378  0.00  0.00     0.056 H 
ATOM     27  H9  5XL d   1      12.110   9.589  31.798  0.00  0.00     0.056 H 
ATOM     28  H10 5XL d   1      13.737   8.854  32.002  0.00  0.00     0.056 H 
ENDBRANCH  23  25
BRANCH  23  29
ATOM     29  C   5XL d   1      11.878   7.737  34.347  0.00  0.00    -0.020 C 
ATOM     30  H11 5XL d   1      11.414   6.771  34.595  0.00  0.00     0.056 H 
ATOM     31  H12 5XL d   1      11.194   8.553  34.622  0.00  0.00     0.056 H 
ATOM     32  H13 5XL d   1      12.820   7.845  34.904  0.00  0.00     0.056 H 
ENDBRANCH  23  29
ENDBRANCH  13  22
TORSDOF 3
