REMARK  6 active torsions:
REMARK  status: ('A' for Active; 'I' for Inactive)
REMARK    1  A    between atoms: C3_13  and  C4_1 
REMARK    2  A    between atoms: C5_3  and  C6_4 
REMARK    3  A    between atoms: C2_19  and  C5_3 
REMARK    4  A    between atoms: C3_13  and  C2_19 
REMARK    5  A    between atoms: C2_19  and  C1_20 
REMARK    6  A    between atoms: C1_20  and  C_21 
ROOT
ATOM      1  C14 5XK d   1       3.427  26.919   7.074  0.00  0.00     0.081 A 
ATOM      2  C6  5XK d   1       0.604  28.348   9.786  0.00  0.00    -0.012 C 
ATOM      3  C11 5XK d   1       2.793  24.443   5.866  0.00  0.00    -0.079 A 
ATOM      4  C7  5XK d   1      -0.472  27.314   9.639  0.00  0.00    -0.058 C 
ATOM      5  C8  5XK d   1       0.089  26.250   8.709  0.00  0.00    -0.012 C 
ATOM      6  C9  5XK d   1       2.206  26.250   7.314  0.00  0.00     0.058 A 
ATOM      7  C10 5XK d   1       1.895  25.031   6.727  0.00  0.00    -0.056 A 
ATOM      8  C12 5XK d   1       4.008  25.061   5.597  0.00  0.00    -0.061 A 
ATOM      9  C13 5XK d   1       4.325  26.260   6.211  0.00  0.00     0.052 A 
ATOM     10  N1  5XK d   1       2.747  28.692   8.646  0.00  0.00    -0.308 N 
ATOM     11 CL   5XK d   1       5.980  26.795   6.003  0.00  0.00    -0.083 Cl
ATOM     12  C15 5XK d   1       3.691  28.217   7.743  0.00  0.00     0.261 A 
ATOM     13  O   5XK d   1       4.645  28.921   7.432  0.00  0.00    -0.267 OA
ATOM     14  C16 5XK d   1       1.645  28.029   8.856  0.00  0.00     0.121 A 
ATOM     15  N   5XK d   1       1.325  26.853   8.213  0.00  0.00    -0.307 N 
ATOM     16  H6  5XK d   1       2.552  23.496   5.397  0.00  0.00     0.083 H 
ATOM     17  H7  5XK d   1      -1.456  27.323  10.104  0.00  0.00     0.086 H 
ATOM     18  H8  5XK d   1      -0.329  25.273   8.470  0.00  0.00     0.112 H 
ATOM     19  H9  5XK d   1       0.951  24.546   6.946  0.00  0.00     0.087 H 
ATOM     20  H10 5XK d   1       4.707  24.604   4.906  0.00  0.00     0.086 H 
ATOM     21  H11 5XK d   1       2.914  29.547   9.137  0.00  0.00     0.170 HD
ENDROOT
BRANCH   2  22
ATOM     22  C5  5XK d   1       0.617  29.371  10.634  0.00  0.00    -0.034 C 
ATOM     23  H4  5XK d   1       0.695  30.263   9.995  0.00  0.00     0.040 H 
ATOM     24  H5  5XK d   1       1.548  29.248  11.207  0.00  0.00     0.040 H 
BRANCH  22  25
ATOM     25  C2  5XK d   1      -0.417  29.725  11.658  0.00  0.00    -0.051 C 
ATOM     26  H14 5XK d   1      -1.302  29.083  11.540  0.00  0.00     0.040 H 
BRANCH  25  27
ATOM     27  C3  5XK d   1       0.127  29.566  13.052  0.00  0.00    -0.065 C 
ATOM     28  H12 5XK d   1       1.046  30.164  13.136  0.00  0.00     0.033 H 
ATOM     29  H13 5XK d   1      -0.623  29.945  13.762  0.00  0.00     0.033 H 
BRANCH  27  30
ATOM     30  C4  5XK d   1       0.456  28.127  13.424  0.00  0.00    -0.076 C 
ATOM     31  H1  5XK d   1       0.846  28.094  14.452  0.00  0.00     0.027 H 
ATOM     32  H2  5XK d   1       1.214  27.733  12.731  0.00  0.00     0.027 H 
ATOM     33  H3  5XK d   1      -0.455  27.514  13.358  0.00  0.00     0.027 H 
ENDBRANCH  27  30
ENDBRANCH  25  27
BRANCH  25  34
ATOM     34  C1  5XK d   1      -0.787  31.200  11.384  0.00  0.00    -0.065 C 
ATOM     35  H15 5XK d   1       0.140  31.784  11.286  0.00  0.00     0.033 H 
ATOM     36  H16 5XK d   1      -1.372  31.581  12.234  0.00  0.00     0.033 H 
BRANCH  34  37
ATOM     37  C   5XK d   1      -1.595  31.367  10.131  0.00  0.00    -0.076 C 
ATOM     38  H17 5XK d   1      -1.829  32.432   9.985  0.00  0.00     0.027 H 
ATOM     39  H18 5XK d   1      -2.530  30.794  10.219  0.00  0.00     0.027 H 
ATOM     40  H19 5XK d   1      -1.018  30.997   9.271  0.00  0.00     0.027 H 
ENDBRANCH  34  37
ENDBRANCH  25  34
ENDBRANCH  22  25
ENDBRANCH   2  22
TORSDOF 6
