REMARK  9 active torsions:
REMARK  status: ('A' for Active; 'I' for Inactive)
REMARK    1  A    between atoms: C1_1  and  C24_19 
REMARK    2  A    between atoms: C6_6  and  C2_2 
REMARK    3  A    between atoms: C11_11  and  N9_9 
REMARK    4  A    between atoms: C15_15  and  C11_11 
REMARK    5  A    between atoms: C13_13  and  C39_25 
REMARK    6  A    between atoms: C24_19  and  C25_20 
REMARK    7  A    between atoms: C25_20  and  C26_21 
REMARK    8  A    between atoms: C25_20  and  N29_24 
REMARK    9  A    between atoms: C39_25  and  N1_26 
ROOT
ATOM      1  C6  5XP d   1      -7.048 -11.527  21.150  0.00  0.00     0.230 A 
ATOM      2  N7  5XP d   1      -6.953 -10.922  19.933  0.00  0.00    -0.106 NA
ATOM      3  N8  5XP d   1      -5.975 -10.095  20.092  0.00  0.00    -0.046 NA
ATOM      4  N9  5XP d   1      -5.518 -10.250  21.356  0.00  0.00    -0.164 N 
ATOM      5  N10 5XP d   1      -6.201 -11.155  22.087  0.00  0.00    -0.128 NA
ENDROOT
BRANCH   4   6
ATOM      6  C11 5XP d   1      -4.399  -9.487  21.857  0.00  0.00     0.060 C 
ATOM      7  H2  5XP d   1      -3.808 -10.113  22.542  0.00  0.00     0.077 H 
ATOM      8  H3  5XP d   1      -4.772  -8.604  22.397  0.00  0.00     0.077 H 
BRANCH   6   9
ATOM      9  C15 5XP d   1      -3.513  -9.033  20.692  0.00  0.00    -0.036 A 
ATOM     10  C14 5XP d   1      -2.473  -9.824  20.141  0.00  0.00    -0.068 A 
ATOM     11  C13 5XP d   1      -1.699  -9.329  19.050  0.00  0.00    -0.033 A 
ATOM     12  H5  5XP d   1      -2.266 -10.806  20.550  0.00  0.00     0.085 H 
ATOM     13  C12 5XP d   1      -1.959  -8.037  18.534  0.00  0.00    -0.075 A 
ATOM     14  C17 5XP d   1      -3.000  -7.261  19.090  0.00  0.00    -0.082 A 
ATOM     15  H4  5XP d   1      -1.363  -7.646  17.717  0.00  0.00     0.084 H 
ATOM     16  C16 5XP d   1      -3.767  -7.767  20.152  0.00  0.00    -0.075 A 
ATOM     17  H7  5XP d   1      -3.207  -6.273  18.696  0.00  0.00     0.083 H 
ATOM     18  H6  5XP d   1      -4.571  -7.166  20.561  0.00  0.00     0.084 H 
BRANCH  11  19
ATOM     19  C39 5XP d   1      -0.581 -10.140  18.408  0.00  0.00     0.103 C 
ATOM     20  H14 5XP d   1      -0.370  -9.728  17.410  0.00  0.00     0.082 H 
ATOM     21  H15 5XP d   1      -0.910 -11.185  18.311  0.00  0.00     0.082 H 
BRANCH  19  22
ATOM     22  N1  5XP d   1       0.649 -10.103  19.205  0.00  0.00    -0.075 N 
ATOM     23  H16 5XP d   1       1.362 -10.650  18.748  0.00  0.00     0.274 HD
ATOM     24  H17 5XP d   1       0.468 -10.485  20.120  0.00  0.00     0.274 HD
ATOM     25  H18 5XP d   1       0.963  -9.149  19.295  0.00  0.00     0.274 HD
ENDBRANCH  19  22
ENDBRANCH  11  19
ENDBRANCH   6   9
ENDBRANCH   4   6
BRANCH   1  26
ATOM     26  C2  5XP d   1      -8.030 -12.518  21.416  0.00  0.00     0.160 A 
ATOM     27  C1  5XP d   1      -8.447 -12.989  22.603  0.00  0.00     0.040 A 
ATOM     28  C5  5XP d   1      -9.400 -13.925  22.258  0.00  0.00     0.208 A 
ATOM     29  N4  5XP d   1      -9.612 -14.087  20.955  0.00  0.00    -0.236 N 
ATOM     30  O23 5XP d   1     -10.038 -14.605  23.214  0.00  0.00    -0.170 OA
ATOM     31  O3  5XP d   1      -8.691 -13.135  20.379  0.00  0.00    -0.231 OA
ATOM     32  H1  5XP d   1     -10.246 -14.708  20.493  0.00  0.00     0.197 HD
BRANCH  27  33
ATOM     33  C24 5XP d   1      -8.080 -12.726  24.047  0.00  0.00     0.002 C 
ATOM     34  H8  5XP d   1      -7.047 -12.351  24.085  0.00  0.00     0.044 H 
ATOM     35  H9  5XP d   1      -8.147 -13.672  24.605  0.00  0.00     0.044 H 
BRANCH  33  36
ATOM     36  C25 5XP d   1      -9.012 -11.684  24.722  0.00  0.00     0.186 C 
ATOM     37  H10 5XP d   1      -9.977 -11.703  24.194  0.00  0.00     0.101 H 
BRANCH  36  38
ATOM     38  C26 5XP d   1      -9.261 -11.980  26.197  0.00  0.00     0.204 C 
ATOM     39  O27 5XP d   1      -9.214 -11.036  27.012  0.00  0.00    -0.646 OA
ATOM     40  O28 5XP d   1      -9.559 -13.146  26.492  0.00  0.00    -0.646 OA
ENDBRANCH  36  38
BRANCH  36  41
ATOM     41  N29 5XP d   1      -8.439 -10.318  24.627  0.00  0.00    -0.065 N 
ATOM     42  H11 5XP d   1      -9.061  -9.661  25.071  0.00  0.00     0.275 HD
ATOM     43  H12 5XP d   1      -8.324 -10.069  23.657  0.00  0.00     0.275 HD
ATOM     44  H13 5XP d   1      -7.543 -10.297  25.088  0.00  0.00     0.275 HD
ENDBRANCH  36  41
ENDBRANCH  33  36
ENDBRANCH  27  33
ENDBRANCH   1  26
TORSDOF 9
