REMARK  8 active torsions:
REMARK  status: ('A' for Active; 'I' for Inactive)
REMARK    1  A    between atoms: C1_1  and  C24_19 
REMARK    2  A    between atoms: C6_6  and  C2_2 
REMARK    3  A    between atoms: C11_11  and  N9_9 
REMARK    4  A    between atoms: C15_15  and  C11_11 
REMARK    5  A    between atoms: C13_13  and  C18_25 
REMARK    6  A    between atoms: C24_19  and  C25_20 
REMARK    7  A    between atoms: C25_20  and  C26_21 
REMARK    8  A    between atoms: C25_20  and  N29_24 
ROOT
ATOM      1  C6  5XO d   1     -17.080  -9.370   9.900  0.00  0.00     0.230 A 
ATOM      2  N7  5XO d   1     -17.264  -8.894  11.164  0.00  0.00    -0.106 NA
ATOM      3  N8  5XO d   1     -17.701  -7.694  10.995  0.00  0.00    -0.046 NA
ATOM      4  N9  5XO d   1     -17.767  -7.514   9.656  0.00  0.00    -0.164 N 
ATOM      5  N10 5XO d   1     -17.379  -8.562   8.884  0.00  0.00    -0.128 NA
ENDROOT
BRANCH   1   6
ATOM      6  C2  5XO d   1     -16.535 -10.701   9.727  0.00  0.00     0.162 A 
ATOM      7  C1  5XO d   1     -16.139 -11.264   8.577  0.00  0.00     0.054 A 
ATOM      8  C5  5XO d   1     -15.609 -12.550   8.862  0.00  0.00     0.274 A 
ATOM      9  N4  5XO d   1     -15.710 -12.730  10.199  0.00  0.00    -0.225 N 
ATOM     10  O23 5XO d   1     -15.160 -13.281   7.953  0.00  0.00    -0.266 OA
ATOM     11  O3  5XO d   1     -16.306 -11.501  10.799  0.00  0.00    -0.230 OA
ATOM     12  H1  5XO d   1     -15.432 -13.549  10.701  0.00  0.00     0.198 HD
BRANCH   7  13
ATOM     13  C24 5XO d   1     -16.166 -10.753   7.136  0.00  0.00     0.003 C 
ATOM     14  H8  5XO d   1     -16.998 -10.039   7.043  0.00  0.00     0.044 H 
ATOM     15  H9  5XO d   1     -16.345 -11.612   6.473  0.00  0.00     0.044 H 
BRANCH  13  16
ATOM     16  C25 5XO d   1     -14.873 -10.046   6.666  0.00  0.00     0.186 C 
ATOM     17  H10 5XO d   1     -14.077 -10.404   7.335  0.00  0.00     0.101 H 
BRANCH  16  18
ATOM     18  C26 5XO d   1     -14.460 -10.417   5.231  0.00  0.00     0.204 C 
ATOM     19  O27 5XO d   1     -14.065  -9.503   4.478  0.00  0.00    -0.646 OA
ATOM     20  O28 5XO d   1     -14.535 -11.625   4.920  0.00  0.00    -0.646 OA
ENDBRANCH  16  18
BRANCH  16  21
ATOM     21  N29 5XO d   1     -14.890  -8.558   6.775  0.00  0.00    -0.065 N 
ATOM     22  H11 5XO d   1     -14.011  -8.187   6.448  0.00  0.00     0.275 HD
ATOM     23  H12 5XO d   1     -15.029  -8.293   7.738  0.00  0.00     0.275 HD
ATOM     24  H13 5XO d   1     -15.641  -8.188   6.213  0.00  0.00     0.275 HD
ENDBRANCH  16  21
ENDBRANCH  13  16
ENDBRANCH   7  13
ENDBRANCH   1   6
BRANCH   4  25
ATOM     25  C11 5XO d   1     -18.223  -6.288   9.058  0.00  0.00     0.060 C 
ATOM     26  H2  5XO d   1     -18.580  -6.506   8.041  0.00  0.00     0.077 H 
ATOM     27  H3  5XO d   1     -17.377  -5.587   9.008  0.00  0.00     0.077 H 
BRANCH  25  28
ATOM     28  C15 5XO d   1     -19.348  -5.632   9.834  0.00  0.00    -0.036 A 
ATOM     29  C14 5XO d   1     -19.030  -4.548  10.648  0.00  0.00    -0.070 A 
ATOM     30  C13 5XO d   1     -20.053  -3.896  11.374  0.00  0.00    -0.061 A 
ATOM     31  H5  5XO d   1     -18.004  -4.206  10.725  0.00  0.00     0.085 H 
ATOM     32  C12 5XO d   1     -21.369  -4.371  11.285  0.00  0.00    -0.077 A 
ATOM     33  C17 5XO d   1     -21.688  -5.489  10.492  0.00  0.00    -0.082 A 
ATOM     34  H4  5XO d   1     -22.155  -3.868  11.837  0.00  0.00     0.084 H 
ATOM     35  C16 5XO d   1     -20.668  -6.128   9.746  0.00  0.00    -0.075 A 
ATOM     36  H7  5XO d   1     -22.706  -5.858  10.453  0.00  0.00     0.083 H 
ATOM     37  H6  5XO d   1     -20.896  -6.982   9.119  0.00  0.00     0.084 H 
BRANCH  30  38
ATOM     38  C18 5XO d   1     -19.716  -2.695  12.246  0.00  0.00    -0.051 C 
ATOM     39  H14 5XO d   1     -20.632  -2.324  12.729  0.00  0.00     0.033 H 
ATOM     40  H15 5XO d   1     -19.282  -1.899  11.623  0.00  0.00     0.033 H 
ATOM     41  H16 5XO d   1     -18.990  -2.994  13.017  0.00  0.00     0.033 H 
ENDBRANCH  30  38
ENDBRANCH  25  28
ENDBRANCH   4  25
TORSDOF 8
