REMARK  7 active torsions:
REMARK  status: ('A' for Active; 'I' for Inactive)
REMARK    1  A    between atoms: C1_1  and  C24_19 
REMARK    2  A    between atoms: C6_6  and  C2_2 
REMARK    3  A    between atoms: C11_11  and  N9_9 
REMARK    4  A    between atoms: C15_15  and  C11_11 
REMARK    5  A    between atoms: C24_19  and  C25_20 
REMARK    6  A    between atoms: C25_20  and  C26_21 
REMARK    7  A    between atoms: C25_20  and  N29_24 
ROOT
ATOM      1  C1  5XN d   1      93.297  16.961  29.128  0.00  0.00     0.054 A 
ATOM      2  C2  5XN d   1      93.599  16.669  30.405  0.00  0.00     0.162 A 
ATOM      3  O3  5XN d   1      92.667  17.175  31.280  0.00  0.00    -0.230 OA
ATOM      4  N4  5XN d   1      91.716  17.840  30.464  0.00  0.00    -0.225 N 
ATOM      5  C5  5XN d   1      92.080  17.719  29.161  0.00  0.00     0.274 A 
ATOM      6  O23 5XN d   1      91.477  18.181  28.172  0.00  0.00    -0.266 OA
ATOM      7  H1  5XN d   1      90.905  18.322  30.796  0.00  0.00     0.198 HD
ENDROOT
BRANCH   2   8
ATOM      8  C6  5XN d   1      94.745  15.899  30.927  0.00  0.00     0.230 A 
ATOM      9  N7  5XN d   1      94.843  15.631  32.258  0.00  0.00    -0.106 NA
ATOM     10  N8  5XN d   1      95.932  14.946  32.379  0.00  0.00    -0.046 NA
ATOM     11  N9  5XN d   1      96.452  14.826  31.133  0.00  0.00    -0.164 N 
ATOM     12  N10 5XN d   1      95.719  15.423  30.163  0.00  0.00    -0.128 NA
BRANCH  11  13
ATOM     13  C11 5XN d   1      97.694  14.109  30.902  0.00  0.00     0.060 C 
ATOM     14  H2  5XN d   1      98.228  14.567  30.057  0.00  0.00     0.077 H 
ATOM     15  H3  5XN d   1      97.471  13.058  30.668  0.00  0.00     0.077 H 
BRANCH  13  16
ATOM     16  C15 5XN d   1      98.568  14.175  32.149  0.00  0.00    -0.035 A 
ATOM     17  C14 5XN d   1      98.623  13.077  33.034  0.00  0.00    -0.054 A 
ATOM     18  C13 5XN d   1      99.427  13.138  34.190  0.00  0.00     0.034 A 
ATOM     19  H5  5XN d   1      98.045  12.184  32.824  0.00  0.00     0.086 H 
ATOM     20  C12 5XN d   1     100.170  14.298  34.468  0.00  0.00    -0.062 A 
ATOM     21 CL1  5XN d   1      99.506  11.796  35.273  0.00  0.00    -0.084 Cl
ATOM     22  C17 5XN d   1     100.114  15.400  33.592  0.00  0.00    -0.081 A 
ATOM     23  H4  5XN d   1     100.787  14.345  35.358  0.00  0.00     0.086 H 
ATOM     24  C16 5XN d   1      99.313  15.340  32.436  0.00  0.00    -0.075 A 
ATOM     25  H7  5XN d   1     100.688  16.294  33.808  0.00  0.00     0.083 H 
ATOM     26  H6  5XN d   1      99.268  16.190  31.765  0.00  0.00     0.084 H 
ENDBRANCH  13  16
ENDBRANCH  11  13
ENDBRANCH   2   8
BRANCH   1  27
ATOM     27  C24 5XN d   1      94.028  16.610  27.836  0.00  0.00     0.003 C 
ATOM     28  H8  5XN d   1      95.098  16.497  28.066  0.00  0.00     0.044 H 
ATOM     29  H9  5XN d   1      93.891  17.439  27.127  0.00  0.00     0.044 H 
BRANCH  27  30
ATOM     30  C25 5XN d   1      93.537  15.304  27.157  0.00  0.00     0.186 C 
ATOM     31  H10 5XN d   1      92.499  15.138  27.482  0.00  0.00     0.101 H 
BRANCH  30  32
ATOM     32  C26 5XN d   1      93.553  15.410  25.617  0.00  0.00     0.204 C 
ATOM     33  O27 5XN d   1      94.101  14.495  24.968  0.00  0.00    -0.646 OA
ATOM     34  O28 5XN d   1      93.028  16.395  25.059  0.00  0.00    -0.646 OA
ENDBRANCH  30  32
BRANCH  30  35
ATOM     35  N29 5XN d   1      94.329  14.122  27.534  0.00  0.00    -0.065 N 
ATOM     36  H11 5XN d   1      93.964  13.309  27.064  0.00  0.00     0.275 HD
ATOM     37  H12 5XN d   1      94.275  13.986  28.531  0.00  0.00     0.275 HD
ATOM     38  H13 5XN d   1      95.290  14.262  27.265  0.00  0.00     0.275 HD
ENDBRANCH  30  35
ENDBRANCH  27  30
ENDBRANCH   1  27
TORSDOF 7
