REMARK  4 active torsions:
REMARK  status: ('A' for Active; 'I' for Inactive)
REMARK    1  A    between atoms: S21_2  and  N24_4 
REMARK    2  A    between atoms: S21_2  and  C19_5 
REMARK    3  A    between atoms: C16_7  and  C14_10 
REMARK    4  A    between atoms: N11_12  and  C10_15 
ROOT
ATOM      1  C14 9FK d   1      14.381 -26.869  59.126  0.00  0.00     0.109 A 
ATOM      2  C15 9FK d   1      15.471 -27.727  58.954  0.00  0.00     0.031 A 
ATOM      3  N11 9FK d   1      16.504 -26.876  59.133  0.00  0.00    -0.246 N 
ATOM      4  N12 9FK d   1      16.106 -25.575  59.436  0.00  0.00     0.010 NA
ATOM      5  N13 9FK d   1      14.706 -25.599  59.440  0.00  0.00    -0.157 NA
ATOM      6  H5  9FK d   1      15.484 -28.794  58.735  0.00  0.00     0.118 H 
ENDROOT
BRANCH   3   7
ATOM      7  C10 9FK d   1      17.849 -27.034  59.090  0.00  0.00     0.065 A 
ATOM      8  C9  9FK d   1      18.711 -26.138  58.434  0.00  0.00    -0.055 A 
ATOM      9  C8  9FK d   1      20.110 -26.227  58.435  0.00  0.00    -0.080 A 
ATOM     10  H6  9FK d   1      18.261 -25.318  57.887  0.00  0.00     0.087 H 
ATOM     11  C7  9FK d   1      20.759 -27.239  59.121  0.00  0.00    -0.072 A 
ATOM     12  H7  9FK d   1      20.692 -25.492  57.891  0.00  0.00     0.083 H 
ATOM     13  C4  9FK d   1      20.021 -28.180  59.827  0.00  0.00    -0.024 A 
ATOM     14  H8  9FK d   1      21.841 -27.297  59.107  0.00  0.00     0.084 H 
ATOM     15  C3  9FK d   1      18.525 -28.117  59.867  0.00  0.00     0.003 A 
ATOM     16  C5  9FK d   1      20.692 -29.186  60.500  0.00  0.00    -0.072 A 
ATOM     17  C2  9FK d   1      17.853 -29.085  60.605  0.00  0.00    -0.070 A 
ATOM     18  C1  9FK d   1      18.569 -30.081  61.257  0.00  0.00    -0.082 A 
ATOM     19  H12 9FK d   1      16.771 -29.062  60.672  0.00  0.00     0.084 H 
ATOM     20  C6  9FK d   1      19.969 -30.128  61.219  0.00  0.00    -0.082 A 
ATOM     21  H11 9FK d   1      18.030 -30.842  61.810  0.00  0.00     0.083 H 
ATOM     22  H10 9FK d   1      20.494 -30.909  61.757  0.00  0.00     0.083 H 
ATOM     23  H9  9FK d   1      21.774 -29.238  60.466  0.00  0.00     0.084 H 
ENDBRANCH   3   7
BRANCH   1  24
ATOM     24  C16 9FK d   1      12.915 -27.129  59.136  0.00  0.00     0.037 A 
ATOM     25  S20 9FK d   1      11.928 -25.751  59.429  0.00  0.00    -0.074 SA
ATOM     26  C19 9FK d   1      10.516 -26.745  59.365  0.00  0.00     0.120 A 
ATOM     27  C18 9FK d   1      10.801 -28.094  59.172  0.00  0.00    -0.052 A 
ATOM     28  C17 9FK d   1      12.196 -28.316  59.037  0.00  0.00    -0.062 A 
ATOM     29  H4  9FK d   1      10.048 -28.880  59.130  0.00  0.00     0.086 H 
ATOM     30  H3  9FK d   1      12.648 -29.294  58.876  0.00  0.00     0.085 H 
BRANCH  26  31
ATOM     31  S21 9FK d   1       8.987 -26.147  59.637  0.00  0.00     0.263 S 
ATOM     32  O22 9FK d   1       9.041 -24.699  59.587  0.00  0.00    -0.200 OA
ATOM     33  O23 9FK d   1       8.600 -26.561  60.952  0.00  0.00    -0.200 OA
BRANCH  31  34
ATOM     34  N24 9FK d   1       7.981 -26.837  58.600  0.00  0.00    -0.324 N 
ATOM     35  H1  9FK d   1       8.084 -26.672  57.619  0.00  0.00     0.169 HD
ATOM     36  H2  9FK d   1       7.250 -27.433  58.933  0.00  0.00     0.169 HD
ENDBRANCH  31  34
ENDBRANCH  26  31
ENDBRANCH   1  24
TORSDOF 4
