REMARK  6 active torsions:
REMARK  status: ('A' for Active; 'I' for Inactive)
REMARK    1  A    between atoms: N1_1  and  S2_2 
REMARK    2  A    between atoms: S2_2  and  C7_5 
REMARK    3  A    between atoms: C10_8  and  C12_10 
REMARK    4  A    between atoms: N15_13  and  C17_15 
REMARK    5  A    between atoms: C20_18  and  O23_21 
REMARK    6  A    between atoms: O23_21  and  C24_22 
ROOT
ATOM      1  C12 82E d   1     -30.593  -0.864  -1.370  0.00  0.00     0.109 A 
ATOM      2  N13 82E d   1     -29.732   0.176  -1.309  0.00  0.00    -0.157 NA
ATOM      3  N14 82E d   1     -30.516   1.325  -1.409  0.00  0.00     0.010 NA
ATOM      4  N15 82E d   1     -31.817   0.841  -1.529  0.00  0.00    -0.247 N 
ATOM      5  C16 82E d   1     -31.902  -0.502  -1.558  0.00  0.00     0.031 A 
ATOM      6  H5  82E d   1     -32.778  -1.134  -1.695  0.00  0.00     0.118 H 
ENDROOT
BRANCH   4   7
ATOM      7  C17 82E d   1     -32.825   1.719  -1.689  0.00  0.00     0.054 A 
ATOM      8  C18 82E d   1     -33.952   1.403  -2.452  0.00  0.00    -0.053 A 
ATOM      9  C19 82E d   1     -34.992   2.290  -2.675  0.00  0.00    -0.049 A 
ATOM     10  H6  82E d   1     -34.016   0.414  -2.891  0.00  0.00     0.087 H 
ATOM     11  C20 82E d   1     -34.952   3.576  -2.145  0.00  0.00     0.068 A 
ATOM     12  H7  82E d   1     -35.845   1.980  -3.268  0.00  0.00     0.087 H 
ATOM     13  C21 82E d   1     -33.843   3.939  -1.374  0.00  0.00    -0.049 A 
ATOM     14  C22 82E d   1     -32.804   3.025  -1.165  0.00  0.00    -0.053 A 
ATOM     15  H8  82E d   1     -33.788   4.930  -0.938  0.00  0.00     0.087 H 
ATOM     16  H9  82E d   1     -31.949   3.336  -0.576  0.00  0.00     0.087 H 
BRANCH  11  17
ATOM     17  O23 82E d   1     -35.981   4.474  -2.341  0.00  0.00    -0.356 OA
BRANCH  17  18
ATOM     18  C24 82E d   1     -37.229   4.114  -2.972  0.00  0.00     0.010 C 
ATOM     19  H10 82E d   1     -37.886   4.995  -3.014  0.00  0.00     0.066 H 
ATOM     20  H11 82E d   1     -37.718   3.319  -2.390  0.00  0.00     0.066 H 
ATOM     21  H12 82E d   1     -37.033   3.754  -3.993  0.00  0.00     0.066 H 
ENDBRANCH  17  18
ENDBRANCH  11  17
ENDBRANCH   4   7
BRANCH   1  22
ATOM     22  C10 82E d   1     -30.067  -2.261  -1.373  0.00  0.00     0.037 A 
ATOM     23  C9  82E d   1     -30.767  -3.469  -1.253  0.00  0.00    -0.062 A 
ATOM     24  C8  82E d   1     -29.891  -4.573  -1.357  0.00  0.00    -0.052 A 
ATOM     25  H4  82E d   1     -31.842  -3.547  -1.100  0.00  0.00     0.085 H 
ATOM     26  C7  82E d   1     -28.555  -4.168  -1.551  0.00  0.00     0.120 A 
ATOM     27  H3  82E d   1     -30.210  -5.612  -1.295  0.00  0.00     0.086 H 
ATOM     28  S11 82E d   1     -28.381  -2.467  -1.589  0.00  0.00    -0.074 SA
BRANCH  26  29
ATOM     29  S2  82E d   1     -27.257  -5.182  -1.778  0.00  0.00     0.263 S 
ATOM     30  O5  82E d   1     -26.013  -4.475  -1.752  0.00  0.00    -0.200 OA
ATOM     31  O6  82E d   1     -27.472  -5.737  -3.101  0.00  0.00    -0.200 OA
BRANCH  29  32
ATOM     32  N1  82E d   1     -27.324  -6.381  -0.727  0.00  0.00    -0.324 N 
ATOM     33  H1  82E d   1     -27.198  -6.199   0.248  0.00  0.00     0.169 HD
ATOM     34  H2  82E d   1     -27.492  -7.315  -1.044  0.00  0.00     0.169 HD
ENDBRANCH  29  32
ENDBRANCH  26  29
ENDBRANCH   1  22
TORSDOF 6
