REMARK  5 active torsions:
REMARK  status: ('A' for Active; 'I' for Inactive)
REMARK    1  A    between atoms: S1_1  and  N2_2 
REMARK    2  A    between atoms: C7_5  and  S1_1 
REMARK    3  A    between atoms: C12_10  and  C9_7 
REMARK    4  A    between atoms: C24_16  and  N14_12 
REMARK    5  A    between atoms: C27_19  and  C23_15 
ROOT
ATOM      1  C12 Y0R d   1     -30.678  -0.867  -1.350  0.00  0.00     0.109 A 
ATOM      2  C13 Y0R d   1     -31.996  -0.481  -1.559  0.00  0.00     0.031 A 
ATOM      3  N14 Y0R d   1     -31.900   0.863  -1.492  0.00  0.00    -0.247 N 
ATOM      4  N15 Y0R d   1     -30.581   1.327  -1.287  0.00  0.00     0.010 NA
ATOM      5  N16 Y0R d   1     -29.801   0.169  -1.219  0.00  0.00    -0.157 NA
ATOM      6  H5  Y0R d   1     -32.875  -1.100  -1.732  0.00  0.00     0.118 H 
ENDROOT
BRANCH   3   7
ATOM      7  C24 Y0R d   1     -32.915   1.754  -1.617  0.00  0.00     0.054 A 
ATOM      8  C25 Y0R d   1     -34.046   1.574  -2.431  0.00  0.00    -0.055 A 
ATOM      9  C26 Y0R d   1     -35.058   2.539  -2.549  0.00  0.00    -0.075 A 
ATOM     10  H9  Y0R d   1     -34.141   0.651  -2.991  0.00  0.00     0.087 H 
ATOM     11  C27 Y0R d   1     -34.969   3.755  -1.857  0.00  0.00    -0.062 A 
ATOM     12  H10 Y0R d   1     -35.916   2.342  -3.181  0.00  0.00     0.084 H 
ATOM     13  C28 Y0R d   1     -33.856   3.960  -1.043  0.00  0.00    -0.075 A 
ATOM     14  C29 Y0R d   1     -32.865   2.983  -0.935  0.00  0.00    -0.055 A 
ATOM     15  H11 Y0R d   1     -33.759   4.887  -0.489  0.00  0.00     0.084 H 
ATOM     16  H12 Y0R d   1     -32.014   3.181  -0.293  0.00  0.00     0.087 H 
BRANCH  11  17
ATOM     17  C23 Y0R d   1     -36.034   4.825  -1.938  0.00  0.00    -0.051 C 
ATOM     18  H6  Y0R d   1     -36.832   4.497  -2.621  0.00  0.00     0.033 H 
ATOM     19  H7  Y0R d   1     -35.589   5.758  -2.315  0.00  0.00     0.033 H 
ATOM     20  H8  Y0R d   1     -36.456   4.998  -0.937  0.00  0.00     0.033 H 
ENDBRANCH  11  17
ENDBRANCH   3   7
BRANCH   1  21
ATOM     21  C9  Y0R d   1     -30.161  -2.274  -1.363  0.00  0.00     0.037 A 
ATOM     22  S8  Y0R d   1     -28.452  -2.523  -1.525  0.00  0.00    -0.074 SA
ATOM     23  C7  Y0R d   1     -28.649  -4.238  -1.465  0.00  0.00     0.120 A 
ATOM     24  C11 Y0R d   1     -30.007  -4.609  -1.376  0.00  0.00    -0.052 A 
ATOM     25  C10 Y0R d   1     -30.876  -3.478  -1.296  0.00  0.00    -0.062 A 
ATOM     26  H4  Y0R d   1     -30.354  -5.641  -1.369  0.00  0.00     0.086 H 
ATOM     27  H3  Y0R d   1     -31.958  -3.543  -1.196  0.00  0.00     0.085 H 
BRANCH  23  28
ATOM     28  S1  Y0R d   1     -27.354  -5.274  -1.665  0.00  0.00     0.263 S 
ATOM     29  O5  Y0R d   1     -27.529  -5.781  -3.021  0.00  0.00    -0.200 OA
ATOM     30  O6  Y0R d   1     -26.073  -4.635  -1.618  0.00  0.00    -0.200 OA
BRANCH  28  31
ATOM     31  N2  Y0R d   1     -27.398  -6.503  -0.613  0.00  0.00    -0.324 N 
ATOM     32  H1  Y0R d   1     -28.227  -7.055  -0.523  0.00  0.00     0.169 HD
ATOM     33  H2  Y0R d   1     -26.596  -6.711  -0.053  0.00  0.00     0.169 HD
ENDBRANCH  28  31
ENDBRANCH  23  28
ENDBRANCH   1  21
TORSDOF 5
