REMARK  3 active torsions:
REMARK  status: ('A' for Active; 'I' for Inactive)
REMARK    1  A    between atoms: C6_6  and  O7_7 
REMARK    2  A    between atoms: O7_7  and  C8_8 
REMARK    3  A    between atoms: C8_8  and  C9_9 
ROOT
ATOM      1  C1  J4K d   1      -5.029   3.355  14.578  0.00  0.00    -0.049 A 
ATOM      2  C2  J4K d   1      -5.566   4.556  14.263  0.00  0.00    -0.059 A 
ATOM      3  C3  J4K d   1      -6.033   4.768  13.008  0.00  0.00     0.034 A 
ATOM      4  C4  J4K d   1      -5.954   3.785  12.064  0.00  0.00    -0.059 A 
ATOM      5  C5  J4K d   1      -5.421   2.582  12.426  0.00  0.00    -0.049 A 
ATOM      6  C6  J4K d   1      -4.949   2.331  13.678  0.00  0.00     0.069 A 
ATOM      7 CL1  J4K d   1      -6.787   6.281  12.553  0.00  0.00    -0.084 Cl
ATOM      8  H1  J4K d   1      -4.648   3.200  15.581  0.00  0.00     0.087 H 
ATOM      9  H2  J4K d   1      -5.622   5.342  15.007  0.00  0.00     0.086 H 
ATOM     10  H3  J4K d   1      -6.306   3.956  11.053  0.00  0.00     0.086 H 
ATOM     11  H4  J4K d   1      -5.371   1.792  11.685  0.00  0.00     0.087 H 
ENDROOT
BRANCH   6  12
ATOM     12  O7  J4K d   1      -4.395   1.056  13.910  0.00  0.00    -0.344 OA
BRANCH  12  13
ATOM     13  C8  J4K d   1      -3.735   0.984  15.170  0.00  0.00     0.083 C 
ATOM     14  H5  J4K d   1      -3.029   1.821  15.276  0.00  0.00     0.087 H 
ATOM     15  H6  J4K d   1      -3.191   0.032  15.259  0.00  0.00     0.087 H 
BRANCH  13  16
ATOM     16  C9  J4K d   1      -4.753   1.066  16.175  0.00  0.00     0.158 A 
ATOM     17  N10 J4K d   1      -4.783   1.764  17.270  0.00  0.00    -0.145 NA
ATOM     18  N11 J4K d   1      -5.964   1.461  17.878  0.00  0.00     0.018 NA
ATOM     19  N12 J4K d   1      -6.592   0.568  17.099  0.00  0.00    -0.005 NA
ATOM     20  N13 J4K d   1      -5.818   0.296  15.996  0.00  0.00    -0.270 N 
ATOM     21  H7  J4K d   1      -6.017  -0.350  15.219  0.00  0.00     0.185 HD
ENDBRANCH  13  16
ENDBRANCH  12  13
ENDBRANCH   6  12
TORSDOF 3
