REMARK  5 active torsions:
REMARK  status: ('A' for Active; 'I' for Inactive)
REMARK    1  A    between atoms: C4_4  and  C7_7 
REMARK    2  A    between atoms: C7_7  and  O8_8 
REMARK    3  A    between atoms: O8_8  and  C9_9 
REMARK    4  A    between atoms: C12_12  and  C15_15 
REMARK    5  A    between atoms: C15_15  and  C16_16 
ROOT
ATOM      1  C9  IO2 d   1      -4.712   5.261  14.343  0.00  0.00     0.069 A 
ATOM      2  C10 IO2 d   1      -3.788   4.286  14.658  0.00  0.00    -0.050 A 
ATOM      3  C11 IO2 d   1      -4.136   3.287  15.543  0.00  0.00    -0.074 A 
ATOM      4  C12 IO2 d   1      -5.375   3.223  16.138  0.00  0.00    -0.048 A 
ATOM      5  C13 IO2 d   1      -6.297   4.200  15.819  0.00  0.00    -0.074 A 
ATOM      6  C14 IO2 d   1      -5.960   5.201  14.922  0.00  0.00    -0.050 A 
ATOM      7  H8  IO2 d   1      -2.799   4.305  14.215  0.00  0.00     0.087 H 
ATOM      8  H9  IO2 d   1      -3.405   2.522  15.779  0.00  0.00     0.084 H 
ATOM      9  H10 IO2 d   1      -7.283   4.184  16.270  0.00  0.00     0.084 H 
ATOM     10  H11 IO2 d   1      -6.697   5.955  14.670  0.00  0.00     0.087 H 
ENDROOT
BRANCH   1  11
ATOM     11  O8  IO2 d   1      -4.504   6.325  13.475  0.00  0.00    -0.347 OA
BRANCH  11  12
ATOM     12  C7  IO2 d   1      -3.221   6.438  12.826  0.00  0.00     0.050 C 
ATOM     13  H6  IO2 d   1      -2.740   5.449  12.850  0.00  0.00     0.082 H 
ATOM     14  H7  IO2 d   1      -3.395   6.736  11.781  0.00  0.00     0.082 H 
BRANCH  12  15
ATOM     15  C4  IO2 d   1      -2.274   7.427  13.437  0.00  0.00    -0.034 A 
ATOM     16  C3  IO2 d   1      -1.097   7.693  12.766  0.00  0.00    -0.075 A 
ATOM     17  C2  IO2 d   1      -0.185   8.599  13.260  0.00  0.00    -0.082 A 
ATOM     18  H3  IO2 d   1      -0.887   7.180  11.834  0.00  0.00     0.084 H 
ATOM     19  C1  IO2 d   1      -0.440   9.261  14.444  0.00  0.00    -0.083 A 
ATOM     20  H2  IO2 d   1       0.734   8.792  12.719  0.00  0.00     0.083 H 
ATOM     21  C6  IO2 d   1      -1.606   9.002  15.123  0.00  0.00    -0.082 A 
ATOM     22  H1  IO2 d   1       0.273   9.978  14.834  0.00  0.00     0.083 H 
ATOM     23  C5  IO2 d   1      -2.515   8.095  14.617  0.00  0.00    -0.075 A 
ATOM     24  H5  IO2 d   1      -1.812   9.511  16.058  0.00  0.00     0.083 H 
ATOM     25  H4  IO2 d   1      -3.435   7.905  15.158  0.00  0.00     0.084 H 
ENDBRANCH  12  15
ENDBRANCH  11  12
ENDBRANCH   1  11
BRANCH   4  26
ATOM     26  C15 IO2 d   1      -5.652   2.106  17.125  0.00  0.00     0.039 C 
ATOM     27  H12 IO2 d   1      -6.293   2.486  17.934  0.00  0.00     0.056 H 
ATOM     28  H13 IO2 d   1      -4.701   1.749  17.547  0.00  0.00     0.056 H 
BRANCH  26  29
ATOM     29  C16 IO2 d   1      -6.342   0.977  16.438  0.00  0.00     0.176 C 
ATOM     30  O17 IO2 d   1      -5.628   0.012  15.963  0.00  0.00    -0.648 OA
ATOM     31  O18 IO2 d   1      -7.580   1.173  16.448  0.00  0.00    -0.648 OA
ENDBRANCH  26  29
ENDBRANCH   4  26
TORSDOF 5
