REMARK  3 active torsions:
REMARK  status: ('A' for Active; 'I' for Inactive)
REMARK    1  A    between atoms: C7_5  and  C5_8 
REMARK    2  A    between atoms: C4_7  and  C2_9 
REMARK    3  A    between atoms: C5_8  and  C6_10 
ROOT
ATOM      1  C8  6ZX d   1      -3.106   7.145  14.657  0.00  0.00    -0.071 A 
ATOM      2  C13 6ZX d   1      -2.007   5.604  13.210  0.00  0.00    -0.071 A 
ATOM      3  C9  6ZX d   1      -2.218   8.134  14.280  0.00  0.00    -0.061 A 
ATOM      4  C12 6ZX d   1      -1.113   6.586  12.815  0.00  0.00    -0.061 A 
ATOM      5  C7  6ZX d   1      -3.011   5.875  14.123  0.00  0.00    -0.030 A 
ATOM      6  C10 6ZX d   1      -1.233   7.842  13.365  0.00  0.00     0.034 A 
ATOM      7 CL11 6ZX d   1      -0.145   9.096  12.924  0.00  0.00    -0.084 Cl
ATOM      8  H1  6ZX d   1      -3.884   7.368  15.378  0.00  0.00     0.084 H 
ATOM      9  H2  6ZX d   1      -1.918   4.606  12.797  0.00  0.00     0.084 H 
ATOM     10  H3  6ZX d   1      -2.297   9.130  14.701  0.00  0.00     0.086 H 
ATOM     11  H4  6ZX d   1      -0.337   6.370  12.090  0.00  0.00     0.086 H 
ENDROOT
BRANCH   5  12
ATOM     12  C5  6ZX d   1      -3.976   4.841  14.575  0.00  0.00    -0.045 C 
ATOM     13  C4  6ZX d   1      -3.430   3.704  15.053  0.00  0.00    -0.003 C 
ATOM     14  H5  6ZX d   1      -2.344   3.628  15.041  0.00  0.00     0.095 H 
BRANCH  13  15
ATOM     15  C2  6ZX d   1      -4.206   2.518  15.607  0.00  0.00     0.199 C 
ATOM     16  O3  6ZX d   1      -5.304   2.185  15.059  0.00  0.00    -0.644 OA
ATOM     17  O1  6ZX d   1      -3.618   1.932  16.574  0.00  0.00    -0.644 OA
ENDBRANCH  13  15
BRANCH  12  18
ATOM     18  C6  6ZX d   1      -5.426   5.170  14.534  0.00  0.00    -0.050 C 
ATOM     19  H6  6ZX d   1      -5.563   6.167  14.089  0.00  0.00     0.033 H 
ATOM     20  H7  6ZX d   1      -5.832   5.165  15.556  0.00  0.00     0.033 H 
ATOM     21  H8  6ZX d   1      -5.955   4.421  13.926  0.00  0.00     0.033 H 
ENDBRANCH  12  18
ENDBRANCH   5  12
TORSDOF 3
