REMARK  3 active torsions:
REMARK  status: ('A' for Active; 'I' for Inactive)
REMARK    1  A    between atoms: OAL_12  and  CAN_14 
REMARK    2  A    between atoms: CAO_15  and  OAL_12 
REMARK    3  A    between atoms: CAM_13  and  CAP_16 
ROOT
ATOM      1  CAF VJJ d   1      -5.459   5.788  13.654  0.00  0.00    -0.079 A 
ATOM      2  CAI VJJ d   1      -4.223   6.327  13.423  0.00  0.00    -0.050 A 
ATOM      3  CAJ VJJ d   1      -5.590   4.568  14.296  0.00  0.00    -0.066 A 
ATOM      4  CAK VJJ d   1      -3.248   4.441  14.560  0.00  0.00    -0.034 A 
ATOM      5  CAO VJJ d   1      -3.145   5.632  13.890  0.00  0.00     0.077 A 
ATOM      6  CAP VJJ d   1      -4.485   3.900  14.772  0.00  0.00     0.043 A 
ATOM      7  H4  VJJ d   1      -6.346   6.322  13.331  0.00  0.00     0.083 H 
ATOM      8  H7  VJJ d   1      -4.105   7.265  12.892  0.00  0.00     0.087 H 
ATOM      9  H8  VJJ d   1      -6.575   4.134  14.425  0.00  0.00     0.085 H 
ATOM     10  H9  VJJ d   1      -2.359   3.934  14.918  0.00  0.00     0.089 H 
ENDROOT
BRANCH   5  11
ATOM     11  OAL VJJ d   1      -1.885   6.094  13.683  0.00  0.00    -0.311 OA
BRANCH  11  12
ATOM     12  CAN VJJ d   1      -1.488   7.413  13.788  0.00  0.00     0.076 A 
ATOM     13  CAG VJJ d   1      -1.993   8.253  14.730  0.00  0.00    -0.050 A 
ATOM     14  CAD VJJ d   1      -1.496   9.529  14.802  0.00  0.00    -0.080 A 
ATOM     15  H5  VJJ d   1      -2.771   7.922  15.409  0.00  0.00     0.087 H 
ATOM     16  CAC VJJ d   1      -0.509   9.936  13.962  0.00  0.00    -0.083 A 
ATOM     17  H2  VJJ d   1      -1.895  10.220  15.536  0.00  0.00     0.083 H 
ATOM     18  CAE VJJ d   1       0.022   9.072  13.026  0.00  0.00    -0.080 A 
ATOM     19  H1  VJJ d   1      -0.134  10.951  14.028  0.00  0.00     0.083 H 
ATOM     20  CAH VJJ d   1      -0.478   7.790  12.932  0.00  0.00    -0.050 A 
ATOM     21  H3  VJJ d   1       0.823   9.397  12.372  0.00  0.00     0.083 H 
ATOM     22  H6  VJJ d   1      -0.084   7.094  12.200  0.00  0.00     0.087 H 
ENDBRANCH  11  12
ENDBRANCH   5  11
BRANCH   6  23
ATOM     23  CAM VJJ d   1      -4.600   2.587  15.463  0.00  0.00     0.209 C 
ATOM     24  OAA VJJ d   1      -3.549   2.035  15.933  0.00  0.00    -0.644 OA
ATOM     25  OAB VJJ d   1      -5.780   2.234  15.693  0.00  0.00    -0.644 OA
ENDBRANCH   6  23
TORSDOF 3
