REMARK  5 active torsions:
REMARK  status: ('A' for Active; 'I' for Inactive)
REMARK    1  A    between atoms: C4_5  and  N17_6 
REMARK    2  A    between atoms: C6_8  and  N7_9 
REMARK    3  A    between atoms: N7_9  and  C8_10 
REMARK    4  A    between atoms: C8_10  and  C9_11 
REMARK    5  A    between atoms: C12_14  and  C15_15 
ROOT
ATOM      1  C8  IEE d   1       3.135  11.776  23.968  0.00  0.00     0.018 C 
ATOM      2  H5  IEE d   1       3.236  12.564  24.728  0.00  0.00     0.071 H 
ATOM      3  H6  IEE d   1       2.683  12.199  23.059  0.00  0.00     0.071 H 
ENDROOT
BRANCH   1   4
ATOM      4  N7  IEE d   1       2.269  10.687  24.493  0.00  0.00    -0.370 N 
ATOM      5  H4  IEE d   1       2.728   9.771  24.596  0.00  0.00     0.161 HD
BRANCH   4   6
ATOM      6  C6  IEE d   1       0.985  10.723  24.850  0.00  0.00     0.146 A 
ATOM      7  C16 IEE d   1       0.686  10.182  26.105  0.00  0.00     0.001 A 
ATOM      8  C2  IEE d   1      -0.639  10.162  26.513  0.00  0.00     0.148 A 
ATOM      9  H1  IEE d   1       1.470   9.789  26.742  0.00  0.00     0.094 H 
ATOM     10 CL1  IEE d   1      -1.033   9.503  28.032  0.00  0.00    -0.062 Cl
ATOM     11  N3  IEE d   1      -1.617  10.629  25.732  0.00  0.00    -0.051 NA
ATOM     12  C4  IEE d   1      -1.264  11.094  24.513  0.00  0.00     0.723 A 
ATOM     13  N5  IEE d   1       0.023  11.195  24.073  0.00  0.00    -0.046 NA
BRANCH  12  14
ATOM     14  N17 IEE d   1      -2.248  11.529  23.768  0.00  0.00    -0.231 N 
ATOM     15  H2  IEE d   1      -3.220  11.452  24.102  0.00  0.00     0.174 HD
ATOM     16  H3  IEE d   1      -2.051  11.948  22.848  0.00  0.00     0.174 HD
ENDBRANCH  12  14
ENDBRANCH   4   6
ENDBRANCH   1   4
BRANCH   1  17
ATOM     17  C9  IEE d   1       4.426  11.244  23.657  0.00  0.00    -0.041 A 
ATOM     18  C10 IEE d   1       4.602   9.866  23.323  0.00  0.00    -0.075 A 
ATOM     19  C11 IEE d   1       5.848   9.304  23.001  0.00  0.00    -0.077 A 
ATOM     20  H7  IEE d   1       3.730   9.222  23.318  0.00  0.00     0.084 H 
ATOM     21  C12 IEE d   1       6.955  10.111  23.007  0.00  0.00    -0.062 A 
ATOM     22  H8  IEE d   1       5.932   8.252  22.753  0.00  0.00     0.084 H 
ATOM     23  C13 IEE d   1       6.800  11.479  23.353  0.00  0.00    -0.077 A 
ATOM     24  C14 IEE d   1       5.562  12.046  23.678  0.00  0.00    -0.075 A 
ATOM     25  H12 IEE d   1       7.679  12.113  23.366  0.00  0.00     0.084 H 
ATOM     26  H13 IEE d   1       5.490  13.095  23.942  0.00  0.00     0.084 H 
BRANCH  21  27
ATOM     27  C15 IEE d   1       8.189   9.557  22.711  0.00  0.00    -0.051 C 
ATOM     28  H9  IEE d   1       8.963  10.338  22.760  0.00  0.00     0.033 H 
ATOM     29  H10 IEE d   1       8.165   9.128  21.698  0.00  0.00     0.033 H 
ATOM     30  H11 IEE d   1       8.420   8.765  23.439  0.00  0.00     0.033 H 
ENDBRANCH  21  27
ENDBRANCH   1  17
TORSDOF 5
