REMARK  4 active torsions:
REMARK  status: ('A' for Active; 'I' for Inactive)
REMARK    1  A    between atoms: C4_1  and  C3_2 
REMARK    2  A    between atoms: C13_6  and  N14_7 
REMARK    3  A    between atoms: C5_11  and  N6_12 
REMARK       I    between atoms: N6_12  and  C7_13 
REMARK    4  A    between atoms: C7_13  and  C9_15 
ROOT
ATOM      1  C3  IQ5 d   1      32.915   8.189  27.591  0.00  0.00    -0.034 A 
ATOM      2  C2  IQ5 d   1      32.898   8.820  26.345  0.00  0.00    -0.056 A 
ATOM      3  C1  IQ5 d   1      31.766   9.390  25.867  0.00  0.00     0.038 A 
ATOM      4  S   IQ5 d   1      31.527  10.222  24.328  0.00  0.00    -0.050 SA
ATOM      5  C13 IQ5 d   1      29.753  10.456  24.771  0.00  0.00     0.165 A 
ATOM      6  N12 IQ5 d   1      29.516  10.003  26.014  0.00  0.00    -0.224 NA
ATOM      7  C11 IQ5 d   1      30.591   9.376  26.599  0.00  0.00     0.079 A 
ATOM      8  C10 IQ5 d   1      30.583   8.736  27.788  0.00  0.00    -0.028 A 
ATOM      9  C5  IQ5 d   1      31.720   8.114  28.320  0.00  0.00     0.043 A 
ATOM     10  H4  IQ5 d   1      33.804   8.854  25.752  0.00  0.00     0.086 H 
ATOM     11  H7  IQ5 d   1      29.659   8.702  28.354  0.00  0.00     0.090 H 
ENDROOT
BRANCH   9  12
ATOM     12  N6  IQ5 d   1      31.691   7.614  29.585  0.00  0.00    -0.327 N 
ATOM     13  C7  IQ5 d   1      31.882   6.313  29.988  0.00  0.00     0.218 C 
ATOM     14  O8  IQ5 d   1      32.077   5.373  29.240  0.00  0.00    -0.274 OA
ATOM     15  H8  IQ5 d   1      31.508   8.275  30.313  0.00  0.00     0.169 HD
BRANCH  13  16
ATOM     16  C9  IQ5 d   1      31.759   6.089  31.496  0.00  0.00    -0.003 C 
ATOM     17  H9  IQ5 d   1      31.926   5.026  31.724  0.00  0.00     0.040 H 
ATOM     18  H10 IQ5 d   1      30.752   6.381  31.829  0.00  0.00     0.040 H 
ATOM     19  H11 IQ5 d   1      32.510   6.699  32.020  0.00  0.00     0.040 H 
ENDBRANCH  13  16
ENDBRANCH   9  12
BRANCH   1  20
ATOM     20  C4  IQ5 d   1      34.082   7.663  28.038  0.00  0.00    -0.049 C 
ATOM     21  H1  IQ5 d   1      34.874   7.846  27.297  0.00  0.00     0.033 H 
ATOM     22  H2  IQ5 d   1      33.963   6.580  28.187  0.00  0.00     0.033 H 
ATOM     23  H3  IQ5 d   1      34.356   8.137  28.992  0.00  0.00     0.033 H 
ENDBRANCH   1  20
BRANCH   5  24
ATOM     24  N14 IQ5 d   1      28.828  11.027  24.040  0.00  0.00    -0.378 N 
ATOM     25  H5  IQ5 d   1      27.864  11.101  24.395  0.00  0.00     0.158 HD
ATOM     26  H6  IQ5 d   1      29.065  11.402  23.110  0.00  0.00     0.158 HD
ENDBRANCH   5  24
TORSDOF 4
