REMARK  5 active torsions:
REMARK  status: ('A' for Active; 'I' for Inactive)
REMARK    1  A    between atoms: CAL_6  and  CAI_7 
REMARK    2  A    between atoms: CAI_7  and  CAH_10 
REMARK    3  A    between atoms: NAJ_8  and  OAK_9 
REMARK    4  A    between atoms: CAD_13  and  OAE_14 
REMARK    5  A    between atoms: CAB_16  and  OAA_17 
ROOT
ATOM      1  CAI TQL d   1       0.023   9.986  25.965  0.00  0.00     0.108 C 
ATOM      2  NAJ TQL d   1      -0.696  10.138  27.056  0.00  0.00    -0.135 NA
ENDROOT
BRANCH   1   3
ATOM      3  CAL TQL d   1       0.794   8.793  25.736  0.00  0.00     0.013 A 
ATOM      4  CAM TQL d   1       1.871   8.373  26.562  0.00  0.00    -0.068 A 
ATOM      5  CAN TQL d   1       2.640   7.215  26.345  0.00  0.00    -0.065 A 
ATOM      6  H1  TQL d   1       2.118   8.988  27.420  0.00  0.00     0.085 H 
ATOM      7  CAO TQL d   1       2.398   6.395  25.242  0.00  0.00     0.002 A 
ATOM      8  H2  TQL d   1       3.429   6.957  27.042  0.00  0.00     0.085 H 
ATOM      9  NAP TQL d   1       1.296   6.798  24.368  0.00  0.00    -0.272 NA
ATOM     10  H3  TQL d   1       2.992   5.510  25.044  0.00  0.00     0.114 H 
ATOM     11  CAQ TQL d   1       0.546   7.980  24.618  0.00  0.00     0.014 A 
ATOM     12  H4  TQL d   1      -0.239   8.261  23.926  0.00  0.00     0.116 H 
ENDBRANCH   1   3
BRANCH   1  13
ATOM     13  CAH TQL d   1      -0.056  10.891  24.895  0.00  0.00     0.029 A 
ATOM     14  CAG TQL d   1       1.161  11.174  24.280  0.00  0.00    -0.065 A 
ATOM     15  CAF TQL d   1       1.189  11.974  23.140  0.00  0.00    -0.050 A 
ATOM     16  H6  TQL d   1       2.083  10.774  24.687  0.00  0.00     0.085 H 
ATOM     17  CAD TQL d   1       0.016  12.470  22.610  0.00  0.00     0.068 A 
ATOM     18  H7  TQL d   1       2.136  12.208  22.668  0.00  0.00     0.087 H 
ATOM     19  CAC TQL d   1      -1.200  12.222  23.217  0.00  0.00    -0.018 A 
ATOM     20  CAB TQL d   1      -1.242  11.436  24.344  0.00  0.00     0.081 A 
ATOM     21  H9  TQL d   1      -2.112  12.643  22.809  0.00  0.00     0.092 H 
BRANCH  17  22
ATOM     22  OAE TQL d   1       0.034  13.226  21.506  0.00  0.00    -0.361 OA
ATOM     23  H8  TQL d   1      -0.854  13.479  21.283  0.00  0.00     0.217 HD
ENDBRANCH  17  22
BRANCH  20  24
ATOM     24  OAA TQL d   1      -2.429  11.285  24.953  0.00  0.00    -0.360 OA
ATOM     25  H10 TQL d   1      -2.325  10.724  25.713  0.00  0.00     0.217 HD
ENDBRANCH  20  24
ENDBRANCH   1  13
BRANCH   2  26
ATOM     26  OAK TQL d   1      -0.471   9.135  27.957  0.00  0.00    -0.266 OA
ATOM     27  H5  TQL d   1      -1.006   9.278  28.729  0.00  0.00     0.247 HD
ENDBRANCH   2  26
TORSDOF 5
