REMARK  2 active torsions:
REMARK  status: ('A' for Active; 'I' for Inactive)
REMARK    1  A    between atoms: C7_5  and  C8_8 
REMARK    2  A    between atoms: C8_8  and  C9_9 
ROOT
ATOM      1 CL1  YIE d   1      -6.850   6.407  12.453  0.00  0.00    -0.084 Cl
ATOM      2  C2  YIE d   1      -6.138   5.015  13.160  0.00  0.00     0.034 A 
ATOM      3  C5  YIE d   1      -6.031   4.888  14.526  0.00  0.00    -0.061 A 
ATOM      4  C6  YIE d   1      -5.466   3.766  15.058  0.00  0.00    -0.075 A 
ATOM      5  C7  YIE d   1      -4.971   2.765  14.221  0.00  0.00    -0.051 A 
ATOM      6  C4  YIE d   1      -5.072   2.915  12.855  0.00  0.00    -0.075 A 
ATOM      7  C3  YIE d   1      -5.662   4.038  12.318  0.00  0.00    -0.061 A 
ATOM      8  H1  YIE d   1      -6.394   5.676  15.176  0.00  0.00     0.086 H 
ATOM      9  H2  YIE d   1      -5.401   3.652  16.134  0.00  0.00     0.084 H 
ATOM     10  H3  YIE d   1      -4.685   2.144  12.199  0.00  0.00     0.084 H 
ATOM     11  H4  YIE d   1      -5.750   4.150  11.243  0.00  0.00     0.086 H 
ENDROOT
BRANCH   5  12
ATOM     12  C8  YIE d   1      -4.292   1.504  14.740  0.00  0.00     0.016 C 
ATOM     13  H5  YIE d   1      -3.206   1.670  14.801  0.00  0.00     0.051 H 
ATOM     14  H6  YIE d   1      -4.498   0.668  14.056  0.00  0.00     0.051 H 
BRANCH  12  15
ATOM     15  C9  YIE d   1      -4.816   1.185  16.077  0.00  0.00     0.138 A 
ATOM     16  N10 YIE d   1      -5.777   0.282  16.173  0.00  0.00    -0.147 NA
ATOM     17  N11 YIE d   1      -6.063   0.227  17.500  0.00  0.00     0.017 NA
ATOM     18  N12 YIE d   1      -5.281   1.123  18.137  0.00  0.00    -0.005 NA
ATOM     19  N13 YIE d   1      -4.480   1.745  17.240  0.00  0.00    -0.272 N 
ATOM     20  H7  YIE d   1      -3.777   2.478  17.415  0.00  0.00     0.185 HD
ENDBRANCH  12  15
ENDBRANCH   5  12
TORSDOF 2
