REMARK  5 active torsions:
REMARK  status: ('A' for Active; 'I' for Inactive)
REMARK    1  A    between atoms: C1_1  and  N2_2 
REMARK    2  A    between atoms: C7_7  and  C11_11 
REMARK    3  A    between atoms: C11_11  and  C12_12 
REMARK    4  A    between atoms: C11_11  and  C16_16 
REMARK    5  A    between atoms: C12_12  and  C13_13 
ROOT
ATOM      1  C11 XMS d   1      17.183  64.095  26.791  0.00  0.00     0.006 C 
ATOM      2  H7  XMS d   1      17.846  63.242  26.582  0.00  0.00     0.055 H 
ENDROOT
BRANCH   1   3
ATOM      3  C7  XMS d   1      15.812  63.709  26.246  0.00  0.00    -0.047 A 
ATOM      4  C6  XMS d   1      15.314  62.434  26.546  0.00  0.00    -0.045 A 
ATOM      5  C5  XMS d   1      14.048  62.028  26.064  0.00  0.00     0.103 A 
ATOM      6  H4  XMS d   1      15.903  61.755  27.151  0.00  0.00     0.088 H 
ATOM      7  N4  XMS d   1      13.333  60.875  26.196  0.00  0.00    -0.158 NA
ATOM      8  C10 XMS d   1      13.293  62.900  25.288  0.00  0.00     0.078 A 
ATOM      9  N3  XMS d   1      12.185  60.986  25.549  0.00  0.00     0.005 NA
ATOM     10  N2  XMS d   1      12.154  62.225  24.990  0.00  0.00    -0.276 N 
ATOM     11  C9  XMS d   1      13.785  64.176  24.985  0.00  0.00    -0.053 A 
ATOM     12  C8  XMS d   1      15.033  64.568  25.463  0.00  0.00    -0.074 A 
ATOM     13  H6  XMS d   1      13.196  64.856  24.380  0.00  0.00     0.087 H 
ATOM     14  H5  XMS d   1      15.408  65.557  25.224  0.00  0.00     0.084 H 
BRANCH  10  15
ATOM     15  C1  XMS d   1      11.003  62.649  24.204  0.00  0.00    -0.000 C 
ATOM     16  H1  XMS d   1      11.165  63.674  23.840  0.00  0.00     0.059 H 
ATOM     17  H2  XMS d   1      10.100  62.622  24.832  0.00  0.00     0.059 H 
ATOM     18  H3  XMS d   1      10.874  61.971  23.347  0.00  0.00     0.059 H 
ENDBRANCH  10  15
ENDBRANCH   1   3
BRANCH   1  19
ATOM     19  C12 XMS d   1      17.827  65.302  26.110  0.00  0.00     0.026 C 
ATOM     20  H8  XMS d   1      18.775  65.528  26.620  0.00  0.00     0.050 H 
ATOM     21  H9  XMS d   1      17.146  66.161  26.202  0.00  0.00     0.050 H 
BRANCH  19  22
ATOM     22  C13 XMS d   1      18.115  65.067  24.633  0.00  0.00     0.173 C 
ATOM     23  O14 XMS d   1      17.583  65.841  23.812  0.00  0.00    -0.648 OA
ATOM     24  O15 XMS d   1      18.863  64.115  24.324  0.00  0.00    -0.648 OA
ENDBRANCH  19  22
ENDBRANCH   1  19
BRANCH   1  25
ATOM     25  C16 XMS d   1      17.139  64.252  28.303  0.00  0.00    -0.049 A 
ATOM     26  C17 XMS d   1      18.263  63.912  29.050  0.00  0.00    -0.075 A 
ATOM     27  C18 XMS d   1      18.261  64.041  30.428  0.00  0.00    -0.061 A 
ATOM     28  H10 XMS d   1      19.149  63.542  28.547  0.00  0.00     0.084 H 
ATOM     29  C19 XMS d   1      17.138  64.508  31.065  0.00  0.00     0.034 A 
ATOM     30  H11 XMS d   1      19.142  63.775  31.001  0.00  0.00     0.086 H 
ATOM     31 CL20 XMS d   1      17.140  64.668  32.798  0.00  0.00    -0.084 Cl
ATOM     32  C21 XMS d   1      16.010  64.852  30.351  0.00  0.00    -0.061 A 
ATOM     33  C22 XMS d   1      16.010  64.724  28.971  0.00  0.00    -0.075 A 
ATOM     34  H12 XMS d   1      15.130  65.220  30.865  0.00  0.00     0.086 H 
ATOM     35  H13 XMS d   1      15.125  64.993  28.406  0.00  0.00     0.084 H 
ENDBRANCH   1  25
TORSDOF 5
