REMARK  10 active torsions:
REMARK  status: ('A' for Active; 'I' for Inactive)
REMARK    1  A    between atoms: C1_1  and  N2_2 
REMARK    2  A    between atoms: N2_2  and  C3_3 
REMARK    3  A    between atoms: N2_2  and  S27_26 
REMARK    4  A    between atoms: C3_3  and  C4_4 
REMARK    5  A    between atoms: C6_6  and  C11_11 
REMARK    6  A    between atoms: C11_11  and  C13_12 
REMARK    7  A    between atoms: C11_11  and  C17_16 
REMARK    8  A    between atoms: C13_12  and  C14_13 
REMARK    9  A    between atoms: N21_20  and  C22_21 
REMARK   10  A    between atoms: S27_26  and  C30_29 
ROOT
ATOM      1  C4  0PL d   1      15.884  65.051  30.214  0.00  0.00    -0.017 A 
ATOM      2  C5  0PL d   1      15.940  64.834  28.841  0.00  0.00    -0.067 A 
ATOM      3  C6  0PL d   1      17.002  64.155  28.253  0.00  0.00    -0.048 A 
ATOM      4  C7  0PL d   1      18.026  63.688  29.072  0.00  0.00    -0.074 A 
ATOM      5  C8  0PL d   1      17.987  63.894  30.438  0.00  0.00    -0.061 A 
ATOM      6  C9  0PL d   1      16.923  64.571  31.003  0.00  0.00     0.042 A 
ATOM      7 CL1  0PL d   1      16.900  64.815  32.719  0.00  0.00    -0.084 Cl
ATOM      8  H6  0PL d   1      15.136  65.203  28.214  0.00  0.00     0.085 H 
ATOM      9  H7  0PL d   1      18.863  63.157  28.634  0.00  0.00     0.084 H 
ATOM     10  H8  0PL d   1      18.790  63.525  31.066  0.00  0.00     0.086 H 
ENDROOT
BRANCH   3  11
ATOM     11  C11 0PL d   1      17.062  63.917  26.752  0.00  0.00     0.006 C 
ATOM     12  H9  0PL d   1      17.746  63.070  26.594  0.00  0.00     0.055 H 
BRANCH  11  13
ATOM     13  C13 0PL d   1      17.682  65.099  26.010  0.00  0.00     0.026 C 
ATOM     14  H10 0PL d   1      18.628  65.363  26.505  0.00  0.00     0.050 H 
ATOM     15  H11 0PL d   1      16.987  65.950  26.069  0.00  0.00     0.050 H 
BRANCH  13  16
ATOM     16  C14 0PL d   1      17.970  64.814  24.542  0.00  0.00     0.173 C 
ATOM     17  O15 0PL d   1      17.658  65.703  23.717  0.00  0.00    -0.648 OA
ATOM     18  O16 0PL d   1      18.497  63.719  24.241  0.00  0.00    -0.648 OA
ENDBRANCH  13  16
ENDBRANCH  11  13
BRANCH  11  19
ATOM     19  C17 0PL d   1      15.705  63.469  26.221  0.00  0.00    -0.047 A 
ATOM     20  C18 0PL d   1      14.942  64.237  25.334  0.00  0.00    -0.074 A 
ATOM     21  C19 0PL d   1      13.706  63.791  24.870  0.00  0.00    -0.053 A 
ATOM     22  H12 0PL d   1      15.320  65.197  25.002  0.00  0.00     0.084 H 
ATOM     23  C20 0PL d   1      13.207  62.553  25.295  0.00  0.00     0.078 A 
ATOM     24  H13 0PL d   1      13.132  64.401  24.182  0.00  0.00     0.087 H 
ATOM     25  N21 0PL d   1      12.074  61.846  25.042  0.00  0.00    -0.276 N 
ATOM     26  C25 0PL d   1      13.946  61.770  26.176  0.00  0.00     0.103 A 
ATOM     27  N23 0PL d   1      12.092  60.672  25.730  0.00  0.00     0.005 NA
ATOM     28  N24 0PL d   1      13.226  60.636  26.411  0.00  0.00    -0.158 NA
ATOM     29  C26 0PL d   1      15.200  62.230  26.642  0.00  0.00    -0.045 A 
ATOM     30  H17 0PL d   1      15.775  61.620  27.330  0.00  0.00     0.088 H 
BRANCH  25  31
ATOM     31  C22 0PL d   1      10.942  62.182  24.189  0.00  0.00    -0.000 C 
ATOM     32  H14 0PL d   1      10.201  61.369  24.226  0.00  0.00     0.059 H 
ATOM     33  H15 0PL d   1      11.290  62.315  23.154  0.00  0.00     0.059 H 
ATOM     34  H16 0PL d   1      10.480  63.115  24.544  0.00  0.00     0.059 H 
ENDBRANCH  25  31
ENDBRANCH  11  19
ENDBRANCH   3  11
BRANCH   1  35
ATOM     35  C3  0PL d   1      14.713  65.793  30.815  0.00  0.00     0.030 C 
ATOM     36  H4  0PL d   1      15.088  66.473  31.594  0.00  0.00     0.072 H 
ATOM     37  H5  0PL d   1      14.222  66.377  30.023  0.00  0.00     0.072 H 
BRANCH  35  38
ATOM     38  N2  0PL d   1      13.724  64.888  31.416  0.00  0.00    -0.307 N 
BRANCH  38  39
ATOM     39  C1  0PL d   1      13.095  63.968  30.457  0.00  0.00    -0.008 C 
ATOM     40  H1  0PL d   1      13.842  63.641  29.718  0.00  0.00     0.057 H 
ATOM     41  H2  0PL d   1      12.271  64.483  29.942  0.00  0.00     0.057 H 
ATOM     42  H3  0PL d   1      12.702  63.092  30.993  0.00  0.00     0.057 H 
ENDBRANCH  38  39
BRANCH  38  43
ATOM     43  S27 0PL d   1      12.764  65.480  32.593  0.00  0.00     0.260 S 
ATOM     44  O28 0PL d   1      12.111  64.360  33.197  0.00  0.00    -0.200 OA
ATOM     45  O29 0PL d   1      13.556  66.365  33.391  0.00  0.00    -0.200 OA
BRANCH  43  46
ATOM     46  C30 0PL d   1      11.554  66.436  31.739  0.00  0.00     0.079 A 
ATOM     47  C31 0PL d   1      11.741  67.797  31.572  0.00  0.00    -0.060 A 
ATOM     48  C32 0PL d   1      10.788  68.541  30.901  0.00  0.00    -0.082 A 
ATOM     49  H18 0PL d   1      12.630  68.277  31.965  0.00  0.00     0.085 H 
ATOM     50  C33 0PL d   1       9.658  67.927  30.401  0.00  0.00    -0.083 A 
ATOM     51  H19 0PL d   1      10.929  69.608  30.768  0.00  0.00     0.083 H 
ATOM     52  C34 0PL d   1       9.474  66.570  30.569  0.00  0.00    -0.082 A 
ATOM     53  H20 0PL d   1       8.913  68.512  29.875  0.00  0.00     0.083 H 
ATOM     54  C35 0PL d   1      10.420  65.820  31.237  0.00  0.00    -0.060 A 
ATOM     55  H21 0PL d   1       8.584  66.092  30.175  0.00  0.00     0.083 H 
ATOM     56  H22 0PL d   1      10.276  64.754  31.368  0.00  0.00     0.085 H 
ENDBRANCH  43  46
ENDBRANCH  38  43
ENDBRANCH  35  38
ENDBRANCH   1  35
TORSDOF 10
