REMARK  11 active torsions:
REMARK  status: ('A' for Active; 'I' for Inactive)
REMARK    1  A    between atoms: C1_1  and  O2_2 
REMARK    2  A    between atoms: O2_2  and  C3_3 
REMARK    3  A    between atoms: C5_5  and  C13_13 
REMARK    4  A    between atoms: N10_10  and  C11_11 
REMARK    5  A    between atoms: C13_13  and  C14_14 
REMARK    6  A    between atoms: C13_13  and  C18_18 
REMARK    7  A    between atoms: C14_14  and  C15_15 
REMARK    8  A    between atoms: C21_21  and  C22_22 
REMARK    9  A    between atoms: C23_23  and  C24_24 
REMARK   10  A    between atoms: C24_24  and  N25_25 
REMARK   11  A    between atoms: C27_27  and  C28_28 
ROOT
ATOM      1  C18 L6I d   1      16.951  64.126  28.134  0.00  0.00    -0.049 A 
ATOM      2  C19 L6I d   1      17.978  63.746  28.987  0.00  0.00    -0.076 A 
ATOM      3  C20 L6I d   1      17.917  64.036  30.340  0.00  0.00    -0.076 A 
ATOM      4  C21 L6I d   1      16.824  64.717  30.877  0.00  0.00    -0.054 A 
ATOM      5  C23 L6I d   1      15.781  65.107  30.028  0.00  0.00    -0.033 A 
ATOM      6  C39 L6I d   1      15.866  64.804  28.673  0.00  0.00    -0.068 A 
ATOM      7  H12 L6I d   1      18.837  63.217  28.590  0.00  0.00     0.084 H 
ATOM      8  H13 L6I d   1      18.729  63.730  30.990  0.00  0.00     0.084 H 
ATOM      9  H29 L6I d   1      15.059  65.107  28.016  0.00  0.00     0.085 H 
ENDROOT
BRANCH   1  10
ATOM     10  C13 L6I d   1      17.014  63.809  26.648  0.00  0.00     0.006 C 
ATOM     11  H9  L6I d   1      17.710  62.966  26.527  0.00  0.00     0.055 H 
BRANCH  10  12
ATOM     12  C5  L6I d   1      15.671  63.329  26.108  0.00  0.00    -0.044 A 
ATOM     13  C4  L6I d   1      14.952  64.046  25.147  0.00  0.00    -0.042 A 
ATOM     14  C3  L6I d   1      13.726  63.597  24.662  0.00  0.00     0.099 A 
ATOM     15  H4  L6I d   1      15.360  64.977  24.769  0.00  0.00     0.088 H 
ATOM     16  C12 L6I d   1      13.189  62.393  25.145  0.00  0.00     0.112 A 
ATOM     17  C7  L6I d   1      13.878  61.668  26.091  0.00  0.00     0.106 A 
ATOM     18  N10 L6I d   1      12.054  61.674  24.904  0.00  0.00    -0.273 N 
ATOM     19  C6  L6I d   1      15.127  62.130  26.582  0.00  0.00    -0.045 A 
ATOM     20  N8  L6I d   1      13.149  60.552  26.387  0.00  0.00    -0.158 NA
ATOM     21  H5  L6I d   1      15.662  61.552  27.327  0.00  0.00     0.088 H 
ATOM     22  N9  L6I d   1      12.039  60.550  25.669  0.00  0.00     0.005 NA
BRANCH  14  23
ATOM     23  O2  L6I d   1      12.960  64.238  23.723  0.00  0.00    -0.354 OA
BRANCH  23  24
ATOM     24  C1  L6I d   1      13.452  65.458  23.170  0.00  0.00     0.010 C 
ATOM     25  H1  L6I d   1      12.729  65.846  22.437  0.00  0.00     0.066 H 
ATOM     26  H2  L6I d   1      14.415  65.273  22.672  0.00  0.00     0.066 H 
ATOM     27  H3  L6I d   1      13.591  66.195  23.974  0.00  0.00     0.066 H 
ENDBRANCH  23  24
ENDBRANCH  14  23
BRANCH  18  28
ATOM     28  C11 L6I d   1      10.952  61.958  23.994  0.00  0.00    -0.000 C 
ATOM     29  H6  L6I d   1      11.146  62.904  23.468  0.00  0.00     0.059 H 
ATOM     30  H7  L6I d   1      10.016  62.042  24.566  0.00  0.00     0.059 H 
ATOM     31  H8  L6I d   1      10.862  61.142  23.261  0.00  0.00     0.059 H 
ENDBRANCH  18  28
ENDBRANCH  10  12
BRANCH  10  32
ATOM     32  C14 L6I d   1      17.628  64.993  25.891  0.00  0.00     0.026 C 
ATOM     33  H10 L6I d   1      18.576  65.257  26.382  0.00  0.00     0.050 H 
ATOM     34  H11 L6I d   1      16.931  65.841  25.961  0.00  0.00     0.050 H 
BRANCH  32  35
ATOM     35  C15 L6I d   1      17.915  64.738  24.416  0.00  0.00     0.173 C 
ATOM     36  O16 L6I d   1      17.579  65.632  23.607  0.00  0.00    -0.648 OA
ATOM     37  O17 L6I d   1      18.464  63.664  24.088  0.00  0.00    -0.648 OA
ENDBRANCH  32  35
ENDBRANCH  10  32
ENDBRANCH   1  10
BRANCH   5  38
ATOM     38  C24 L6I d   1      14.570  65.847  30.548  0.00  0.00     0.030 C 
ATOM     39  H17 L6I d   1      14.000  66.234  29.690  0.00  0.00     0.072 H 
ATOM     40  H18 L6I d   1      14.912  66.687  31.170  0.00  0.00     0.072 H 
BRANCH  38  41
ATOM     41  N25 L6I d   1      13.678  64.992  31.360  0.00  0.00    -0.300 N 
ATOM     42  C26 L6I d   1      13.104  63.803  30.676  0.00  0.00     0.030 C 
ATOM     43  C27 L6I d   1      11.936  64.138  29.749  0.00  0.00     0.058 C 
ATOM     44  H19 L6I d   1      12.749  63.098  31.442  0.00  0.00     0.069 H 
ATOM     45  H20 L6I d   1      13.897  63.328  30.079  0.00  0.00     0.069 H 
ATOM     46  O29 L6I d   1      10.796  64.574  30.507  0.00  0.00    -0.343 OA
ATOM     47  H21 L6I d   1      12.250  64.947  29.073  0.00  0.00     0.086 H 
ATOM     48  C30 L6I d   1      10.685  65.934  30.783  0.00  0.00     0.092 A 
ATOM     49  C31 L6I d   1       9.699  66.653  30.120  0.00  0.00    -0.049 A 
ATOM     50  C35 L6I d   1      11.525  66.570  31.691  0.00  0.00     0.113 A 
ATOM     51  C32 L6I d   1       9.555  68.007  30.366  0.00  0.00    -0.080 A 
ATOM     52  H25 L6I d   1       9.045  66.156  29.413  0.00  0.00     0.087 H 
ATOM     53  C33 L6I d   1      10.387  68.645  31.267  0.00  0.00    -0.081 A 
ATOM     54  H26 L6I d   1       8.786  68.570  29.850  0.00  0.00     0.083 H 
ATOM     55  C34 L6I d   1      11.373  67.934  31.932  0.00  0.00    -0.058 A 
ATOM     56  H27 L6I d   1      10.268  69.706  31.454  0.00  0.00     0.083 H 
ATOM     57  H28 L6I d   1      12.024  68.437  32.638  0.00  0.00     0.086 H 
ATOM     58  S36 L6I d   1      12.779  65.657  32.535  0.00  0.00     0.264 S 
ATOM     59  O37 L6I d   1      12.150  64.598  33.260  0.00  0.00    -0.200 OA
ATOM     60  O38 L6I d   1      13.606  66.577  33.257  0.00  0.00    -0.200 OA
BRANCH  43  61
ATOM     61  C28 L6I d   1      11.512  62.931  28.915  0.00  0.00    -0.050 C 
ATOM     62  H22 L6I d   1      10.672  63.213  28.263  0.00  0.00     0.031 H 
ATOM     63  H23 L6I d   1      11.200  62.115  29.583  0.00  0.00     0.031 H 
ATOM     64  H24 L6I d   1      12.359  62.596  28.298  0.00  0.00     0.031 H 
ENDBRANCH  43  61
ENDBRANCH  38  41
ENDBRANCH   5  38
BRANCH   4  65
ATOM     65  C22 L6I d   1      16.788  65.018  32.354  0.00  0.00    -0.051 C 
ATOM     66  H14 L6I d   1      17.699  64.627  32.830  0.00  0.00     0.033 H 
ATOM     67  H15 L6I d   1      15.905  64.541  32.804  0.00  0.00     0.033 H 
ATOM     68  H16 L6I d   1      16.734  66.106  32.505  0.00  0.00     0.033 H 
ENDBRANCH   4  65
TORSDOF 11
