REMARK  11 active torsions:
REMARK  status: ('A' for Active; 'I' for Inactive)
REMARK    1  A    between atoms: C_1  and  CA_14 
REMARK       I    between atoms: N10_19  and  C_1 
REMARK    2  A    between atoms: CA_14  and  N_2 
REMARK    3  A    between atoms: C6_9  and  N6_10 
REMARK    4  A    between atoms: C1'_18  and  N9_13 
REMARK    5  A    between atoms: CA_14  and  CB_15 
REMARK    6  A    between atoms: CB_15  and  CG_17 
REMARK    7  A    between atoms: CG_17  and  CD_16 
REMARK    8  A    between atoms: N10_19  and  C2'_20 
REMARK    9  A    between atoms: C3'_21  and  O3'_22 
REMARK   10  A    between atoms: C4'_23  and  C5'_25 
REMARK   11  A    between atoms: C5'_25  and  O5'_26 
ROOT
ATOM      1  C1' VRT d   1     -21.636   6.870  24.787  0.00  0.00     0.134 C 
ATOM      2  C2' VRT d   1     -22.846   6.023  25.253  0.00  0.00     0.082 C 
ATOM      3  C3' VRT d   1     -22.368   4.559  25.240  0.00  0.00     0.086 C 
ATOM      4  C4' VRT d   1     -20.842   4.675  25.144  0.00  0.00     0.088 C 
ATOM      5  O4' VRT d   1     -20.535   5.971  24.624  0.00  0.00    -0.354 OA
ATOM      6  H16 VRT d   1     -21.401   7.591  25.584  0.00  0.00     0.122 H 
ATOM      7  H18 VRT d   1     -23.712   6.144  24.586  0.00  0.00     0.083 H 
ATOM      8  H19 VRT d   1     -22.759   4.073  24.334  0.00  0.00     0.090 H 
ATOM      9  H21 VRT d   1     -20.422   4.576  26.156  0.00  0.00     0.090 H 
ENDROOT
BRANCH   2  10
ATOM     10  N10 VRT d   1     -23.164   6.524  26.597  0.00  0.00    -0.348 N 
ATOM     11  C   VRT d   1     -24.287   6.314  27.297  0.00  0.00     0.248 C 
ATOM     12  O   VRT d   1     -25.215   5.624  26.899  0.00  0.00    -0.271 OA
ATOM     13  H17 VRT d   1     -22.464   7.085  27.039  0.00  0.00     0.163 HD
BRANCH  11  14
ATOM     14  CA  VRT d   1     -24.298   6.997  28.650  0.00  0.00     0.176 C 
ATOM     15  H8  VRT d   1     -23.346   6.760  29.148  0.00  0.00     0.099 H 
BRANCH  14  16
ATOM     16  N   VRT d   1     -24.381   8.435  28.435  0.00  0.00    -0.067 N 
ATOM     17  H1  VRT d   1     -24.390   8.908  29.325  0.00  0.00     0.275 HD
ATOM     18  H2  VRT d   1     -25.227   8.651  27.932  0.00  0.00     0.275 HD
ATOM     19  H3  VRT d   1     -23.584   8.741  27.899  0.00  0.00     0.275 HD
ENDBRANCH  14  16
BRANCH  14  20
ATOM     20  CB  VRT d   1     -25.438   6.596  29.607  0.00  0.00    -0.030 C 
ATOM     21  H9  VRT d   1     -26.382   6.928  29.149  0.00  0.00     0.036 H 
ATOM     22  H10 VRT d   1     -25.279   7.137  30.551  0.00  0.00     0.036 H 
BRANCH  20  23
ATOM     23  CG  VRT d   1     -25.595   5.114  29.952  0.00  0.00    -0.066 C 
ATOM     24  H14 VRT d   1     -25.983   4.589  29.066  0.00  0.00     0.032 H 
ATOM     25  H15 VRT d   1     -26.317   5.023  30.777  0.00  0.00     0.032 H 
BRANCH  23  26
ATOM     26  CD  VRT d   1     -24.301   4.454  30.372  0.00  0.00    -0.076 C 
ATOM     27  H11 VRT d   1     -24.488   3.395  30.604  0.00  0.00     0.027 H 
ATOM     28  H12 VRT d   1     -23.904   4.960  31.264  0.00  0.00     0.027 H 
ATOM     29  H13 VRT d   1     -23.570   4.527  29.553  0.00  0.00     0.027 H 
ENDBRANCH  23  26
ENDBRANCH  20  23
ENDBRANCH  14  20
ENDBRANCH  11  14
ENDBRANCH   2  10
BRANCH   1  30
ATOM     30  N9  VRT d   1     -21.831   7.644  23.524  0.00  0.00    -0.296 N 
ATOM     31  C4  VRT d   1     -21.217   8.812  23.241  0.00  0.00     0.145 A 
ATOM     32  N3  VRT d   1     -20.330   9.630  23.895  0.00  0.00    -0.335 N 
ATOM     33  C5  VRT d   1     -21.704   9.219  21.897  0.00  0.00     0.149 A 
ATOM     34  C2  VRT d   1     -19.815  10.911  23.336  0.00  0.00     0.068 A 
ATOM     35  H5  VRT d   1     -20.001   9.341  24.827  0.00  0.00     0.168 HD
ATOM     36  N1  VRT d   1     -20.315  11.280  21.992  0.00  0.00    -0.223 NA
ATOM     37  H4  VRT d   1     -19.113  11.539  23.883  0.00  0.00     0.143 H 
ATOM     38  C6  VRT d   1     -21.209  10.510  21.309  0.00  0.00     0.176 A 
ATOM     39  N7  VRT d   1     -22.565   8.248  21.499  0.00  0.00    -0.236 NA
ATOM     40  C8  VRT d   1     -22.626   7.308  22.477  0.00  0.00     0.070 A 
ATOM     41  H7  VRT d   1     -23.232   6.405  22.428  0.00  0.00     0.144 H 
BRANCH  38  42
ATOM     42  N6  VRT d   1     -21.653  10.887  20.091  0.00  0.00    -0.280 NA
ATOM     43  H6  VRT d   1     -22.314  10.310  19.595  0.00  0.00     0.188 HD
ENDBRANCH  38  42
ENDBRANCH   1  30
BRANCH   3  44
ATOM     44  O3' VRT d   1     -22.757   3.738  26.361  0.00  0.00    -0.391 OA
ATOM     45  H20 VRT d   1     -23.705   3.699  26.410  0.00  0.00     0.210 HD
ENDBRANCH   3  44
BRANCH   4  46
ATOM     46  C5' VRT d   1     -20.191   3.622  24.252  0.00  0.00     0.043 C 
ATOM     47  H22 VRT d   1     -20.660   3.655  23.257  0.00  0.00     0.078 H 
ATOM     48  H23 VRT d   1     -20.347   2.628  24.698  0.00  0.00     0.078 H 
BRANCH  46  49
ATOM     49  O5' VRT d   1     -18.781   3.857  24.113  0.00  0.00    -0.398 OA
ATOM     50  H24 VRT d   1     -18.640   4.712  23.724  0.00  0.00     0.209 HD
ENDBRANCH  46  49
ENDBRANCH   4  46
TORSDOF 11
