REMARK  12 active torsions:
REMARK  status: ('A' for Active; 'I' for Inactive)
REMARK    1  A    between atoms: C_1  and  CA_14 
REMARK       I    between atoms: NAI_16  and  C_1 
REMARK    2  A    between atoms: CA_14  and  N_2 
REMARK    3  A    between atoms: C6_9  and  N6_10 
REMARK    4  A    between atoms: CAQ_24  and  N9_13 
REMARK    5  A    between atoms: CA_14  and  CB_15 
REMARK    6  A    between atoms: CB_15  and  CG1_26 
REMARK    7  A    between atoms: CB_15  and  CG2_27 
REMARK    8  A    between atoms: CAJ_17  and  NAI_16 
REMARK    9  A    between atoms: CAK_18  and  OAL_19 
REMARK   10  A    between atoms: CAM_20  and  CAN_21 
REMARK   11  A    between atoms: CAN_21  and  OAO_22 
REMARK   12  A    between atoms: CG1_26  and  CD1_25 
ROOT
ATOM      1  CAJ SO8 d   1      15.207   3.771  18.091  0.00  0.00     0.082 C 
ATOM      2  CAK SO8 d   1      14.296   4.978  18.099  0.00  0.00     0.086 C 
ATOM      3  CAM SO8 d   1      12.966   4.308  18.464  0.00  0.00     0.088 C 
ATOM      4  OAP SO8 d   1      12.938   3.101  17.666  0.00  0.00    -0.354 OA
ATOM      5  CAQ SO8 d   1      14.266   2.606  17.634  0.00  0.00     0.134 C 
ATOM      6  H11 SO8 d   1      16.055   3.922  17.407  0.00  0.00     0.083 H 
ATOM      7  H12 SO8 d   1      14.242   5.417  17.092  0.00  0.00     0.090 H 
ATOM      8  H14 SO8 d   1      12.977   4.041  19.531  0.00  0.00     0.090 H 
ATOM      9  H18 SO8 d   1      14.383   1.761  18.329  0.00  0.00     0.122 H 
ENDROOT
BRANCH   1  10
ATOM     10  NAI SO8 d   1      15.681   3.398  19.419  0.00  0.00    -0.348 N 
ATOM     11  C   SO8 d   1      16.937   3.603  19.859  0.00  0.00     0.249 C 
ATOM     12  O   SO8 d   1      17.754   4.232  19.229  0.00  0.00    -0.271 OA
ATOM     13  H10 SO8 d   1      15.032   2.962  20.043  0.00  0.00     0.163 HD
BRANCH  11  14
ATOM     14  CA  SO8 d   1      17.282   3.012  21.210  0.00  0.00     0.179 C 
ATOM     15  H8  SO8 d   1      16.320   2.797  21.698  0.00  0.00     0.099 H 
BRANCH  14  16
ATOM     16  N   SO8 d   1      17.988   1.746  20.991  0.00  0.00    -0.066 N 
ATOM     17  H1  SO8 d   1      17.477   1.187  20.326  0.00  0.00     0.275 HD
ATOM     18  H2  SO8 d   1      18.061   1.246  21.863  0.00  0.00     0.275 HD
ATOM     19  H3  SO8 d   1      18.912   1.934  20.633  0.00  0.00     0.275 HD
ENDBRANCH  14  16
BRANCH  14  20
ATOM     20  CB  SO8 d   1      18.101   3.813  22.224  0.00  0.00    -0.022 C 
ATOM     21  H9  SO8 d   1      18.387   3.110  23.020  0.00  0.00     0.043 H 
BRANCH  20  22
ATOM     22  CG1 SO8 d   1      17.228   4.889  22.886  0.00  0.00    -0.063 C 
ATOM     23  H22 SO8 d   1      16.180   4.553  22.879  0.00  0.00     0.033 H 
ATOM     24  H23 SO8 d   1      17.317   5.824  22.313  0.00  0.00     0.033 H 
BRANCH  22  25
ATOM     25  CD1 SO8 d   1      17.653   5.146  24.316  0.00  0.00    -0.076 C 
ATOM     26  H19 SO8 d   1      17.008   5.920  24.757  0.00  0.00     0.027 H 
ATOM     27  H20 SO8 d   1      18.698   5.488  24.332  0.00  0.00     0.027 H 
ATOM     28  H21 SO8 d   1      17.562   4.217  24.898  0.00  0.00     0.027 H 
ENDBRANCH  22  25
ENDBRANCH  20  22
BRANCH  20  29
ATOM     29  CG2 SO8 d   1      19.415   4.354  21.650  0.00  0.00    -0.070 C 
ATOM     30  H24 SO8 d   1      19.983   3.529  21.195  0.00  0.00     0.028 H 
ATOM     31  H25 SO8 d   1      20.009   4.807  22.457  0.00  0.00     0.028 H 
ATOM     32  H26 SO8 d   1      19.196   5.114  20.886  0.00  0.00     0.028 H 
ENDBRANCH  20  29
ENDBRANCH  14  20
ENDBRANCH  11  14
ENDBRANCH   1  10
BRANCH   2  33
ATOM     33  OAL SO8 d   1      14.668   6.011  18.995  0.00  0.00    -0.391 OA
ATOM     34  H13 SO8 d   1      14.675   5.672  19.882  0.00  0.00     0.210 HD
ENDBRANCH   2  33
BRANCH   5  35
ATOM     35  N9  SO8 d   1      14.487   2.129  16.248  0.00  0.00    -0.294 N 
ATOM     36  C4  SO8 d   1      14.074   0.954  15.806  0.00  0.00     0.167 A 
ATOM     37  N3  SO8 d   1      13.419  -0.085  16.415  0.00  0.00    -0.222 NA
ATOM     38  C5  SO8 d   1      14.487   0.870  14.404  0.00  0.00     0.149 A 
ATOM     39  C2  SO8 d   1      13.113  -1.315  15.708  0.00  0.00     0.091 A 
ATOM     40  N1  SO8 d   1      13.508  -1.371  14.320  0.00  0.00    -0.222 NA
ATOM     41  H4  SO8 d   1      12.615  -2.146  16.195  0.00  0.00     0.146 H 
ATOM     42  C6  SO8 d   1      14.142  -0.371  13.668  0.00  0.00     0.155 A 
ATOM     43  N7  SO8 d   1      15.077   2.033  14.081  0.00  0.00    -0.236 NA
ATOM     44  C8  SO8 d   1      15.074   2.798  15.200  0.00  0.00     0.071 A 
ATOM     45  H7  SO8 d   1      15.481   3.806  15.261  0.00  0.00     0.144 H 
BRANCH  42  46
ATOM     46  N6  SO8 d   1      14.474  -0.509  12.383  0.00  0.00    -0.382 N 
ATOM     47  H5  SO8 d   1      14.957   0.256  11.891  0.00  0.00     0.157 HD
ATOM     48  H6  SO8 d   1      14.247  -1.381  11.883  0.00  0.00     0.157 HD
ENDBRANCH  42  46
ENDBRANCH   5  35
BRANCH   3  49
ATOM     49  CAN SO8 d   1      11.756   5.189  18.223  0.00  0.00     0.043 C 
ATOM     50  H15 SO8 d   1      11.797   6.064  18.888  0.00  0.00     0.078 H 
ATOM     51  H16 SO8 d   1      10.837   4.619  18.424  0.00  0.00     0.078 H 
BRANCH  49  52
ATOM     52  OAO SO8 d   1      11.767   5.616  16.872  0.00  0.00    -0.398 OA
ATOM     53  H17 SO8 d   1      11.012   6.170  16.710  0.00  0.00     0.209 HD
ENDBRANCH  49  52
ENDBRANCH   3  49
TORSDOF 12
