REMARK  18 active torsions:
REMARK  status: ('A' for Active; 'I' for Inactive)
REMARK    1  A    between atoms: C_1  and  CH3_3 
REMARK       I    between atoms: C_1  and  N_4 
REMARK    2  A    between atoms: N_4  and  CA_5 
REMARK    3  A    between atoms: CA_5  and  C_6 
REMARK    4  A    between atoms: CA_5  and  CB_8 
REMARK       I    between atoms: C_6  and  N_15 
REMARK    5  A    between atoms: CB_8  and  CG_9 
REMARK    6  A    between atoms: N_15  and  CA_16 
REMARK    7  A    between atoms: CA_16  and  C_17 
REMARK    8  A    between atoms: CA_16  and  CB_19 
REMARK       I    between atoms: C_17  and  N_25 
REMARK    9  A    between atoms: CB_19  and  CG_20 
REMARK   10  A    between atoms: N_25  and  CA_26 
REMARK   11  A    between atoms: CA_26  and  C_27 
REMARK   12  A    between atoms: CA_26  and  CB_29 
REMARK       I    between atoms: C_27  and  N_32 
REMARK   13  A    between atoms: CB_29  and  OG1_30 
REMARK   14  A    between atoms: CB_29  and  CG2_31 
REMARK   15  A    between atoms: N_32  and  CA_33 
REMARK   16  A    between atoms: CA_33  and  C_34 
REMARK   17  A    between atoms: CA_33  and  CB_36 
REMARK       I    between atoms: C_34  and  N_38 
REMARK   18  A    between atoms: CB_36  and  CG_37 
ROOT
ATOM      1  CA  HIS d   1      25.963   2.482  44.215  0.00  0.00     0.094 C 
ATOM      2  H14 HIS d   1      26.579   1.743  44.748  0.00  0.00     0.088 H 
ENDROOT
BRANCH   1   3
ATOM      3  N   HIS d   1      25.885   2.120  42.812  0.00  0.00    -0.346 N 
ATOM      4  C   PHE d   1      26.711   1.234  42.274  0.00  0.00     0.241 C 
ATOM      5  O   PHE d   1      27.653   0.728  42.884  0.00  0.00    -0.271 OA
ATOM      6  H13 HIS d   1      25.190   2.550  42.236  0.00  0.00     0.163 HD
BRANCH   4   7
ATOM      7  CA  PHE d   1      26.472   0.909  40.805  0.00  0.00     0.093 C 
ATOM      8  H5  PHE d   1      25.905   1.740  40.361  0.00  0.00     0.088 H 
BRANCH   7   9
ATOM      9  N   PHE d   1      27.721   0.772  40.076  0.00  0.00    -0.348 N 
ATOM     10  C   ACE d   1      28.423   1.822  39.703  0.00  0.00     0.214 C 
ATOM     11  O   ACE d   1      28.101   2.959  40.062  0.00  0.00    -0.274 OA
ATOM     12  H4  PHE d   1      28.056  -0.143  39.852  0.00  0.00     0.163 HD
BRANCH  10  13
ATOM     13  CH3 ACE d   1      29.711   1.593  38.967  0.00  0.00    -0.003 C 
ATOM     14  H1  ACE d   1      29.816   0.523  38.736  0.00  0.00     0.040 H 
ATOM     15  H2  ACE d   1      30.554   1.918  39.594  0.00  0.00     0.040 H 
ATOM     16  H3  ACE d   1      29.706   2.171  38.031  0.00  0.00     0.040 H 
ENDBRANCH  10  13
ENDBRANCH   7   9
BRANCH   7  17
ATOM     17  CB  PHE d   1      25.644  -0.368  40.664  0.00  0.00    -0.014 C 
ATOM     18  H6  PHE d   1      24.795  -0.308  41.361  0.00  0.00     0.043 H 
ATOM     19  H7  PHE d   1      26.280  -1.224  40.933  0.00  0.00     0.043 H 
BRANCH  17  20
ATOM     20  CG  PHE d   1      25.101  -0.599  39.274  0.00  0.00    -0.056 A 
ATOM     21  CD1 PHE d   1      25.826  -1.317  38.336  0.00  0.00    -0.077 A 
ATOM     22  CE1 PHE d   1      25.324  -1.525  37.063  0.00  0.00    -0.082 A 
ATOM     23  H8  PHE d   1      26.797  -1.720  38.602  0.00  0.00     0.084 H 
ATOM     24  CZ  PHE d   1      24.080  -1.045  36.735  0.00  0.00    -0.083 A 
ATOM     25  H10 PHE d   1      25.910  -2.064  36.328  0.00  0.00     0.083 H 
ATOM     26  CE2 PHE d   1      23.345  -0.341  37.676  0.00  0.00    -0.082 A 
ATOM     27  H12 PHE d   1      23.674  -1.216  35.744  0.00  0.00     0.083 H 
ATOM     28  CD2 PHE d   1      23.861  -0.120  38.930  0.00  0.00    -0.077 A 
ATOM     29  H11 PHE d   1      22.361   0.036  37.422  0.00  0.00     0.083 H 
ATOM     30  H9  PHE d   1      23.282   0.439  39.656  0.00  0.00     0.084 H 
ENDBRANCH  17  20
ENDBRANCH   7  17
ENDBRANCH   4   7
ENDBRANCH   1   3
BRANCH   1  31
ATOM     31  C   HIS d   1      24.577   2.507  44.786  0.00  0.00     0.241 C 
ATOM     32  O   HIS d   1      23.622   2.845  44.109  0.00  0.00    -0.271 OA
ATOM     33  N   THR d   1      24.476   2.172  46.059  0.00  0.00    -0.344 N 
ATOM     34  H20 THR d   1      25.285   1.854  46.553  0.00  0.00     0.163 HD
BRANCH  33  35
ATOM     35  CA  THR d   1      23.205   2.260  46.747  0.00  0.00     0.113 C 
ATOM     36  H21 THR d   1      22.497   1.608  46.214  0.00  0.00     0.091 H 
BRANCH  35  37
ATOM     37  C   THR d   1      22.654   3.678  46.706  0.00  0.00     0.243 C 
ATOM     38  O   THR d   1      23.401   4.662  46.724  0.00  0.00    -0.271 OA
ATOM     39  N   ABA d   1      21.340   3.783  46.648  0.00  0.00    -0.346 N 
ATOM     40  H27 ABA d   1      20.779   2.962  46.548  0.00  0.00     0.163 HD
BRANCH  39  41
ATOM     41  CA  ABA d   1      20.693   5.113  46.731  0.00  0.00     0.089 C 
ATOM     42  H28 ABA d   1      21.406   5.862  46.356  0.00  0.00     0.087 H 
BRANCH  41  43
ATOM     43  C   ABA d   1      20.348   5.487  48.174  0.00  0.00     0.238 C 
ATOM     44  O   ABA d   1      19.887   6.603  48.403  0.00  0.00    -0.271 OA
ATOM     45  N   NH2 d   1      20.558   4.637  49.064  0.00  0.00    -0.368 N 
ATOM     46  H34 NH2 d   1      20.344   4.848  50.018  0.00  0.00     0.159 HD
ATOM     47  H35 NH2 d   1      20.940   3.745  48.823  0.00  0.00     0.159 HD
ENDBRANCH  41  43
BRANCH  41  48
ATOM     48  CB  ABA d   1      19.459   5.142  45.827  0.00  0.00    -0.041 C 
ATOM     49  H29 ABA d   1      18.962   6.117  45.935  0.00  0.00     0.036 H 
ATOM     50  H30 ABA d   1      18.771   4.343  46.140  0.00  0.00     0.036 H 
BRANCH  48  51
ATOM     51  CG  ABA d   1      19.817   4.936  44.376  0.00  0.00    -0.074 C 
ATOM     52  H31 ABA d   1      18.903   4.964  43.765  0.00  0.00     0.027 H 
ATOM     53  H32 ABA d   1      20.309   3.960  44.255  0.00  0.00     0.027 H 
ATOM     54  H33 ABA d   1      20.500   5.734  44.050  0.00  0.00     0.027 H 
ENDBRANCH  48  51
ENDBRANCH  41  48
ENDBRANCH  39  41
ENDBRANCH  35  37
BRANCH  35  55
ATOM     55  CB  THR d   1      23.286   1.762  48.213  0.00  0.00     0.060 C 
ATOM     56  H22 THR d   1      23.707   0.746  48.227  0.00  0.00     0.086 H 
BRANCH  55  57
ATOM     57  OG1 THR d   1      21.978   1.748  48.773  0.00  0.00    -0.393 OA
ATOM     58  H23 THR d   1      21.424   1.165  48.267  0.00  0.00     0.210 HD
ENDBRANCH  55  57
BRANCH  55  59
ATOM     59  CG2 THR d   1      24.151   2.671  49.043  0.00  0.00    -0.050 C 
ATOM     60  H24 THR d   1      24.192   2.296  50.076  0.00  0.00     0.031 H 
ATOM     61  H25 THR d   1      23.727   3.686  49.038  0.00  0.00     0.031 H 
ATOM     62  H26 THR d   1      25.167   2.696  48.622  0.00  0.00     0.031 H 
ENDBRANCH  55  59
ENDBRANCH  35  55
ENDBRANCH  33  35
ENDBRANCH   1  31
BRANCH   1  63
ATOM     63  CB  HIS d   1      26.558   3.872  44.401  0.00  0.00     0.002 C 
ATOM     64  H15 HIS d   1      26.504   4.134  45.468  0.00  0.00     0.046 H 
ATOM     65  H16 HIS d   1      25.961   4.588  43.817  0.00  0.00     0.046 H 
BRANCH  63  66
ATOM     66  CG  HIS d   1      27.973   3.972  43.963  0.00  0.00     0.030 A 
ATOM     67  ND1 HIS d   1      28.349   4.581  42.790  0.00  0.00    -0.353 N 
ATOM     68  CE1 HIS d   1      29.664   4.511  42.662  0.00  0.00     0.063 A 
ATOM     69  H17 HIS d   1      27.708   5.023  42.116  0.00  0.00     0.166 HD
ATOM     70  NE2 HIS d   1      30.153   3.889  43.718  0.00  0.00    -0.254 NA
ATOM     71  H19 HIS d   1      30.244   4.901  41.827  0.00  0.00     0.143 H 
ATOM     72  CD2 HIS d   1      29.115   3.539  44.547  0.00  0.00     0.025 A 
ATOM     73  H18 HIS d   1      29.196   3.012  45.496  0.00  0.00     0.117 H 
ENDBRANCH  63  66
ENDBRANCH   1  63
TORSDOF 18
