REMARK  13 active torsions:
REMARK  status: ('A' for Active; 'I' for Inactive)
REMARK    1  A    between atoms: C_1  and  CH3_3 
REMARK       I    between atoms: C_1  and  N_4 
REMARK    2  A    between atoms: N_4  and  CA_5 
REMARK    3  A    between atoms: CA_5  and  C_6 
REMARK    4  A    between atoms: CA_5  and  CB_8 
REMARK       I    between atoms: C_6  and  N_15 
REMARK    5  A    between atoms: CB_8  and  CG_9 
REMARK    6  A    between atoms: N_15  and  CA_16 
REMARK    7  A    between atoms: CA_16  and  C_17 
REMARK    8  A    between atoms: CA_16  and  CB_19 
REMARK       I    between atoms: C_17  and  N_25 
REMARK    9  A    between atoms: CB_19  and  CG_20 
REMARK   10  A    between atoms: CA_26  and  C_27 
REMARK       I    between atoms: C_27  and  N_32 
REMARK   11  A    between atoms: N_32  and  CA_33 
REMARK   12  A    between atoms: CA_33  and  C_34 
REMARK   13  A    between atoms: CA_33  and  CB_36 
REMARK       I    between atoms: C_34  and  N_37 
ROOT
ATOM      1  CA  HIS d   1      25.791   2.546  44.527  0.00  0.00     0.095 C 
ATOM      2  H14 HIS d   1      26.324   1.756  45.077  0.00  0.00     0.088 H 
ENDROOT
BRANCH   1   3
ATOM      3  N   HIS d   1      25.751   2.185  43.102  0.00  0.00    -0.346 N 
ATOM      4  C   PHE d   1      26.573   1.282  42.573  0.00  0.00     0.241 C 
ATOM      5  O   PHE d   1      27.489   0.746  43.211  0.00  0.00    -0.271 OA
ATOM      6  H13 HIS d   1      25.082   2.634  42.509  0.00  0.00     0.163 HD
BRANCH   4   7
ATOM      7  CA  PHE d   1      26.351   0.944  41.097  0.00  0.00     0.093 C 
ATOM      8  H5  PHE d   1      25.801   1.775  40.631  0.00  0.00     0.088 H 
BRANCH   7   9
ATOM      9  N   PHE d   1      27.619   0.787  40.395  0.00  0.00    -0.348 N 
ATOM     10  C   ACE d   1      28.353   1.838  40.045  0.00  0.00     0.214 C 
ATOM     11  O   ACE d   1      27.982   3.000  40.196  0.00  0.00    -0.274 OA
ATOM     12  H4  PHE d   1      27.944  -0.132  40.172  0.00  0.00     0.163 HD
BRANCH  10  13
ATOM     13  CH3 ACE d   1      29.659   1.499  39.381  0.00  0.00    -0.003 C 
ATOM     14  H1  ACE d   1      29.784   0.406  39.355  0.00  0.00     0.040 H 
ATOM     15  H2  ACE d   1      30.487   1.949  39.949  0.00  0.00     0.040 H 
ATOM     16  H3  ACE d   1      29.661   1.893  38.354  0.00  0.00     0.040 H 
ENDBRANCH  10  13
ENDBRANCH   7   9
BRANCH   7  17
ATOM     17  CB  PHE d   1      25.508  -0.326  40.971  0.00  0.00    -0.014 C 
ATOM     18  H6  PHE d   1      24.625  -0.221  41.619  0.00  0.00     0.043 H 
ATOM     19  H7  PHE d   1      26.113  -1.179  41.311  0.00  0.00     0.043 H 
BRANCH  17  20
ATOM     20  CG  PHE d   1      25.038  -0.608  39.573  0.00  0.00    -0.056 A 
ATOM     21  CD1 PHE d   1      25.823  -1.343  38.687  0.00  0.00    -0.077 A 
ATOM     22  CE1 PHE d   1      25.389  -1.598  37.380  0.00  0.00    -0.082 A 
ATOM     23  H8  PHE d   1      26.784  -1.723  39.014  0.00  0.00     0.084 H 
ATOM     24  CZ  PHE d   1      24.156  -1.119  36.957  0.00  0.00    -0.083 A 
ATOM     25  H10 PHE d   1      26.013  -2.167  36.701  0.00  0.00     0.083 H 
ATOM     26  CE2 PHE d   1      23.369  -0.379  37.837  0.00  0.00    -0.082 A 
ATOM     27  H12 PHE d   1      23.808  -1.319  35.950  0.00  0.00     0.083 H 
ATOM     28  CD2 PHE d   1      23.811  -0.132  39.138  0.00  0.00    -0.077 A 
ATOM     29  H11 PHE d   1      22.410   0.006  37.510  0.00  0.00     0.083 H 
ATOM     30  H9  PHE d   1      23.187   0.439  39.816  0.00  0.00     0.084 H 
ENDBRANCH  17  20
ENDBRANCH   7  17
ENDBRANCH   4   7
ENDBRANCH   1   3
BRANCH   1  31
ATOM     31  C   HIS d   1      24.370   2.665  45.073  0.00  0.00     0.243 C 
ATOM     32  O   HIS d   1      23.475   3.009  44.321  0.00  0.00    -0.271 OA
ATOM     33  N   PRO d   1      24.159   2.414  46.384  0.00  0.00    -0.337 N 
ATOM     34  CA  PRO d   1      22.811   2.606  46.950  0.00  0.00     0.091 C 
ATOM     35  CD  PRO d   1      25.126   1.947  47.397  0.00  0.00    -0.001 C 
ATOM     36  CB  PRO d   1      23.008   2.329  48.446  0.00  0.00    -0.036 C 
ATOM     37  H20 PRO d   1      22.104   1.888  46.509  0.00  0.00     0.087 H 
ATOM     38  CG  PRO d   1      24.236   1.488  48.527  0.00  0.00    -0.048 C 
ATOM     39  H21 PRO d   1      22.142   1.788  48.856  0.00  0.00     0.036 H 
ATOM     40  H22 PRO d   1      23.148   3.270  48.998  0.00  0.00     0.036 H 
ATOM     41  H23 PRO d   1      23.981   0.425  48.406  0.00  0.00     0.035 H 
ATOM     42  H24 PRO d   1      24.738   1.636  49.494  0.00  0.00     0.035 H 
ATOM     43  H25 PRO d   1      25.786   2.765  47.721  0.00  0.00     0.064 H 
ATOM     44  H26 PRO d   1      25.734   1.116  47.010  0.00  0.00     0.064 H 
BRANCH  34  45
ATOM     45  C   PRO d   1      22.280   4.027  46.735  0.00  0.00     0.241 C 
ATOM     46  O   PRO d   1      23.059   4.980  46.801  0.00  0.00    -0.271 OA
ATOM     47  N   ALA d   1      20.971   4.157  46.517  0.00  0.00    -0.346 N 
ATOM     48  H27 ALA d   1      20.385   3.355  46.635  0.00  0.00     0.163 HD
BRANCH  47  49
ATOM     49  CA  ALA d   1      20.354   5.421  46.113  0.00  0.00     0.086 C 
ATOM     50  H28 ALA d   1      21.006   5.870  45.349  0.00  0.00     0.086 H 
BRANCH  49  51
ATOM     51  C   ALA d   1      20.192   6.446  47.228  0.00  0.00     0.237 C 
ATOM     52  O   ALA d   1      19.941   7.619  46.954  0.00  0.00    -0.271 OA
ATOM     53  N   NH2 d   1      20.307   6.002  48.473  0.00  0.00    -0.368 N 
ATOM     54  H32 NH2 d   1      20.209   6.635  49.241  0.00  0.00     0.159 HD
ATOM     55  H33 NH2 d   1      20.492   5.034  48.644  0.00  0.00     0.159 HD
ENDBRANCH  49  51
BRANCH  49  56
ATOM     56  CB  ALA d   1      18.996   5.152  45.484  0.00  0.00    -0.049 C 
ATOM     57  H29 ALA d   1      18.537   6.105  45.182  0.00  0.00     0.030 H 
ATOM     58  H30 ALA d   1      18.347   4.647  46.215  0.00  0.00     0.030 H 
ATOM     59  H31 ALA d   1      19.122   4.510  44.600  0.00  0.00     0.030 H 
ENDBRANCH  49  56
ENDBRANCH  47  49
ENDBRANCH  34  45
ENDBRANCH   1  31
BRANCH   1  60
ATOM     60  CB  HIS d   1      26.520   3.874  44.738  0.00  0.00     0.004 C 
ATOM     61  H15 HIS d   1      26.602   4.054  45.820  0.00  0.00     0.046 H 
ATOM     62  H16 HIS d   1      25.920   4.673  44.278  0.00  0.00     0.046 H 
BRANCH  60  63
ATOM     63  CG  HIS d   1      27.895   3.922  44.149  0.00  0.00     0.053 A 
ATOM     64  ND1 HIS d   1      28.983   3.321  44.747  0.00  0.00    -0.247 NA
ATOM     65  CE1 HIS d   1      30.060   3.537  44.014  0.00  0.00     0.064 A 
ATOM     66  NE2 HIS d   1      29.713   4.262  42.965  0.00  0.00    -0.359 N 
ATOM     67  H18 HIS d   1      31.064   3.178  44.236  0.00  0.00     0.143 H 
ATOM     68  CD2 HIS d   1      28.363   4.520  43.028  0.00  0.00     0.002 A 
ATOM     69  H19 HIS d   1      30.350   4.582  42.221  0.00  0.00     0.166 HD
ATOM     70  H17 HIS d   1      27.780   5.097  42.311  0.00  0.00     0.114 H 
ENDBRANCH  60  63
ENDBRANCH   1  60
TORSDOF 13
