REMARK  16 active torsions:
REMARK  status: ('A' for Active; 'I' for Inactive)
REMARK    1  A    between atoms: C_1  and  CH3_3 
REMARK       I    between atoms: C_1  and  N_4 
REMARK    2  A    between atoms: N_4  and  CA_5 
REMARK    3  A    between atoms: CA_5  and  C_6 
REMARK    4  A    between atoms: CA_5  and  CB_8 
REMARK       I    between atoms: C_6  and  N_15 
REMARK    5  A    between atoms: CB_8  and  CG_9 
REMARK    6  A    between atoms: N_15  and  CA_16 
REMARK    7  A    between atoms: CA_16  and  C_17 
REMARK    8  A    between atoms: CA_16  and  CB_19 
REMARK       I    between atoms: C_17  and  N_25 
REMARK    9  A    between atoms: CB_19  and  CG_20 
REMARK   10  A    between atoms: N_25  and  CA_26 
REMARK   11  A    between atoms: CA_26  and  C_27 
REMARK   12  A    between atoms: CA_26  and  CB_29 
REMARK       I    between atoms: C_27  and  N_32 
REMARK   13  A    between atoms: CB_29  and  OG1_30 
REMARK   14  A    between atoms: CB_29  and  CG2_31 
REMARK   15  A    between atoms: N_32  and  CA_33 
REMARK   16  A    between atoms: CA_33  and  C_34 
REMARK       I    between atoms: C_34  and  N_36 
ROOT
ATOM      1  CA  HIS d   1      16.009  -9.908   2.537  0.00  0.00     0.094 C 
ATOM      2  H14 HIS d   1      16.698 -10.445   1.868  0.00  0.00     0.088 H 
ENDROOT
BRANCH   1   3
ATOM      3  N   HIS d   1      15.932  -8.516   2.092  0.00  0.00    -0.346 N 
ATOM      4  C   PHE d   1      16.755  -8.028   1.171  0.00  0.00     0.241 C 
ATOM      5  O   PHE d   1      17.622  -8.701   0.625  0.00  0.00    -0.271 OA
ATOM      6  H13 HIS d   1      15.240  -7.915   2.493  0.00  0.00     0.163 HD
BRANCH   4   7
ATOM      7  CA  PHE d   1      16.568  -6.559   0.806  0.00  0.00     0.093 C 
ATOM      8  H5  PHE d   1      16.096  -6.046   1.657  0.00  0.00     0.088 H 
BRANCH   7   9
ATOM      9  N   PHE d   1      17.849  -5.925   0.543  0.00  0.00    -0.348 N 
ATOM     10  C   ACE d   1      18.629  -5.409   1.494  0.00  0.00     0.214 C 
ATOM     11  O   ACE d   1      19.700  -4.861   1.212  0.00  0.00    -0.274 OA
ATOM     12  H4  PHE d   1      18.163  -5.873  -0.405  0.00  0.00     0.163 HD
BRANCH  10  13
ATOM     13  CH3 ACE d   1      18.130  -5.487   2.908  0.00  0.00    -0.003 C 
ATOM     14  H1  ACE d   1      17.164  -6.013   2.928  0.00  0.00     0.040 H 
ATOM     15  H2  ACE d   1      18.001  -4.471   3.308  0.00  0.00     0.040 H 
ATOM     16  H3  ACE d   1      18.858  -6.034   3.524  0.00  0.00     0.040 H 
ENDBRANCH  10  13
ENDBRANCH   7   9
BRANCH   7  17
ATOM     17  CB  PHE d   1      15.645  -6.437  -0.407  0.00  0.00    -0.014 C 
ATOM     18  H6  PHE d   1      14.776  -7.092  -0.247  0.00  0.00     0.043 H 
ATOM     19  H7  PHE d   1      16.198  -6.772  -1.297  0.00  0.00     0.043 H 
BRANCH  17  20
ATOM     20  CG  PHE d   1      15.146  -5.042  -0.658  0.00  0.00    -0.056 A 
ATOM     21  CD1 PHE d   1      15.909  -4.142  -1.387  0.00  0.00    -0.077 A 
ATOM     22  CE1 PHE d   1      15.455  -2.864  -1.636  0.00  0.00    -0.082 A 
ATOM     23  H8  PHE d   1      16.877  -4.448  -1.767  0.00  0.00     0.084 H 
ATOM     24  CZ  PHE d   1      14.226  -2.467  -1.146  0.00  0.00    -0.083 A 
ATOM     25  H10 PHE d   1      16.060  -2.174  -2.213  0.00  0.00     0.083 H 
ATOM     26  CE2 PHE d   1      13.449  -3.368  -0.417  0.00  0.00    -0.082 A 
ATOM     27  H12 PHE d   1      13.867  -1.460  -1.327  0.00  0.00     0.083 H 
ATOM     28  CD2 PHE d   1      13.909  -4.637  -0.179  0.00  0.00    -0.077 A 
ATOM     29  H11 PHE d   1      12.480  -3.064  -0.038  0.00  0.00     0.083 H 
ATOM     30  H9  PHE d   1      13.300  -5.331   0.389  0.00  0.00     0.084 H 
ENDBRANCH  17  20
ENDBRANCH   7  17
ENDBRANCH   4   7
ENDBRANCH   1   3
BRANCH   1  31
ATOM     31  C   HIS d   1      14.654 -10.591   2.479  0.00  0.00     0.241 C 
ATOM     32  O   HIS d   1      13.630  -9.987   2.790  0.00  0.00    -0.271 OA
ATOM     33  N   THR d   1      14.656 -11.864   2.093  0.00  0.00    -0.344 N 
ATOM     34  H20 THR d   1      15.524 -12.293   1.845  0.00  0.00     0.163 HD
BRANCH  33  35
ATOM     35  CA  THR d   1      13.433 -12.652   2.020  0.00  0.00     0.113 C 
ATOM     36  H21 THR d   1      12.752 -12.167   1.304  0.00  0.00     0.091 H 
BRANCH  35  37
ATOM     37  C   THR d   1      12.741 -12.724   3.371  0.00  0.00     0.243 C 
ATOM     38  O   THR d   1      13.396 -12.878   4.400  0.00  0.00    -0.271 OA
ATOM     39  N   GLY d   1      11.420 -12.551   3.371  0.00  0.00    -0.350 N 
ATOM     40  H27 GLY d   1      10.972 -12.261   2.525  0.00  0.00     0.163 HD
BRANCH  39  41
ATOM     41  CA  GLY d   1      10.606 -12.769   4.555  0.00  0.00     0.069 C 
ATOM     42  H28 GLY d   1      10.770 -13.807   4.880  0.00  0.00     0.078 H 
ATOM     43  H29 GLY d   1       9.554 -12.639   4.260  0.00  0.00     0.078 H 
BRANCH  41  44
ATOM     44  C   GLY d   1      10.854 -11.873   5.755  0.00  0.00     0.233 C 
ATOM     45  O   GLY d   1       9.985 -11.736   6.612  0.00  0.00    -0.272 OA
ATOM     46  N   NH2 d   1      12.040 -11.273   5.829  0.00  0.00    -0.369 N 
ATOM     47  H30 NH2 d   1      12.250 -10.673   6.601  0.00  0.00     0.159 HD
ATOM     48  H31 NH2 d   1      12.721 -11.422   5.112  0.00  0.00     0.159 HD
ENDBRANCH  41  44
ENDBRANCH  39  41
ENDBRANCH  35  37
BRANCH  35  49
ATOM     49  CB  THR d   1      13.736 -14.077   1.523  0.00  0.00     0.060 C 
ATOM     50  H22 THR d   1      14.407 -14.572   2.240  0.00  0.00     0.086 H 
BRANCH  49  51
ATOM     51  OG1 THR d   1      14.377 -14.001   0.245  0.00  0.00    -0.393 OA
ATOM     52  H23 THR d   1      13.802 -13.563  -0.371  0.00  0.00     0.210 HD
ENDBRANCH  49  51
BRANCH  49  53
ATOM     53  CG2 THR d   1      12.472 -14.885   1.393  0.00  0.00    -0.050 C 
ATOM     54  H24 THR d   1      12.718 -15.896   1.037  0.00  0.00     0.031 H 
ATOM     55  H25 THR d   1      11.797 -14.397   0.674  0.00  0.00     0.031 H 
ATOM     56  H26 THR d   1      11.977 -14.952   2.373  0.00  0.00     0.031 H 
ENDBRANCH  49  53
ENDBRANCH  35  49
ENDBRANCH  33  35
ENDBRANCH   1  31
BRANCH   1  57
ATOM     57  CB  HIS d   1      16.553  -9.984   3.961  0.00  0.00     0.004 C 
ATOM     58  H15 HIS d   1      16.456 -11.021   4.314  0.00  0.00     0.046 H 
ATOM     59  H16 HIS d   1      15.949  -9.322   4.599  0.00  0.00     0.046 H 
BRANCH  57  60
ATOM     60  CG  HIS d   1      17.989  -9.576   4.082  0.00  0.00     0.053 A 
ATOM     61  ND1 HIS d   1      18.380  -8.387   4.660  0.00  0.00    -0.247 NA
ATOM     62  CE1 HIS d   1      19.698  -8.297   4.628  0.00  0.00     0.064 A 
ATOM     63  NE2 HIS d   1      20.175  -9.382   4.046  0.00  0.00    -0.359 N 
ATOM     64  H18 HIS d   1      20.290  -7.469   5.016  0.00  0.00     0.143 H 
ATOM     65  CD2 HIS d   1      19.127 -10.199   3.695  0.00  0.00     0.002 A 
ATOM     66  H19 HIS d   1      21.172  -9.584   3.882  0.00  0.00     0.166 HD
ATOM     67  H17 HIS d   1      19.198 -11.166   3.199  0.00  0.00     0.114 H 
ENDBRANCH  57  60
ENDBRANCH   1  57
TORSDOF 16
