REMARK  16 active torsions:
REMARK  status: ('A' for Active; 'I' for Inactive)
REMARK    1  A    between atoms: C_1  and  CH3_3 
REMARK       I    between atoms: C_1  and  N_4 
REMARK    2  A    between atoms: N_4  and  CA_5 
REMARK    3  A    between atoms: CA_5  and  C_6 
REMARK    4  A    between atoms: CA_5  and  CB_8 
REMARK       I    between atoms: C_6  and  N_15 
REMARK    5  A    between atoms: CB_8  and  CG_9 
REMARK    6  A    between atoms: N_15  and  CA_16 
REMARK    7  A    between atoms: CA_16  and  C_17 
REMARK    8  A    between atoms: CA_16  and  CB_19 
REMARK       I    between atoms: C_17  and  N_20 
REMARK    9  A    between atoms: N_20  and  CA_21 
REMARK   10  A    between atoms: CA_21  and  C_22 
REMARK   11  A    between atoms: CA_21  and  CB_24 
REMARK       I    between atoms: C_22  and  N_27 
REMARK   12  A    between atoms: CB_24  and  OG1_25 
REMARK   13  A    between atoms: CB_24  and  CG2_26 
REMARK   14  A    between atoms: N_27  and  CA_28 
REMARK   15  A    between atoms: CA_28  and  C_29 
REMARK   16  A    between atoms: CA_28  and  CB_31 
REMARK       I    between atoms: C_29  and  N_32 
ROOT
ATOM      1  CA  ALA d   1      25.960   2.282  44.022  0.00  0.00     0.086 C 
ATOM      2  H14 ALA d   1      26.551   1.550  44.592  0.00  0.00     0.086 H 
ENDROOT
BRANCH   1   3
ATOM      3  N   ALA d   1      25.865   1.836  42.642  0.00  0.00    -0.346 N 
ATOM      4  C   PHE d   1      26.710   0.924  42.193  0.00  0.00     0.241 C 
ATOM      5  O   PHE d   1      27.636   0.506  42.888  0.00  0.00    -0.271 OA
ATOM      6  H13 ALA d   1      25.166   2.216  42.037  0.00  0.00     0.163 HD
BRANCH   4   7
ATOM      7  CA  PHE d   1      26.540   0.455  40.758  0.00  0.00     0.093 C 
ATOM      8  H5  PHE d   1      26.395   1.328  40.104  0.00  0.00     0.088 H 
BRANCH   7   9
ATOM      9  N   PHE d   1      27.737  -0.257  40.397  0.00  0.00    -0.348 N 
ATOM     10  C   ACE d   1      28.642   0.265  39.604  0.00  0.00     0.214 C 
ATOM     11  O   ACE d   1      28.494   1.409  39.164  0.00  0.00    -0.274 OA
ATOM     12  H4  PHE d   1      27.883  -1.177  40.761  0.00  0.00     0.163 HD
BRANCH  10  13
ATOM     13  CH3 ACE d   1      29.797  -0.677  39.345  0.00  0.00    -0.003 C 
ATOM     14  H1  ACE d   1      29.628  -1.621  39.883  0.00  0.00     0.040 H 
ATOM     15  H2  ACE d   1      30.732  -0.216  39.697  0.00  0.00     0.040 H 
ATOM     16  H3  ACE d   1      29.871  -0.878  38.266  0.00  0.00     0.040 H 
ENDBRANCH  10  13
ENDBRANCH   7   9
BRANCH   7  17
ATOM     17  CB  PHE d   1      25.386  -0.510  40.575  0.00  0.00    -0.014 C 
ATOM     18  H6  PHE d   1      24.497  -0.092  41.070  0.00  0.00     0.043 H 
ATOM     19  H7  PHE d   1      25.652  -1.468  41.046  0.00  0.00     0.043 H 
BRANCH  17  20
ATOM     20  CG  PHE d   1      25.054  -0.763  39.127  0.00  0.00    -0.056 A 
ATOM     21  CD1 PHE d   1      25.820  -1.608  38.318  0.00  0.00    -0.077 A 
ATOM     22  CE1 PHE d   1      25.480  -1.795  36.960  0.00  0.00    -0.082 A 
ATOM     23  H8  PHE d   1      26.679  -2.122  38.735  0.00  0.00     0.084 H 
ATOM     24  CZ  PHE d   1      24.417  -1.152  36.443  0.00  0.00    -0.083 A 
ATOM     25  H10 PHE d   1      26.073  -2.454  36.337  0.00  0.00     0.083 H 
ATOM     26  CE2 PHE d   1      23.659  -0.318  37.242  0.00  0.00    -0.082 A 
ATOM     27  H12 PHE d   1      24.155  -1.288  35.400  0.00  0.00     0.083 H 
ATOM     28  CD2 PHE d   1      23.975  -0.139  38.564  0.00  0.00    -0.077 A 
ATOM     29  H11 PHE d   1      22.806   0.200  36.819  0.00  0.00     0.083 H 
ATOM     30  H9  PHE d   1      23.358   0.510  39.175  0.00  0.00     0.084 H 
ENDBRANCH  17  20
ENDBRANCH   7  17
ENDBRANCH   4   7
ENDBRANCH   1   3
BRANCH   1  31
ATOM     31  C   ALA d   1      24.575   2.383  44.627  0.00  0.00     0.240 C 
ATOM     32  O   ALA d   1      23.649   2.900  43.994  0.00  0.00    -0.271 OA
ATOM     33  N   THR d   1      24.463   1.919  45.875  0.00  0.00    -0.344 N 
ATOM     34  H18 THR d   1      25.254   1.501  46.321  0.00  0.00     0.163 HD
BRANCH  33  35
ATOM     35  CA  THR d   1      23.202   2.016  46.589  0.00  0.00     0.113 C 
ATOM     36  H19 THR d   1      22.451   1.435  46.034  0.00  0.00     0.091 H 
BRANCH  35  37
ATOM     37  C   THR d   1      22.733   3.459  46.655  0.00  0.00     0.243 C 
ATOM     38  O   THR d   1      23.520   4.384  46.879  0.00  0.00    -0.271 OA
ATOM     39  N   ALA d   1      21.431   3.636  46.504  0.00  0.00    -0.346 N 
ATOM     40  H25 ALA d   1      20.858   2.841  46.303  0.00  0.00     0.163 HD
BRANCH  39  41
ATOM     41  CA  ALA d   1      20.805   4.931  46.618  0.00  0.00     0.086 C 
ATOM     42  H26 ALA d   1      21.478   5.689  46.191  0.00  0.00     0.086 H 
BRANCH  41  43
ATOM     43  C   ALA d   1      20.556   5.285  48.088  0.00  0.00     0.237 C 
ATOM     44  O   ALA d   1      20.160   6.405  48.401  0.00  0.00    -0.271 OA
ATOM     45  N   NH2 d   1      20.794   4.333  48.988  0.00  0.00    -0.368 N 
ATOM     46  H30 NH2 d   1      20.646   4.516  49.960  0.00  0.00     0.159 HD
ATOM     47  H31 NH2 d   1      21.120   3.435  48.692  0.00  0.00     0.159 HD
ENDBRANCH  41  43
BRANCH  41  48
ATOM     48  CB  ALA d   1      19.511   4.921  45.812  0.00  0.00    -0.049 C 
ATOM     49  H27 ALA d   1      19.023   5.904  45.890  0.00  0.00     0.030 H 
ATOM     50  H28 ALA d   1      18.839   4.145  46.207  0.00  0.00     0.030 H 
ATOM     51  H29 ALA d   1      19.738   4.707  44.757  0.00  0.00     0.030 H 
ENDBRANCH  41  48
ENDBRANCH  39  41
ENDBRANCH  35  37
BRANCH  35  52
ATOM     52  CB  THR d   1      23.309   1.429  48.003  0.00  0.00     0.060 C 
ATOM     53  H20 THR d   1      23.615   0.375  47.929  0.00  0.00     0.086 H 
BRANCH  52  54
ATOM     54  OG1 THR d   1      22.022   1.512  48.629  0.00  0.00    -0.393 OA
ATOM     55  H21 THR d   1      21.391   1.018  48.119  0.00  0.00     0.210 HD
ENDBRANCH  52  54
BRANCH  52  56
ATOM     56  CG2 THR d   1      24.323   2.177  48.862  0.00  0.00    -0.050 C 
ATOM     57  H22 THR d   1      24.364   1.721  49.862  0.00  0.00     0.031 H 
ATOM     58  H23 THR d   1      24.021   3.231  48.952  0.00  0.00     0.031 H 
ATOM     59  H24 THR d   1      25.316   2.119  48.392  0.00  0.00     0.031 H 
ENDBRANCH  52  56
ENDBRANCH  35  52
ENDBRANCH  33  35
ENDBRANCH   1  31
BRANCH   1  60
ATOM     60  CB  ALA d   1      26.642   3.649  44.108  0.00  0.00    -0.049 C 
ATOM     61  H15 ALA d   1      26.701   3.963  45.160  0.00  0.00     0.030 H 
ATOM     62  H16 ALA d   1      26.058   4.386  43.537  0.00  0.00     0.030 H 
ATOM     63  H17 ALA d   1      27.656   3.580  43.688  0.00  0.00     0.030 H 
ENDBRANCH   1  60
TORSDOF 16
