REMARK  13 active torsions:
REMARK  status: ('A' for Active; 'I' for Inactive)
REMARK    1  A    between atoms: C6_2  and  O6_1 
REMARK    2  A    between atoms: C5_3  and  C6_2 
REMARK    3  A    between atoms: C10_4  and  C9_16 
REMARK    4  A    between atoms: C11_19  and  C10_4 
REMARK    5  A    between atoms: C4_6  and  O4_7 
REMARK    6  A    between atoms: C3_8  and  O3_9 
REMARK    7  A    between atoms: C2_10  and  O2_11 
REMARK    8  A    between atoms: O1_13  and  C1_12 
REMARK    9  A    between atoms: C7_14  and  O1_13 
REMARK   10  A    between atoms: C8_15  and  C7_14 
REMARK   11  A    between atoms: C9_16  and  C8_15 
REMARK   12  A    between atoms: C12_18  and  C13_17 
REMARK   13  A    between atoms: C12_18  and  C11_19 
ROOT
ATOM      1  O1  KGM d   1      -7.479   3.068  -1.635  0.00  0.00    -0.359 OA
ENDROOT
BRANCH   1   2
ATOM      2  C1  KGM d   1      -8.114   4.361  -1.564  0.00  0.00     0.158 C 
ATOM      3  O5  KGM d   1      -8.002   4.770  -0.170  0.00  0.00    -0.348 OA
ATOM      4  C5  KGM d   1      -6.637   4.890   0.314  0.00  0.00     0.089 C 
ATOM      5  C4  KGM d   1      -5.915   5.948  -0.523  0.00  0.00     0.090 C 
ATOM      6  H4  KGM d   1      -6.111   3.928   0.223  0.00  0.00     0.090 H 
ATOM      7  C3  KGM d   1      -5.932   5.501  -1.979  0.00  0.00     0.092 C 
ATOM      8  H7  KGM d   1      -6.418   6.921  -0.418  0.00  0.00     0.091 H 
ATOM      9  C2  KGM d   1      -7.373   5.338  -2.467  0.00  0.00     0.110 C 
ATOM     10  H9  KGM d   1      -5.386   4.553  -2.091  0.00  0.00     0.091 H 
ATOM     11  H11 KGM d   1      -7.379   4.982  -3.508  0.00  0.00     0.094 H 
ATOM     12  H13 KGM d   1      -9.169   4.298  -1.867  0.00  0.00     0.133 H 
BRANCH   4  13
ATOM     13  C6  KGM d   1      -6.723   5.300   1.792  0.00  0.00     0.043 C 
ATOM     14  H2  KGM d   1      -7.270   4.526   2.350  0.00  0.00     0.078 H 
ATOM     15  H3  KGM d   1      -5.706   5.396   2.200  0.00  0.00     0.078 H 
BRANCH  13  16
ATOM     16  O6  KGM d   1      -7.409   6.557   1.932  0.00  0.00    -0.398 OA
ATOM     17  H1  KGM d   1      -7.452   6.793   2.851  0.00  0.00     0.209 HD
ENDBRANCH  13  16
ENDBRANCH   4  13
BRANCH   5  18
ATOM     18  O4  KGM d   1      -4.523   6.052  -0.080  0.00  0.00    -0.390 OA
ATOM     19  H8  KGM d   1      -4.501   6.302   0.836  0.00  0.00     0.210 HD
ENDBRANCH   5  18
BRANCH   7  20
ATOM     20  O3  KGM d   1      -5.314   6.534  -2.756  0.00  0.00    -0.390 OA
ATOM     21  H10 KGM d   1      -5.311   6.281  -3.672  0.00  0.00     0.210 HD
ENDBRANCH   7  20
BRANCH   9  22
ATOM     22  O2  KGM d   1      -8.049   6.575  -2.360  0.00  0.00    -0.388 OA
ATOM     23  H12 KGM d   1      -7.605   7.224  -2.893  0.00  0.00     0.210 HD
ENDBRANCH   9  22
ENDBRANCH   1   2
BRANCH   1  24
ATOM     24  C7  KGM d   1      -8.193   2.059  -0.882  0.00  0.00     0.023 C 
ATOM     25  H14 KGM d   1      -9.200   1.897  -1.294  0.00  0.00     0.074 H 
ATOM     26  H15 KGM d   1      -8.272   2.340   0.179  0.00  0.00     0.074 H 
BRANCH  24  27
ATOM     27  C8  KGM d   1      -7.330   0.825  -1.055  0.00  0.00    -0.045 C 
ATOM     28  H16 KGM d   1      -6.307   1.051  -0.720  0.00  0.00     0.036 H 
ATOM     29  H17 KGM d   1      -7.314   0.543  -2.118  0.00  0.00     0.036 H 
BRANCH  27  30
ATOM     30  C9  KGM d   1      -7.879  -0.346  -0.234  0.00  0.00    -0.063 C 
ATOM     31  H18 KGM d   1      -7.923  -0.068   0.829  0.00  0.00     0.033 H 
ATOM     32  H19 KGM d   1      -8.887  -0.609  -0.587  0.00  0.00     0.033 H 
BRANCH  30  33
ATOM     33  C10 KGM d   1      -6.938  -1.536  -0.420  0.00  0.00    -0.065 C 
ATOM     34  H5  KGM d   1      -5.917  -1.239  -0.140  0.00  0.00     0.033 H 
ATOM     35  H6  KGM d   1      -6.953  -1.850  -1.474  0.00  0.00     0.033 H 
BRANCH  33  36
ATOM     36  C11 KGM d   1      -7.385  -2.707   0.463  0.00  0.00    -0.065 C 
ATOM     37  H25 KGM d   1      -8.381  -3.052   0.150  0.00  0.00     0.033 H 
ATOM     38  H26 KGM d   1      -7.421  -2.389   1.516  0.00  0.00     0.033 H 
BRANCH  36  39
ATOM     39  C12 KGM d   1      -6.356  -3.848   0.293  0.00  0.00    -0.069 C 
ATOM     40  H23 KGM d   1      -6.390  -4.210  -0.745  0.00  0.00     0.032 H 
ATOM     41  H24 KGM d   1      -5.351  -3.460   0.513  0.00  0.00     0.032 H 
BRANCH  39  42
ATOM     42  C13 KGM d   1      -6.656  -5.002   1.228  0.00  0.00    -0.077 C 
ATOM     43  H20 KGM d   1      -5.908  -5.795   1.083  0.00  0.00     0.027 H 
ATOM     44  H21 KGM d   1      -7.659  -5.399   1.010  0.00  0.00     0.027 H 
ATOM     45  H22 KGM d   1      -6.619  -4.649   2.269  0.00  0.00     0.027 H 
ENDBRANCH  39  42
ENDBRANCH  36  39
ENDBRANCH  33  36
ENDBRANCH  30  33
ENDBRANCH  27  30
ENDBRANCH  24  27
ENDBRANCH   1  24
TORSDOF 13
