REMARK  9 active torsions:
REMARK  status: ('A' for Active; 'I' for Inactive)
REMARK    1  A    between atoms: O6_1  and  C6_2 
REMARK    2  A    between atoms: C6_2  and  C5_3 
REMARK    3  A    between atoms: C4_4  and  O4_5 
REMARK    4  A    between atoms: O4_5  and  C7_6 
REMARK    5  A    between atoms: C3_7  and  O3_8 
REMARK    6  A    between atoms: C2_9  and  O2_10 
REMARK    7  A    between atoms: C1_12  and  O1_13 
REMARK    8  A    between atoms: O1_13  and  C8_14 
REMARK    9  A    between atoms: C8_14  and  C9_15 
ROOT
ATOM      1  C5  G8Z d   1     -26.870 -14.974  25.419  0.00  0.00     0.089 C 
ATOM      2  C4  G8Z d   1     -26.603 -15.228  26.954  0.00  0.00     0.092 C 
ATOM      3  C3  G8Z d   1     -27.721 -15.901  27.746  0.00  0.00     0.092 C 
ATOM      4  C2  G8Z d   1     -28.215 -17.143  26.941  0.00  0.00     0.110 C 
ATOM      5  O5  G8Z d   1     -27.473 -16.123  24.807  0.00  0.00    -0.348 OA
ATOM      6  C1  G8Z d   1     -28.576 -16.669  25.498  0.00  0.00     0.159 C 
ATOM      7  H4  G8Z d   1     -27.582 -14.138  25.353  0.00  0.00     0.090 H 
ATOM      8  H5  G8Z d   1     -25.718 -15.878  27.017  0.00  0.00     0.091 H 
ATOM      9  H9  G8Z d   1     -28.556 -15.191  27.845  0.00  0.00     0.091 H 
ATOM     10  H11 G8Z d   1     -29.137 -17.515  27.411  0.00  0.00     0.094 H 
ATOM     11  H13 G8Z d   1     -28.946 -17.524  24.913  0.00  0.00     0.133 H 
ENDROOT
BRANCH   6  12
ATOM     12  O1  G8Z d   1     -29.583 -15.782  25.683  0.00  0.00    -0.355 OA
BRANCH  12  13
ATOM     13  C8  G8Z d   1     -30.029 -14.967  24.635  0.00  0.00     0.037 C 
ATOM     14  H14 G8Z d   1     -30.834 -15.479  24.088  0.00  0.00     0.080 H 
ATOM     15  H15 G8Z d   1     -29.194 -14.760  23.949  0.00  0.00     0.080 H 
BRANCH  13  16
ATOM     16  C9  G8Z d   1     -30.562 -13.639  25.214  0.00  0.00    -0.089 C 
ATOM     17  C10 G8Z d   1     -31.051 -13.416  26.481  0.00  0.00    -0.123 C 
ATOM     18  H17 G8Z d   1     -31.398 -12.423  26.764  0.00  0.00     0.066 H 
ATOM     19  H18 G8Z d   1     -31.091 -14.232  27.201  0.00  0.00     0.066 H 
ATOM     20  H16 G8Z d   1     -30.550 -12.781  24.544  0.00  0.00     0.078 H 
ENDBRANCH  13  16
ENDBRANCH  12  13
ENDBRANCH   6  12
BRANCH   4  21
ATOM     21  O2  G8Z d   1     -27.282 -18.184  26.988  0.00  0.00    -0.388 OA
ATOM     22  H12 G8Z d   1     -26.460 -17.888  26.614  0.00  0.00     0.210 HD
ENDBRANCH   4  21
BRANCH   3  23
ATOM     23  O3  G8Z d   1     -27.303 -16.261  29.038  0.00  0.00    -0.390 OA
ATOM     24  H10 G8Z d   1     -27.030 -15.483  29.510  0.00  0.00     0.210 HD
ENDBRANCH   3  23
BRANCH   1  25
ATOM     25  C6  G8Z d   1     -25.616 -14.580  24.595  0.00  0.00     0.043 C 
ATOM     26  H2  G8Z d   1     -25.075 -13.793  25.141  0.00  0.00     0.078 H 
ATOM     27  H3  G8Z d   1     -24.973 -15.467  24.497  0.00  0.00     0.078 H 
BRANCH  25  28
ATOM     28  O6  G8Z d   1     -25.909 -14.109  23.325  0.00  0.00    -0.398 OA
ATOM     29  H1  G8Z d   1     -25.101 -13.887  22.877  0.00  0.00     0.209 HD
ENDBRANCH  25  28
ENDBRANCH   1  25
BRANCH   2  30
ATOM     30  O4  G8Z d   1     -26.321 -14.014  27.612  0.00  0.00    -0.385 OA
BRANCH  30  31
ATOM     31  C7  G8Z d   1     -25.014 -13.971  28.082  0.00  0.00     0.005 C 
ATOM     32  H6  G8Z d   1     -24.837 -13.010  28.587  0.00  0.00     0.066 H 
ATOM     33  H7  G8Z d   1     -24.317 -14.075  27.237  0.00  0.00     0.066 H 
ATOM     34  H8  G8Z d   1     -24.853 -14.794  28.794  0.00  0.00     0.066 H 
ENDBRANCH  30  31
ENDBRANCH   2  30
TORSDOF 9
