REMARK  7 active torsions:
REMARK  status: ('A' for Active; 'I' for Inactive)
REMARK    1  A    between atoms: C2_2  and  N2_3 
REMARK    2  A    between atoms: C6_5  and  C7_6 
REMARK    3  A    between atoms: O3'_13  and  C4_7 
REMARK    4  A    between atoms: C1'_10  and  O1'_9 
REMARK    5  A    between atoms: C2'_11  and  C1'_10 
REMARK    6  A    between atoms: C3'_12  and  C2'_11 
REMARK    7  A    between atoms: C3'_12  and  O3'_13 
ROOT
ATOM      1  N3  6Q3 d   1      15.879  21.655   4.783  0.00  0.00    -0.039 NA
ATOM      2  C2  6Q3 d   1      17.184  21.342   4.634  0.00  0.00     0.722 A 
ATOM      3  N1  6Q3 d   1      18.016  21.876   3.716  0.00  0.00    -0.068 NA
ATOM      4  C6  6Q3 d   1      17.503  22.802   2.892  0.00  0.00     0.054 A 
ATOM      5  C4  6Q3 d   1      15.414  22.583   3.957  0.00  0.00     0.185 A 
ATOM      6  C5  6Q3 d   1      16.180  23.195   2.981  0.00  0.00    -0.007 A 
ATOM      7  H6  6Q3 d   1      15.764  23.945   2.319  0.00  0.00     0.093 H 
ENDROOT
BRANCH   5   8
ATOM      8  O3' 6Q3 d   1      14.120  22.993   4.021  0.00  0.00    -0.334 OA
BRANCH   8   9
ATOM      9  C3' 6Q3 d   1      13.268  22.399   5.010  0.00  0.00     0.029 C 
ATOM     10  H12 6Q3 d   1      13.095  21.339   4.773  0.00  0.00     0.075 H 
ATOM     11  H13 6Q3 d   1      13.729  22.481   6.005  0.00  0.00     0.075 H 
BRANCH   9  12
ATOM     12  C2' 6Q3 d   1      11.963  23.158   4.978  0.00  0.00    -0.025 C 
ATOM     13  H10 6Q3 d   1      12.076  24.096   5.541  0.00  0.00     0.039 H 
ATOM     14  H11 6Q3 d   1      11.703  23.386   3.934  0.00  0.00     0.039 H 
BRANCH  12  15
ATOM     15  C1' 6Q3 d   1      10.880  22.354   5.585  0.00  0.00     0.019 C 
ATOM     16  H8  6Q3 d   1      11.287  21.675   6.349  0.00  0.00     0.074 H 
ATOM     17  H9  6Q3 d   1      10.124  23.009   6.042  0.00  0.00     0.074 H 
BRANCH  15  18
ATOM     18  O1' 6Q3 d   1      10.320  21.622   4.526  0.00  0.00    -0.401 OA
ATOM     19  H7  6Q3 d   1       9.612  21.081   4.856  0.00  0.00     0.209 HD
ENDBRANCH  15  18
ENDBRANCH  12  15
ENDBRANCH   9  12
ENDBRANCH   8   9
ENDBRANCH   5   8
BRANCH   2  20
ATOM     20  N2  6Q3 d   1      17.691  20.423   5.454  0.00  0.00    -0.231 N 
ATOM     21  H1  6Q3 d   1      17.094  19.987   6.171  0.00  0.00     0.174 HD
ATOM     22  H2  6Q3 d   1      18.680  20.148   5.371  0.00  0.00     0.174 HD
ENDBRANCH   2  20
BRANCH   4  23
ATOM     23  C7  6Q3 d   1      18.435  23.388   1.877  0.00  0.00    -0.035 C 
ATOM     24  H3  6Q3 d   1      17.896  24.129   1.268  0.00  0.00     0.035 H 
ATOM     25  H4  6Q3 d   1      18.818  22.588   1.226  0.00  0.00     0.035 H 
ATOM     26  H5  6Q3 d   1      19.276  23.878   2.390  0.00  0.00     0.035 H 
ENDBRANCH   4  23
TORSDOF 7
