REMARK  1 active torsions:
REMARK  status: ('A' for Active; 'I' for Inactive)
REMARK    1  A    between atoms: N6_9  and  C7_10 
ROOT
ATOM      1  O2  S76 d   1      17.528  19.505   6.479  0.00  0.00    -0.247 OA
ATOM      2  C2  S76 d   1      17.075  20.148   5.539  0.00  0.00     0.328 A 
ATOM      3  N3  S76 d   1      15.738  20.123   5.220  0.00  0.00    -0.279 N 
ATOM      4  C4  S76 d   1      15.118  20.857   4.219  0.00  0.00     0.232 A 
ATOM      5  O4  S76 d   1      13.913  20.650   3.983  0.00  0.00    -0.273 OA
ATOM      6  C5  S76 d   1      15.979  21.710   3.455  0.00  0.00     0.064 A 
ATOM      7  N1  S76 d   1      17.849  21.034   4.830  0.00  0.00    -0.296 N 
ATOM      8  C6  S76 d   1      17.311  21.810   3.768  0.00  0.00     0.110 A 
ATOM      9  N6  S76 d   1      18.200  22.530   3.047  0.00  0.00    -0.281 NA
ATOM     10  H1  S76 d   1      15.156  19.517   5.762  0.00  0.00     0.173 HD
ATOM     11  H2  S76 d   1      15.561  22.725   3.525  0.00  0.00     0.059 H 
ATOM     12  H3  S76 d   1      15.925  21.362   2.413  0.00  0.00     0.059 H 
ATOM     13  H4  S76 d   1      18.815  21.136   5.067  0.00  0.00     0.172 HD
ENDROOT
BRANCH   9  14
ATOM     14  C7  S76 d   1      17.832  23.393   1.938  0.00  0.00     0.002 C 
ATOM     15  H5  S76 d   1      18.736  23.863   1.523  0.00  0.00     0.059 H 
ATOM     16  H6  S76 d   1      17.144  24.174   2.294  0.00  0.00     0.059 H 
ATOM     17  H7  S76 d   1      17.338  22.796   1.157  0.00  0.00     0.059 H 
ENDBRANCH   9  14
TORSDOF 1
