REMARK  8 active torsions:
REMARK  status: ('A' for Active; 'I' for Inactive)
REMARK    1  A    between atoms: O3A_8  and  PB_1 
REMARK    2  A    between atoms: PA_5  and  O3A_8 
REMARK    3  A    between atoms: PA_5  and  O5'_9 
REMARK    4  A    between atoms: O5'_9  and  C5'_10 
REMARK    5  A    between atoms: C5'_10  and  C4'_11 
REMARK    6  A    between atoms: C3'_13  and  O3'_14 
REMARK    7  A    between atoms: C2'_15  and  O2'_16 
REMARK    8  A    between atoms: C1'_17  and  N9_18 
ROOT
ATOM      1  C4' ADP d   1      64.203   9.341  82.201  0.00  0.00     0.089 C 
ATOM      2  O4' ADP d   1      64.636   8.563  81.088  0.00  0.00    -0.353 OA
ATOM      3  C3' ADP d   1      62.849   9.916  81.819  0.00  0.00     0.091 C 
ATOM      4  C2' ADP d   1      62.403   9.082  80.640  0.00  0.00     0.105 C 
ATOM      5  C1' ADP d   1      63.753   8.755  79.993  0.00  0.00     0.139 C 
ATOM      6  H3  ADP d   1      64.908  10.163  82.396  0.00  0.00     0.090 H 
ATOM      7  H4  ADP d   1      62.139   9.851  82.657  0.00  0.00     0.091 H 
ATOM      8  H6  ADP d   1      61.898   8.162  80.970  0.00  0.00     0.093 H 
ATOM      9  H8  ADP d   1      64.089   9.616  79.396  0.00  0.00     0.122 H 
ENDROOT
BRANCH   5  10
ATOM     10  N9  ADP d   1      63.700   7.574  79.098  0.00  0.00    -0.294 N 
ATOM     11  C8  ADP d   1      63.001   6.438  79.318  0.00  0.00     0.071 A 
ATOM     12  N7  ADP d   1      63.158   5.581  78.284  0.00  0.00    -0.236 NA
ATOM     13  H9  ADP d   1      62.397   6.241  80.203  0.00  0.00     0.144 H 
ATOM     14  C5  ADP d   1      63.957   6.174  77.379  0.00  0.00     0.149 A 
ATOM     15  C6  ADP d   1      64.521   5.797  76.068  0.00  0.00     0.155 A 
ATOM     16  C4  ADP d   1      64.319   7.491  77.914  0.00  0.00     0.167 A 
ATOM     17  N6  ADP d   1      64.224   4.593  75.535  0.00  0.00    -0.382 N 
ATOM     18  N1  ADP d   1      65.313   6.691  75.441  0.00  0.00    -0.222 NA
ATOM     19  H10 ADP d   1      64.614   4.324  74.621  0.00  0.00     0.157 HD
ATOM     20  H11 ADP d   1      63.607   3.943  76.043  0.00  0.00     0.157 HD
ATOM     21  C2  ADP d   1      65.606   7.896  75.983  0.00  0.00     0.091 A 
ATOM     22  N3  ADP d   1      65.136   8.296  77.180  0.00  0.00    -0.222 NA
ATOM     23  H12 ADP d   1      66.249   8.570  75.428  0.00  0.00     0.146 H 
ENDBRANCH   5  10
BRANCH   4  24
ATOM     24  O2' ADP d   1      61.509   9.817  79.791  0.00  0.00    -0.388 OA
ATOM     25  H7  ADP d   1      61.950  10.592  79.464  0.00  0.00     0.210 HD
ENDBRANCH   4  24
BRANCH   1  26
ATOM     26  C5' ADP d   1      64.152   8.426  83.419  0.00  0.00     0.058 C 
ATOM     27  H1  ADP d   1      65.153   8.006  83.598  0.00  0.00     0.079 H 
ATOM     28  H2  ADP d   1      63.837   9.009  84.297  0.00  0.00     0.079 H 
BRANCH  26  29
ATOM     29  O5' ADP d   1      63.225   7.358  83.206  0.00  0.00    -0.287 OA
BRANCH  29  30
ATOM     30  PA  ADP d   1      63.621   5.842  83.569  0.00  0.00     0.418 P 
ATOM     31  O1A ADP d   1      62.380   5.060  83.952  0.00  0.00    -0.624 OA
ATOM     32  O2A ADP d   1      64.457   5.370  82.407  0.00  0.00    -0.624 OA
BRANCH  30  33
ATOM     33  O3A ADP d   1      64.588   6.034  84.850  0.00  0.00    -0.173 OA
BRANCH  33  34
ATOM     34  PB  ADP d   1      64.149   5.981  86.403  0.00  0.00     0.431 P 
ATOM     35  O1B ADP d   1      62.742   6.546  86.415  0.00  0.00    -0.616 OA
ATOM     36  O2B ADP d   1      65.161   6.850  87.121  0.00  0.00    -0.616 OA
ATOM     37  O3B ADP d   1      64.255   4.524  86.767  0.00  0.00    -0.616 OA
ENDBRANCH  33  34
ENDBRANCH  30  33
ENDBRANCH  29  30
ENDBRANCH  26  29
ENDBRANCH   1  26
BRANCH   3  38
ATOM     38  O3' ADP d   1      62.978  11.271  81.374  0.00  0.00    -0.390 OA
ATOM     39  H5  ADP d   1      62.121  11.610  81.141  0.00  0.00     0.210 HD
ENDBRANCH   3  38
TORSDOF 8
