REMARK  14 active torsions:
REMARK  status: ('A' for Active; 'I' for Inactive)
REMARK    1  A    between atoms: C1'_13  and  N9_10 
REMARK    2  A    between atoms: O3A_26  and  PA_11 
REMARK    3  A    between atoms: PA_11  and  O5'_34 
REMARK    4  A    between atoms: PB_12  and  O3A_26 
REMARK    5  A    between atoms: O5D_36  and  PB_12 
REMARK    6  A    between atoms: C1D_16  and  O1D_17 
REMARK    7  A    between atoms: C2'_18  and  O2'_19 
REMARK    8  A    between atoms: C2D_22  and  O2D_23 
REMARK    9  A    between atoms: C3'_24  and  O3'_25 
REMARK   10  A    between atoms: C3D_27  and  O3D_28 
REMARK   11  A    between atoms: C5'_33  and  C4'_29 
REMARK   12  A    between atoms: C5D_35  and  C4D_31 
REMARK   13  A    between atoms: O5'_34  and  C5'_33 
REMARK   14  A    between atoms: C5D_35  and  O5D_36 
ROOT
ATOM      1  C5' AR6 d   1      25.768   5.016  13.268  0.00  0.00     0.058 C 
ATOM      2  H18 AR6 d   1      24.802   5.293  13.714  0.00  0.00     0.079 H 
ATOM      3  H19 AR6 d   1      25.624   4.175  12.574  0.00  0.00     0.079 H 
ENDROOT
BRANCH   1   4
ATOM      4  C4' AR6 d   1      26.740   4.596  14.381  0.00  0.00     0.089 C 
ATOM      5  C3' AR6 d   1      27.268   5.658  15.348  0.00  0.00     0.091 C 
ATOM      6  C2' AR6 d   1      28.636   5.999  14.793  0.00  0.00     0.105 C 
ATOM      7  H12 AR6 d   1      26.617   6.543  15.395  0.00  0.00     0.091 H 
ATOM      8  C1' AR6 d   1      29.053   4.602  14.360  0.00  0.00     0.139 C 
ATOM      9  H8  AR6 d   1      28.523   6.668  13.928  0.00  0.00     0.093 H 
ATOM     10  O4' AR6 d   1      27.893   4.101  13.728  0.00  0.00    -0.353 OA
ATOM     11  H5  AR6 d   1      29.294   3.996  15.246  0.00  0.00     0.122 H 
ATOM     12  H16 AR6 d   1      26.255   3.805  14.972  0.00  0.00     0.090 H 
BRANCH   5  13
ATOM     13  O3' AR6 d   1      27.385   5.034  16.641  0.00  0.00    -0.390 OA
ATOM     14  H13 AR6 d   1      27.821   5.629  17.240  0.00  0.00     0.210 HD
ENDBRANCH   5  13
BRANCH   6  15
ATOM     15  O2' AR6 d   1      29.623   6.584  15.651  0.00  0.00    -0.388 OA
ATOM     16  H9  AR6 d   1      29.342   7.454  15.908  0.00  0.00     0.210 HD
ENDBRANCH   6  15
BRANCH   8  17
ATOM     17  N9  AR6 d   1      30.215   4.574  13.461  0.00  0.00    -0.294 N 
ATOM     18  C4  AR6 d   1      31.094   3.591  13.430  0.00  0.00     0.167 A 
ATOM     19  N3  AR6 d   1      31.256   2.389  14.090  0.00  0.00    -0.222 NA
ATOM     20  C5  AR6 d   1      32.034   3.984  12.401  0.00  0.00     0.149 A 
ATOM     21  C2  AR6 d   1      32.285   1.588  13.775  0.00  0.00     0.091 A 
ATOM     22  N1  AR6 d   1      33.223   1.927  12.860  0.00  0.00    -0.222 NA
ATOM     23  H1  AR6 d   1      32.369   0.629  14.274  0.00  0.00     0.146 H 
ATOM     24  C6  AR6 d   1      33.146   3.072  12.172  0.00  0.00     0.155 A 
ATOM     25  N6  AR6 d   1      34.051   3.359  11.260  0.00  0.00    -0.382 N 
ATOM     26  H2  AR6 d   1      33.989   4.241  10.732  0.00  0.00     0.157 HD
ATOM     27  H3  AR6 d   1      34.822   2.701  11.074  0.00  0.00     0.157 HD
ATOM     28  N7  AR6 d   1      31.654   5.186  11.921  0.00  0.00    -0.236 NA
ATOM     29  C8  AR6 d   1      30.546   5.526  12.562  0.00  0.00     0.071 A 
ATOM     30  H4  AR6 d   1      29.983   6.442  12.389  0.00  0.00     0.144 H 
ENDBRANCH   8  17
ENDBRANCH   1   4
BRANCH   1  31
ATOM     31  O5' AR6 d   1      26.293   6.129  12.555  0.00  0.00    -0.287 OA
BRANCH  31  32
ATOM     32  PA  AR6 d   1      26.388   6.143  10.947  0.00  0.00     0.417 P 
ATOM     33  O1A AR6 d   1      27.205   4.972  10.495  0.00  0.00    -0.624 OA
ATOM     34  O2A AR6 d   1      26.856   7.492  10.538  0.00  0.00    -0.624 OA
BRANCH  32  35
ATOM     35  O3A AR6 d   1      24.907   5.748  10.482  0.00  0.00    -0.180 OA
BRANCH  35  36
ATOM     36  PB  AR6 d   1      23.582   6.613  10.347  0.00  0.00     0.417 P 
ATOM     37  O1B AR6 d   1      22.391   5.716  10.570  0.00  0.00    -0.624 OA
ATOM     38  O2B AR6 d   1      23.611   7.926  11.121  0.00  0.00    -0.624 OA
BRANCH  36  39
ATOM     39  O5D AR6 d   1      23.631   7.028   8.794  0.00  0.00    -0.287 OA
BRANCH  39  40
ATOM     40  C5D AR6 d   1      23.406   6.029   7.799  0.00  0.00     0.058 C 
ATOM     41  H20 AR6 d   1      23.792   5.067   8.167  0.00  0.00     0.079 H 
ATOM     42  H21 AR6 d   1      22.324   5.945   7.617  0.00  0.00     0.079 H 
BRANCH  40  43
ATOM     43  C4D AR6 d   1      24.095   6.367   6.498  0.00  0.00     0.090 C 
ATOM     44  C3D AR6 d   1      23.777   5.347   5.431  0.00  0.00     0.092 C 
ATOM     45  C2D AR6 d   1      25.002   4.453   5.451  0.00  0.00     0.110 C 
ATOM     46  H14 AR6 d   1      22.875   4.778   5.701  0.00  0.00     0.091 H 
ATOM     47  C1D AR6 d   1      26.125   5.334   5.943  0.00  0.00     0.156 C 
ATOM     48  H10 AR6 d   1      24.844   3.654   6.190  0.00  0.00     0.094 H 
ATOM     49  O4D AR6 d   1      25.515   6.384   6.721  0.00  0.00    -0.349 OA
ATOM     50  H6  AR6 d   1      26.786   4.743   6.594  0.00  0.00     0.133 H 
ATOM     51  H17 AR6 d   1      23.762   7.359   6.159  0.00  0.00     0.090 H 
BRANCH  44  52
ATOM     52  O3D AR6 d   1      23.578   5.937   4.132  0.00  0.00    -0.390 OA
ATOM     53  H15 AR6 d   1      22.805   6.490   4.151  0.00  0.00     0.210 HD
ENDBRANCH  44  52
BRANCH  45  54
ATOM     54  O2D AR6 d   1      25.231   3.815   4.198  0.00  0.00    -0.388 OA
ATOM     55  H11 AR6 d   1      26.000   3.261   4.262  0.00  0.00     0.210 HD
ENDBRANCH  45  54
BRANCH  47  56
ATOM     56  O1D AR6 d   1      26.913   5.850   4.863  0.00  0.00    -0.369 OA
ATOM     57  H7  AR6 d   1      27.605   6.400   5.212  0.00  0.00     0.212 HD
ENDBRANCH  47  56
ENDBRANCH  40  43
ENDBRANCH  39  40
ENDBRANCH  36  39
ENDBRANCH  35  36
ENDBRANCH  32  35
ENDBRANCH  31  32
ENDBRANCH   1  31
TORSDOF 14
