REMARK  14 active torsions:
REMARK  status: ('A' for Active; 'I' for Inactive)
REMARK    1  A    between atoms: CAQ_1  and  NAP_2 
REMARK    2  A    between atoms: NAP_2  and  CAT_3 
REMARK    3  A    between atoms: NAP_2  and  CAM_4 
REMARK    4  A    between atoms: NAJ_9  and  CAA_10 
REMARK    5  A    between atoms: CAA_10  and  CAU_11 
REMARK    6  A    between atoms: CAX_16  and  OBA_17 
REMARK    7  A    between atoms: OBA_17  and  CBB_18 
REMARK    8  A    between atoms: CBB_18  and  CBC_19 
REMARK    9  A    between atoms: CBC_19  and  OBD_20 
REMARK   10  A    between atoms: OBD_20  and  CBE_21 
REMARK   11  A    between atoms: CBH_26  and  CAB_27 
REMARK   12  A    between atoms: CAB_27  and  NAC_28 
REMARK   13  A    between atoms: NAI_32  and  CAS_33 
REMARK   14  A    between atoms: NAI_32  and  CAR_34 
ROOT
ATOM      1  CBB NBR d   1     -15.282   7.896   2.607  0.00  0.00     0.046 C 
ATOM      2  H18 NBR d   1     -16.351   7.670   2.483  0.00  0.00     0.078 H 
ATOM      3  H19 NBR d   1     -14.959   8.587   1.814  0.00  0.00     0.078 H 
ENDROOT
BRANCH   1   4
ATOM      4  OBA NBR d   1     -14.526   6.712   2.558  0.00  0.00    -0.349 OA
BRANCH   4   5
ATOM      5  CAX NBR d   1     -14.965   5.713   1.632  0.00  0.00     0.068 A 
ATOM      6  CAY NBR d   1     -14.262   4.523   1.576  0.00  0.00    -0.050 A 
ATOM      7  CAZ NBR d   1     -14.626   3.532   0.648  0.00  0.00    -0.073 A 
ATOM      8  H15 NBR d   1     -13.429   4.354   2.249  0.00  0.00     0.087 H 
ATOM      9  CAU NBR d   1     -15.714   3.720  -0.188  0.00  0.00    -0.040 A 
ATOM     10  H14 NBR d   1     -14.052   2.615   0.586  0.00  0.00     0.084 H 
ATOM     11  CAV NBR d   1     -16.430   4.895  -0.131  0.00  0.00    -0.073 A 
ATOM     12  CAW NBR d   1     -16.050   5.901   0.768  0.00  0.00    -0.050 A 
ATOM     13  H16 NBR d   1     -17.286   5.042  -0.780  0.00  0.00     0.084 H 
ATOM     14  H17 NBR d   1     -16.602   6.834   0.794  0.00  0.00     0.087 H 
BRANCH   9  15
ATOM     15  CAA NBR d   1     -16.169   2.712  -1.078  0.00  0.00     0.018 C 
ATOM     16  H12 NBR d   1     -16.853   2.066  -0.509  0.00  0.00     0.071 H 
ATOM     17  H13 NBR d   1     -16.726   3.219  -1.880  0.00  0.00     0.071 H 
BRANCH  15  18
ATOM     18  NAJ NBR d   1     -15.197   1.842  -1.719  0.00  0.00    -0.382 N 
ATOM     19  CAO NBR d   1     -14.189   2.426  -2.504  0.00  0.00     0.012 A 
ATOM     20  CAN NBR d   1     -13.278   1.599  -3.160  0.00  0.00    -0.060 A 
ATOM     21  H8  NBR d   1     -14.690   3.029  -3.275  0.00  0.00     0.070 H 
ATOM     22  H9  NBR d   1     -13.607   3.086  -1.843  0.00  0.00     0.070 H 
ATOM     23  CAM NBR d   1     -13.382   0.202  -3.068  0.00  0.00     0.028 A 
ATOM     24  H7  NBR d   1     -12.477   2.042  -3.750  0.00  0.00     0.082 H 
ATOM     25  CAL NBR d   1     -14.416  -0.379  -2.324  0.00  0.00    -0.043 A 
ATOM     26  CAK NBR d   1     -15.326   0.438  -1.652  0.00  0.00    -0.022 A 
ATOM     27  H10 NBR d   1     -14.510  -1.463  -2.270  0.00  0.00     0.089 H 
ATOM     28  H11 NBR d   1     -16.136  -0.008  -1.076  0.00  0.00     0.111 H 
BRANCH  23  29
ATOM     29  NAP NBR d   1     -12.515  -0.566  -3.751  0.00  0.00    -0.390 N 
BRANCH  29  30
ATOM     30  CAQ NBR d   1     -11.073  -0.540  -3.425  0.00  0.00    -0.019 C 
ATOM     31  H1  NBR d   1     -10.534  -1.231  -4.090  0.00  0.00     0.056 H 
ATOM     32  H2  NBR d   1     -10.928  -0.849  -2.379  0.00  0.00     0.056 H 
ATOM     33  H3  NBR d   1     -10.684   0.479  -3.564  0.00  0.00     0.056 H 
ENDBRANCH  29  30
BRANCH  29  34
ATOM     34  CAT NBR d   1     -13.055  -1.303  -4.915  0.00  0.00    -0.019 C 
ATOM     35  H4  NBR d   1     -14.147  -1.177  -4.954  0.00  0.00     0.056 H 
ATOM     36  H5  NBR d   1     -12.812  -2.371  -4.817  0.00  0.00     0.056 H 
ATOM     37  H6  NBR d   1     -12.607  -0.908  -5.839  0.00  0.00     0.056 H 
ENDBRANCH  29  34
ENDBRANCH  23  29
ENDBRANCH  15  18
ENDBRANCH   9  15
ENDBRANCH   4   5
ENDBRANCH   1   4
BRANCH   1  38
ATOM     38  CBC NBR d   1     -15.027   8.517   3.989  0.00  0.00     0.046 C 
ATOM     39  H20 NBR d   1     -15.506   9.505   4.052  0.00  0.00     0.078 H 
ATOM     40  H21 NBR d   1     -13.946   8.622   4.161  0.00  0.00     0.078 H 
BRANCH  38  41
ATOM     41  OBD NBR d   1     -15.613   7.606   4.994  0.00  0.00    -0.349 OA
BRANCH  41  42
ATOM     42  CBE NBR d   1     -15.678   8.207   6.280  0.00  0.00     0.068 A 
ATOM     43  CBJ NBR d   1     -15.306   9.502   6.527  0.00  0.00    -0.050 A 
ATOM     44  CBI NBR d   1     -15.465   9.980   7.821  0.00  0.00    -0.073 A 
ATOM     45  H22 NBR d   1     -14.902  10.130   5.741  0.00  0.00     0.087 H 
ATOM     46  CBH NBR d   1     -16.025   9.188   8.832  0.00  0.00    -0.040 A 
ATOM     47  H23 NBR d   1     -15.148  10.990   8.055  0.00  0.00     0.084 H 
ATOM     48  CBG NBR d   1     -16.403   7.892   8.573  0.00  0.00    -0.073 A 
ATOM     49  CBF NBR d   1     -16.237   7.400   7.238  0.00  0.00    -0.050 A 
ATOM     50  H25 NBR d   1     -16.814   7.262   9.354  0.00  0.00     0.084 H 
ATOM     51  H24 NBR d   1     -16.552   6.394   6.986  0.00  0.00     0.087 H 
BRANCH  46  52
ATOM     52  CAB NBR d   1     -16.173   9.804  10.183  0.00  0.00     0.022 C 
ATOM     53  H26 NBR d   1     -15.268  10.371  10.448  0.00  0.00     0.072 H 
ATOM     54  H27 NBR d   1     -16.354   9.028  10.941  0.00  0.00     0.072 H 
BRANCH  52  55
ATOM     55  NAC NBR d   1     -17.332  10.705  10.084  0.00  0.00    -0.362 N 
ATOM     56  CAD NBR d   1     -18.638  10.237   9.866  0.00  0.00    -0.018 A 
ATOM     57  CAE NBR d   1     -19.712  11.049   9.690  0.00  0.00    -0.042 A 
ATOM     58  H28 NBR d   1     -18.799   9.160   9.836  0.00  0.00     0.111 H 
ATOM     59  CAF NBR d   1     -19.609  12.458   9.658  0.00  0.00     0.032 A 
ATOM     60  H29 NBR d   1     -20.694  10.595   9.568  0.00  0.00     0.089 H 
ATOM     61  NAI NBR d   1     -20.625  13.291   9.435  0.00  0.00    -0.389 N 
ATOM     62  CAG NBR d   1     -18.311  12.919   9.952  0.00  0.00    -0.042 A 
ATOM     63  CAH NBR d   1     -17.273  12.106  10.129  0.00  0.00    -0.018 A 
ATOM     64  H36 NBR d   1     -18.149  13.992  10.039  0.00  0.00     0.089 H 
ATOM     65  H37 NBR d   1     -16.304  12.563  10.324  0.00  0.00     0.111 H 
BRANCH  61  66
ATOM     66  CAS NBR d   1     -20.499  14.705   9.399  0.00  0.00    -0.019 C 
ATOM     67  H30 NBR d   1     -21.482  15.156   9.198  0.00  0.00     0.056 H 
ATOM     68  H31 NBR d   1     -19.795  14.990   8.603  0.00  0.00     0.056 H 
ATOM     69  H32 NBR d   1     -20.122  15.064  10.368  0.00  0.00     0.056 H 
ENDBRANCH  61  66
BRANCH  61  70
ATOM     70  CAR NBR d   1     -21.977  12.756   9.065  0.00  0.00    -0.019 C 
ATOM     71  H33 NBR d   1     -21.966  11.658   9.125  0.00  0.00     0.056 H 
ATOM     72  H34 NBR d   1     -22.225  13.065   8.039  0.00  0.00     0.056 H 
ATOM     73  H35 NBR d   1     -22.731  13.153   9.760  0.00  0.00     0.056 H 
ENDBRANCH  61  70
ENDBRANCH  52  55
ENDBRANCH  46  52
ENDBRANCH  41  42
ENDBRANCH  38  41
ENDBRANCH   1  38
TORSDOF 14
