REMARK  8 active torsions:
REMARK  status: ('A' for Active; 'I' for Inactive)
REMARK    1  A    between atoms: C23_6  and  N22_7 
REMARK    2  A    between atoms: N22_7  and  C21_8 
REMARK    3  A    between atoms: C12_10  and  N13_11 
REMARK    4  A    between atoms: N16_14  and  C17_15 
REMARK    5  A    between atoms: C9_20  and  C7_21 
REMARK       I    between atoms: C7_21  and  N6_23 
REMARK    6  A    between atoms: N6_23  and  C5_24 
REMARK    7  A    between atoms: C31_32  and  C32_33 
REMARK    8  A    between atoms: C32_33  and  C33_34 
ROOT
ATOM      1  C21 YMX d   1       3.101  20.561   6.280  0.00  0.00     0.045 A 
ATOM      2  C20 YMX d   1       2.596  21.800   5.972  0.00  0.00    -0.036 A 
ATOM      3  C12 YMX d   1       1.389  22.182   6.451  0.00  0.00     0.012 A 
ATOM      4  C11 YMX d   1       0.672  21.293   7.200  0.00  0.00    -0.061 A 
ATOM      5  C10 YMX d   1       1.185  20.076   7.474  0.00  0.00    -0.064 A 
ATOM      6  C9  YMX d   1       2.406  19.636   7.063  0.00  0.00     0.058 A 
ATOM      7  H11 YMX d   1       3.166  22.474   5.343  0.00  0.00     0.089 H 
ATOM      8  H24 YMX d   1      -0.308  21.565   7.574  0.00  0.00     0.086 H 
ATOM      9  H25 YMX d   1       0.580  19.398   8.065  0.00  0.00     0.085 H 
ENDROOT
BRANCH   6  10
ATOM     10  C7  YMX d   1       2.856  18.340   7.405  0.00  0.00     0.259 C 
ATOM     11  O8  YMX d   1       3.518  17.698   6.639  0.00  0.00    -0.267 OA
ATOM     12  N6  YMX d   1       2.403  17.864   8.561  0.00  0.00    -0.307 N 
ATOM     13  H26 YMX d   1       1.717  18.409   9.043  0.00  0.00     0.170 HD
BRANCH  12  14
ATOM     14  C5  YMX d   1       2.787  16.720   9.133  0.00  0.00     0.137 A 
ATOM     15  C29 YMX d   1       3.935  16.020   9.214  0.00  0.00     0.040 A 
ATOM     16  C30 YMX d   1       5.127  16.165   8.672  0.00  0.00    -0.061 A 
ATOM     17  C2  YMX d   1       3.716  14.980   9.998  0.00  0.00     0.091 A 
ATOM     18  C31 YMX d   1       6.157  15.282   8.897  0.00  0.00    -0.053 A 
ATOM     19  H27 YMX d   1       5.303  17.015   8.022  0.00  0.00     0.086 H 
ATOM     20  C41 YMX d   1       5.912  14.203   9.715  0.00  0.00    -0.074 A 
ATOM     21  C1  YMX d   1       4.653  14.077  10.244  0.00  0.00    -0.052 A 
ATOM     22  H30 YMX d   1       6.687  13.478   9.934  0.00  0.00     0.084 H 
ATOM     23  H29 YMX d   1       4.421  13.225  10.873  0.00  0.00     0.087 H 
ATOM     24  N3  YMX d   1       2.500  15.065  10.380  0.00  0.00    -0.172 NA
ATOM     25  N4  YMX d   1       1.941  16.126   9.886  0.00  0.00    -0.261 N 
ATOM     26  H28 YMX d   1       0.977  16.438  10.069  0.00  0.00     0.191 HD
BRANCH  18  27
ATOM     27  C32 YMX d   1       7.413  15.474   8.356  0.00  0.00    -0.017 C 
ATOM     28  H31 YMX d   1       7.321  15.598   7.267  0.00  0.00     0.047 H 
ATOM     29  H32 YMX d   1       8.038  14.595   8.574  0.00  0.00     0.047 H 
BRANCH  27  30
ATOM     30  C33 YMX d   1       8.022  16.618   8.900  0.00  0.00    -0.048 A 
ATOM     31  C34 YMX d   1       8.168  17.768   8.148  0.00  0.00    -0.039 A 
ATOM     32  C35 YMX d   1       8.769  18.890   8.700  0.00  0.00     0.119 A 
ATOM     33  H33 YMX d   1       7.812  17.794   7.124  0.00  0.00     0.089 H 
ATOM     34  F36 YMX d   1       8.861  19.755   8.105  0.00  0.00    -0.206 F 
ATOM     35  C37 YMX d   1       9.229  18.862  10.011  0.00  0.00    -0.009 A 
ATOM     36  C38 YMX d   1       9.108  17.732  10.795  0.00  0.00     0.119 A 
ATOM     37  H34 YMX d   1       9.694  19.748  10.428  0.00  0.00     0.092 H 
ATOM     38  F39 YMX d   1       9.448  17.691  11.766  0.00  0.00    -0.206 F 
ATOM     39  C40 YMX d   1       8.494  16.651  10.214  0.00  0.00    -0.039 A 
ATOM     40  H35 YMX d   1       8.366  15.760  10.818  0.00  0.00     0.089 H 
ENDBRANCH  27  30
ENDBRANCH  18  27
ENDBRANCH  12  14
ENDBRANCH   6  10
BRANCH   1  41
ATOM     41  N22 YMX d   1       4.267  20.214   5.820  0.00  0.00    -0.384 N 
ATOM     42  H10 YMX d   1       4.560  19.233   5.928  0.00  0.00     0.160 HD
BRANCH  41  43
ATOM     43  C23 YMX d   1       5.158  21.113   5.177  0.00  0.00     0.013 C 
ATOM     44  C24 YMX d   1       6.346  21.177   5.983  0.00  0.00    -0.026 C 
ATOM     45  C25 YMX d   1       7.318  22.038   5.298  0.00  0.00     0.021 C 
ATOM     46  H1  YMX d   1       6.104  21.599   6.970  0.00  0.00     0.039 H 
ATOM     47  H2  YMX d   1       6.766  20.168   6.109  0.00  0.00     0.039 H 
ATOM     48  O26 YMX d   1       7.825  21.371   4.286  0.00  0.00    -0.391 OA
ATOM     49  H3  YMX d   1       8.120  22.320   5.996  0.00  0.00     0.074 H 
ATOM     50  H4  YMX d   1       6.816  22.945   4.930  0.00  0.00     0.074 H 
ATOM     51  C27 YMX d   1       6.779  21.268   3.380  0.00  0.00     0.021 C 
ATOM     52  C28 YMX d   1       5.582  20.506   3.940  0.00  0.00    -0.026 C 
ATOM     53  H5  YMX d   1       7.141  20.743   2.484  0.00  0.00     0.074 H 
ATOM     54  H6  YMX d   1       6.452  22.282   3.104  0.00  0.00     0.074 H 
ATOM     55  H7  YMX d   1       5.868  19.460   4.125  0.00  0.00     0.039 H 
ATOM     56  H8  YMX d   1       4.756  20.538   3.215  0.00  0.00     0.039 H 
ATOM     57  H9  YMX d   1       4.701  22.102   5.022  0.00  0.00     0.072 H 
ENDBRANCH  41  43
ENDBRANCH   1  41
BRANCH   3  58
ATOM     58  N13 YMX d   1       0.851  23.333   6.170  0.00  0.00    -0.280 NA
ATOM     59  C14 YMX d   1       1.594  24.101   5.214  0.00  0.00     0.006 C 
ATOM     60  C15 YMX d   1       0.876  25.360   4.849  0.00  0.00     0.094 C 
ATOM     61  H12 YMX d   1       1.741  23.497   4.306  0.00  0.00     0.058 H 
ATOM     62  H13 YMX d   1       2.572  24.359   5.645  0.00  0.00     0.058 H 
ATOM     63  N16 YMX d   1       0.642  26.137   6.019  0.00  0.00    -0.073 N 
ATOM     64  H14 YMX d   1      -0.086  25.109   4.379  0.00  0.00     0.077 H 
ATOM     65  H15 YMX d   1       1.489  25.939   4.143  0.00  0.00     0.077 H 
ATOM     66  C18 YMX d   1      -0.146  25.295   6.837  0.00  0.00     0.094 C 
ATOM     67  H16 YMX d   1       1.512  26.401   6.455  0.00  0.00     0.279 HD
ATOM     68  C19 YMX d   1       0.702  24.186   7.292  0.00  0.00     0.006 C 
ATOM     69  H20 YMX d   1      -0.997  24.903   6.260  0.00  0.00     0.077 H 
ATOM     70  H21 YMX d   1      -0.520  25.860   7.704  0.00  0.00     0.077 H 
ATOM     71  H22 YMX d   1       1.682  24.562   7.621  0.00  0.00     0.058 H 
ATOM     72  H23 YMX d   1       0.219  23.648   8.121  0.00  0.00     0.058 H 
BRANCH  63  73
ATOM     73  C17 YMX d   1      -0.170  27.274   5.790  0.00  0.00     0.066 C 
ATOM     74  H17 YMX d   1      -0.307  27.823   6.734  0.00  0.00     0.068 H 
ATOM     75  H18 YMX d   1      -1.150  26.954   5.407  0.00  0.00     0.068 H 
ATOM     76  H19 YMX d   1       0.316  27.929   5.052  0.00  0.00     0.068 H 
ENDBRANCH  63  73
ENDBRANCH   3  58
TORSDOF 8
