REMARK  13 active torsions:
REMARK  status: ('A' for Active; 'I' for Inactive)
REMARK    1  A    between atoms: CAA_1  and  NAB_2 
REMARK    2  A    between atoms: CBJ_36  and  CAA_1 
REMARK    3  A    between atoms: CAE_5  and  NAH_8 
REMARK    4  A    between atoms: NAH_8  and  CAR_18 
REMARK    5  A    between atoms: NAH_8  and  CAS_19 
REMARK    6  A    between atoms: CAV_22  and  NAI_9 
REMARK    7  A    between atoms: CAL_12  and  NAO_15 
REMARK    8  A    between atoms: CAW_23  and  CAV_22 
REMARK    9  A    between atoms: CBC_29  and  CAZ_26 
REMARK   10  A    between atoms: CBD_30  and  CBC_29 
REMARK   11  A    between atoms: CBE_31  and  CBD_30 
REMARK   12  A    between atoms: CBF_32  and  CBE_31 
REMARK   13  A    between atoms: CBG_33  and  CBF_32 
ROOT
ATOM      1  CBD PQ7 d   1      11.156 -25.047   1.067  0.00  0.00    -0.061 C 
ATOM      2  H35 PQ7 d   1      11.691 -25.762   1.710  0.00  0.00     0.033 H 
ATOM      3  H36 PQ7 d   1      10.117 -25.382   0.932  0.00  0.00     0.033 H 
ENDROOT
BRANCH   1   4
ATOM      4  CBC PQ7 d   1      11.847 -25.051  -0.333  0.00  0.00    -0.041 C 
ATOM      5  H33 PQ7 d   1      11.754 -26.030  -0.826  0.00  0.00     0.040 H 
ATOM      6  H34 PQ7 d   1      11.434 -24.270  -0.989  0.00  0.00     0.040 H 
BRANCH   4   7
ATOM      7  CAZ PQ7 d   1      13.127 -24.787   0.006  0.00  0.00    -0.058 A 
ATOM      8  CAY PQ7 d   1      13.650 -23.511  -0.087  0.00  0.00    -0.076 A 
ATOM      9  CAX PQ7 d   1      14.940 -23.327   0.337  0.00  0.00    -0.075 A 
ATOM     10  H30 PQ7 d   1      13.063 -22.689  -0.480  0.00  0.00     0.084 H 
ATOM     11  CAW PQ7 d   1      15.674 -24.404   0.808  0.00  0.00    -0.040 A 
ATOM     12  H29 PQ7 d   1      15.386 -22.340   0.304  0.00  0.00     0.084 H 
ATOM     13  CBB PQ7 d   1      15.134 -25.681   0.925  0.00  0.00    -0.075 A 
ATOM     14  CBA PQ7 d   1      13.834 -25.866   0.520  0.00  0.00    -0.076 A 
ATOM     15  H32 PQ7 d   1      15.719 -26.502   1.322  0.00  0.00     0.084 H 
ATOM     16  H31 PQ7 d   1      13.367 -26.841   0.601  0.00  0.00     0.084 H 
BRANCH  11  17
ATOM     17  CAV PQ7 d   1      16.911 -24.119   1.294  0.00  0.00     0.018 C 
ATOM     18  H27 PQ7 d   1      17.558 -25.005   1.377  0.00  0.00     0.071 H 
ATOM     19  H28 PQ7 d   1      17.431 -23.337   0.721  0.00  0.00     0.071 H 
BRANCH  17  20
ATOM     20  NAI PQ7 d   1      16.396 -23.634   2.626  0.00  0.00    -0.382 N 
ATOM     21  CAJ PQ7 d   1      16.253 -22.261   2.939  0.00  0.00    -0.022 A 
ATOM     22  CAK PQ7 d   1      15.726 -21.883   4.171  0.00  0.00    -0.043 A 
ATOM     23  H8  PQ7 d   1      16.554 -21.502   2.218  0.00  0.00     0.111 H 
ATOM     24  CAL PQ7 d   1      15.315 -22.851   5.085  0.00  0.00     0.029 A 
ATOM     25  H9  PQ7 d   1      15.635 -20.827   4.421  0.00  0.00     0.089 H 
ATOM     26  CAM PQ7 d   1      15.429 -24.198   4.795  0.00  0.00    -0.060 A 
ATOM     27  CAN PQ7 d   1      15.955 -24.578   3.578  0.00  0.00     0.012 A 
ATOM     28  H10 PQ7 d   1      15.108 -24.948   5.517  0.00  0.00     0.082 H 
ATOM     29  H11 PQ7 d   1      16.822 -25.216   3.803  0.00  0.00     0.070 H 
ATOM     30  H12 PQ7 d   1      15.178 -25.177   3.080  0.00  0.00     0.070 H 
BRANCH  24  31
ATOM     31  NAO PQ7 d   1      14.825 -22.523   6.267  0.00  0.00    -0.381 N 
ATOM     32  CAP PQ7 d   1      14.550 -21.298   6.947  0.00  0.00    -0.005 C 
ATOM     33  CAQ PQ7 d   1      14.580 -21.616   8.490  0.00  0.00    -0.049 C 
ATOM     34  H13 PQ7 d   1      13.559 -20.919   6.658  0.00  0.00     0.064 H 
ATOM     35  H14 PQ7 d   1      15.316 -20.548   6.700  0.00  0.00     0.064 H 
ATOM     36  CAU PQ7 d   1      13.489 -22.607   8.268  0.00  0.00    -0.049 C 
ATOM     37  H15 PQ7 d   1      14.301 -20.769   9.134  0.00  0.00     0.035 H 
ATOM     38  H16 PQ7 d   1      15.525 -22.052   8.846  0.00  0.00     0.035 H 
ATOM     39  CAT PQ7 d   1      14.441 -23.400   7.322  0.00  0.00    -0.005 C 
ATOM     40  H25 PQ7 d   1      12.597 -22.196   7.772  0.00  0.00     0.035 H 
ATOM     41  H26 PQ7 d   1      13.186 -23.157   9.171  0.00  0.00     0.035 H 
ATOM     42  H23 PQ7 d   1      15.331 -23.732   7.877  0.00  0.00     0.064 H 
ATOM     43  H24 PQ7 d   1      13.918 -24.276   6.911  0.00  0.00     0.064 H 
ENDBRANCH  24  31
ENDBRANCH  17  20
ENDBRANCH  11  17
ENDBRANCH   4   7
ENDBRANCH   1   4
BRANCH   1  44
ATOM     44  CBE PQ7 d   1      11.124 -23.693   1.792  0.00  0.00    -0.061 C 
ATOM     45  H37 PQ7 d   1      10.532 -22.982   1.196  0.00  0.00     0.033 H 
ATOM     46  H38 PQ7 d   1      12.153 -23.318   1.895  0.00  0.00     0.033 H 
BRANCH  44  47
ATOM     47  CBF PQ7 d   1      10.498 -23.817   3.185  0.00  0.00    -0.041 C 
ATOM     48  H39 PQ7 d   1      11.154 -24.401   3.847  0.00  0.00     0.040 H 
ATOM     49  H40 PQ7 d   1       9.515 -24.306   3.119  0.00  0.00     0.040 H 
BRANCH  47  50
ATOM     50  CBG PQ7 d   1      10.360 -22.523   3.665  0.00  0.00    -0.058 A 
ATOM     51  CBH PQ7 d   1      11.273 -21.817   4.453  0.00  0.00    -0.076 A 
ATOM     52  CBI PQ7 d   1      10.957 -20.503   4.832  0.00  0.00    -0.075 A 
ATOM     53  H41 PQ7 d   1      12.205 -22.274   4.765  0.00  0.00     0.084 H 
ATOM     54  CBJ PQ7 d   1       9.749 -19.919   4.429  0.00  0.00    -0.040 A 
ATOM     55  H42 PQ7 d   1      11.652 -19.936   5.441  0.00  0.00     0.084 H 
ATOM     56  CBK PQ7 d   1       8.869 -20.635   3.638  0.00  0.00    -0.075 A 
ATOM     57  CBL PQ7 d   1       9.178 -21.927   3.264  0.00  0.00    -0.076 A 
ATOM     58  H43 PQ7 d   1       7.939 -20.183   3.313  0.00  0.00     0.084 H 
ATOM     59  H44 PQ7 d   1       8.483 -22.484   2.646  0.00  0.00     0.084 H 
BRANCH  54  60
ATOM     60  CAA PQ7 d   1       9.371 -18.611   4.742  0.00  0.00     0.018 C 
ATOM     61  H1  PQ7 d   1      10.095 -17.934   4.266  0.00  0.00     0.071 H 
ATOM     62  H2  PQ7 d   1       8.373 -18.442   4.311  0.00  0.00     0.071 H 
BRANCH  60  63
ATOM     63  NAB PQ7 d   1       9.303 -18.255   6.177  0.00  0.00    -0.382 N 
ATOM     64  CAC PQ7 d   1       8.642 -19.050   7.130  0.00  0.00    -0.022 A 
ATOM     65  CAD PQ7 d   1       8.607 -18.656   8.467  0.00  0.00    -0.043 A 
ATOM     66  H3  PQ7 d   1       8.156 -19.975   6.823  0.00  0.00     0.111 H 
ATOM     67  CAE PQ7 d   1       9.201 -17.460   8.868  0.00  0.00     0.028 A 
ATOM     68  H4  PQ7 d   1       8.112 -19.287   9.204  0.00  0.00     0.089 H 
ATOM     69  CAF PQ7 d   1       9.853 -16.672   7.921  0.00  0.00    -0.060 A 
ATOM     70  CAG PQ7 d   1       9.903 -17.059   6.587  0.00  0.00     0.012 A 
ATOM     71  H5  PQ7 d   1      10.329 -15.742   8.230  0.00  0.00     0.082 H 
ATOM     72  H6  PQ7 d   1       9.431 -16.253   6.006  0.00  0.00     0.070 H 
ATOM     73  H7  PQ7 d   1      10.967 -17.131   6.318  0.00  0.00     0.070 H 
BRANCH  67  74
ATOM     74  NAH PQ7 d   1       9.184 -17.068  10.147  0.00  0.00    -0.390 N 
BRANCH  74  75
ATOM     75  CAR PQ7 d   1       8.578 -17.936  11.174  0.00  0.00    -0.019 C 
ATOM     76  H17 PQ7 d   1       8.657 -17.450  12.158  0.00  0.00     0.056 H 
ATOM     77  H18 PQ7 d   1       9.107 -18.900  11.198  0.00  0.00     0.056 H 
ATOM     78  H19 PQ7 d   1       7.518 -18.105  10.933  0.00  0.00     0.056 H 
ENDBRANCH  74  75
BRANCH  74  79
ATOM     79  CAS PQ7 d   1       9.830 -15.798  10.497  0.00  0.00    -0.019 C 
ATOM     80  H20 PQ7 d   1      10.211 -15.316   9.584  0.00  0.00     0.056 H 
ATOM     81  H21 PQ7 d   1      10.665 -15.989  11.186  0.00  0.00     0.056 H 
ATOM     82  H22 PQ7 d   1       9.098 -15.136  10.983  0.00  0.00     0.056 H 
ENDBRANCH  74  79
ENDBRANCH  67  74
ENDBRANCH  60  63
ENDBRANCH  54  60
ENDBRANCH  47  50
ENDBRANCH  44  47
ENDBRANCH   1  44
TORSDOF 13
