REMARK  5 active torsions:
REMARK  status: ('A' for Active; 'I' for Inactive)
REMARK    1  A    between atoms: CAO_19  and  NAY_3 
REMARK    2  A    between atoms: NAX_5  and  NAP_7 
REMARK    3  A    between atoms: NAP_7  and  CAJ_20 
REMARK    4  A    between atoms: NAW_8  and  CAA_25 
REMARK    5  A    between atoms: CAJ_20  and  CAO_19 
ROOT
ATOM      1  CAJ FD6 d   1      14.802 -19.439 -18.218  0.00  0.00     0.124 C 
ATOM      2  H14 FD6 d   1      15.206 -19.888 -19.137  0.00  0.00     0.081 H 
ATOM      3  H15 FD6 d   1      14.655 -18.360 -18.371  0.00  0.00     0.081 H 
ENDROOT
BRANCH   1   4
ATOM      4  NAP FD6 d   1      15.780 -19.617 -17.160  0.00  0.00     0.081 N 
ATOM      5  H4  FD6 d   1      15.786 -20.590 -16.897  0.00  0.00     0.313 HD
ATOM      6  H5  FD6 d   1      16.685 -19.361 -17.522  0.00  0.00     0.313 HD
BRANCH   4   7
ATOM      7  NAX FD6 d   1      15.529 -18.825 -15.964  0.00  0.00     0.085 N 
ATOM      8  CAN FD6 d   1      14.797 -19.622 -14.975  0.00  0.00     0.133 C 
ATOM      9  CAL FD6 d   1      14.542 -18.811 -13.746  0.00  0.00     0.107 C 
ATOM     10  H16 FD6 d   1      15.393 -20.508 -14.709  0.00  0.00     0.082 H 
ATOM     11  H17 FD6 d   1      13.836 -19.942 -15.405  0.00  0.00     0.082 H 
ATOM     12  NAW FD6 d   1      13.782 -17.613 -14.066  0.00  0.00    -0.072 N 
ATOM     13  H18 FD6 d   1      13.973 -19.417 -13.026  0.00  0.00     0.078 H 
ATOM     14  H19 FD6 d   1      15.505 -18.519 -13.300  0.00  0.00     0.078 H 
ATOM     15  CAK FD6 d   1      14.534 -16.809 -15.022  0.00  0.00     0.107 C 
ATOM     16  H6  FD6 d   1      12.905 -17.882 -14.483  0.00  0.00     0.279 HD
ATOM     17  CAM FD6 d   1      14.807 -17.595 -16.287  0.00  0.00     0.133 C 
ATOM     18  H20 FD6 d   1      15.491 -16.511 -14.569  0.00  0.00     0.078 H 
ATOM     19  H21 FD6 d   1      13.952 -15.910 -15.274  0.00  0.00     0.078 H 
ATOM     20  H22 FD6 d   1      13.853 -17.849 -16.771  0.00  0.00     0.082 H 
ATOM     21  H23 FD6 d   1      15.415 -16.985 -16.971  0.00  0.00     0.082 H 
ATOM     22  H2  FD6 d   1      16.418 -18.568 -15.565  0.00  0.00     0.315 HD
BRANCH  12  23
ATOM     23  CAA FD6 d   1      13.510 -16.848 -12.855  0.00  0.00     0.066 C 
ATOM     24  H24 FD6 d   1      12.943 -17.471 -12.148  0.00  0.00     0.068 H 
ATOM     25  H25 FD6 d   1      12.921 -15.954 -13.110  0.00  0.00     0.068 H 
ATOM     26  H26 FD6 d   1      14.460 -16.542 -12.394  0.00  0.00     0.068 H 
ENDBRANCH  12  23
ENDBRANCH   4   7
ENDBRANCH   1   4
BRANCH   1  27
ATOM     27  CAO FD6 d   1      13.428 -20.076 -17.936  0.00  0.00     0.025 C 
ATOM     28  H12 FD6 d   1      13.313 -20.179 -16.847  0.00  0.00     0.067 H 
ATOM     29  H13 FD6 d   1      12.650 -19.402 -18.325  0.00  0.00     0.067 H 
BRANCH  27  30
ATOM     30  NAY FD6 d   1      13.234 -21.412 -18.551  0.00  0.00    -0.343 N 
ATOM     31  CAV FD6 d   1      13.553 -22.555 -17.781  0.00  0.00     0.053 A 
ATOM     32  CAT FD6 d   1      12.863 -23.761 -17.958  0.00  0.00     0.032 A 
ATOM     33  CAI FD6 d   1      14.584 -22.513 -16.841  0.00  0.00    -0.035 A 
ATOM     34  SAQ FD6 d   1      11.535 -23.912 -19.087  0.00  0.00    -0.086 SA
ATOM     35  CAH FD6 d   1      13.178 -24.874 -17.180  0.00  0.00    -0.063 A 
ATOM     36  CAS FD6 d   1      11.789 -22.554 -20.162  0.00  0.00     0.032 A 
ATOM     37  CAF FD6 d   1      11.128 -22.566 -21.387  0.00  0.00    -0.064 A 
ATOM     38  CAU FD6 d   1      12.575 -21.456 -19.795  0.00  0.00     0.052 A 
ATOM     39  CAC FD6 d   1      11.282 -21.513 -22.264  0.00  0.00    -0.082 A 
ATOM     40  H8  FD6 d   1      10.492 -23.403 -21.652  0.00  0.00     0.085 H 
ATOM     41  CAD FD6 d   1      12.065 -20.441 -21.924  0.00  0.00    -0.081 A 
ATOM     42  H9  FD6 d   1      10.782 -21.533 -23.226  0.00  0.00     0.083 H 
ATOM     43  CAG FD6 d   1      12.704 -20.400 -20.697  0.00  0.00    -0.056 A 
ATOM     44  H10 FD6 d   1      12.185 -19.619 -22.621  0.00  0.00     0.083 H 
ATOM     45  H11 FD6 d   1      13.310 -19.540 -20.435  0.00  0.00     0.087 H 
ATOM     46  CAE FD6 d   1      14.203 -24.814 -16.261  0.00  0.00    -0.060 A 
ATOM     47  H3  FD6 d   1      12.614 -25.792 -17.299  0.00  0.00     0.085 H 
ATOM     48  CAR FD6 d   1      14.894 -23.638 -16.106  0.00  0.00     0.036 A 
ATOM     49  H1  FD6 d   1      14.460 -25.684 -15.668  0.00  0.00     0.086 H 
ATOM     50 CLAB FD6 d   1      16.187 -23.560 -14.943  0.00  0.00    -0.084 Cl
ATOM     51  H7  FD6 d   1      15.141 -21.596 -16.689  0.00  0.00     0.089 H 
ENDBRANCH  27  30
ENDBRANCH   1  27
TORSDOF 5
