REMARK  9 active torsions:
REMARK  status: ('A' for Active; 'I' for Inactive)
REMARK    1  A    between atoms: C12_2  and  O1_3 
REMARK    2  A    between atoms: C12_2  and  C10_6 
REMARK    3  A    between atoms: O1_3  and  C13_4 
REMARK    4  A    between atoms: C13_4  and  C14_5 
REMARK    5  A    between atoms: C6_12  and  S_13 
REMARK    6  A    between atoms: S_13  and  C7_14 
REMARK    7  A    between atoms: C7_14  and  C8_15 
REMARK    8  A    between atoms: C1_20  and  O_21 
REMARK    9  A    between atoms: O_21  and  C_22 
ROOT
ATOM      1  C8  U53 d   1      23.232  42.875  61.860  0.00  0.00     0.023 C 
ATOM      2  C9  U53 d   1      21.858  42.519  61.622  0.00  0.00     0.059 C 
ATOM      3  N   U53 d   1      20.752  42.306  61.361  0.00  0.00    -0.197 NA
ATOM      4  H11 U53 d   1      23.271  43.753  62.521  0.00  0.00     0.056 H 
ATOM      5  H12 U53 d   1      23.748  42.031  62.341  0.00  0.00     0.056 H 
ENDROOT
BRANCH   1   6
ATOM      6  C7  U53 d   1      23.923  43.204  60.545  0.00  0.00    -0.007 C 
ATOM      7  H9  U53 d   1      24.991  43.407  60.714  0.00  0.00     0.050 H 
ATOM      8  H10 U53 d   1      23.816  42.369  59.837  0.00  0.00     0.050 H 
BRANCH   6   9
ATOM      9  S   U53 d   1      23.108  44.654  59.920  0.00  0.00    -0.127 SA
BRANCH   9  10
ATOM     10  C6  U53 d   1      22.892  45.826  61.147  0.00  0.00     0.030 A 
ATOM     11  C10 U53 d   1      21.596  46.324  61.558  0.00  0.00     0.074 A 
ATOM     12  C11 U53 d   1      21.492  47.251  62.574  0.00  0.00     0.020 A 
ATOM     13  N1  U53 d   1      22.530  47.650  63.310  0.00  0.00    -0.259 NA
ATOM     14  H6  U53 d   1      20.518  47.677  62.785  0.00  0.00     0.116 H 
ATOM     15  C4  U53 d   1      23.786  47.265  63.025  0.00  0.00     0.068 A 
ATOM     16  C3  U53 d   1      24.857  47.733  63.783  0.00  0.00    -0.052 A 
ATOM     17  C5  U53 d   1      24.020  46.325  61.928  0.00  0.00     0.013 A 
ATOM     18  C2  U53 d   1      26.093  47.233  63.430  0.00  0.00    -0.049 A 
ATOM     19  H7  U53 d   1      24.728  48.441  64.594  0.00  0.00     0.087 H 
ATOM     20  C1  U53 d   1      26.313  46.333  62.371  0.00  0.00     0.069 A 
ATOM     21  H8  U53 d   1      26.952  47.555  64.007  0.00  0.00     0.087 H 
ATOM     22  C15 U53 d   1      25.273  45.871  61.617  0.00  0.00    -0.037 A 
ATOM     23  H13 U53 d   1      25.433  45.172  60.804  0.00  0.00     0.089 H 
BRANCH  11  24
ATOM     24  C12 U53 d   1      20.397  45.984  60.760  0.00  0.00     0.296 C 
ATOM     25  O2  U53 d   1      20.535  46.070  59.555  0.00  0.00    -0.259 OA
BRANCH  24  26
ATOM     26  O1  U53 d   1      19.056  45.818  61.238  0.00  0.00    -0.318 OA
BRANCH  26  27
ATOM     27  C13 U53 d   1      18.003  46.060  60.284  0.00  0.00     0.026 C 
ATOM     28  H1  U53 d   1      17.125  45.453  60.549  0.00  0.00     0.074 H 
ATOM     29  H2  U53 d   1      18.351  45.782  59.278  0.00  0.00     0.074 H 
BRANCH  27  30
ATOM     30  C14 U53 d   1      17.626  47.508  60.295  0.00  0.00    -0.056 C 
ATOM     31  H3  U53 d   1      16.822  47.683  59.565  0.00  0.00     0.030 H 
ATOM     32  H4  U53 d   1      18.503  48.117  60.029  0.00  0.00     0.030 H 
ATOM     33  H5  U53 d   1      17.276  47.788  61.299  0.00  0.00     0.030 H 
ENDBRANCH  27  30
ENDBRANCH  26  27
ENDBRANCH  24  26
ENDBRANCH  11  24
BRANCH  20  34
ATOM     34  O   U53 d   1      27.572  45.849  62.045  0.00  0.00    -0.356 OA
BRANCH  34  35
ATOM     35  C   U53 d   1      27.716  44.933  60.925  0.00  0.00     0.010 C 
ATOM     36  H14 U53 d   1      28.774  44.655  60.813  0.00  0.00     0.066 H 
ATOM     37  H15 U53 d   1      27.366  45.422  60.004  0.00  0.00     0.066 H 
ATOM     38  H16 U53 d   1      27.117  44.029  61.111  0.00  0.00     0.066 H 
ENDBRANCH  34  35
ENDBRANCH  20  34
ENDBRANCH   9  10
ENDBRANCH   6   9
ENDBRANCH   1   6
TORSDOF 9
