REMARK  8 active torsions:
REMARK  status: ('A' for Active; 'I' for Inactive)
REMARK    1  A    between atoms: O_3  and  C_1 
REMARK       I    between atoms: N_2  and  C13_22 
REMARK    2  A    between atoms: C14_23  and  N_2 
REMARK    3  A    between atoms: C1_4  and  O_3 
REMARK       I    between atoms: C15_24  and  N1_5 
REMARK    4  A    between atoms: N3_11  and  C17_26 
REMARK    5  A    between atoms: C4_13  and  C16_25 
REMARK    6  A    between atoms: C7_16  and  C6_15 
REMARK    7  A    between atoms: C13_22  and  C10_19 
REMARK    8  A    between atoms: C14_23  and  C15_24 
ROOT
ATOM      1  N2  LQY d   1      26.138  10.637  -5.193  0.00  0.00    -0.173 NA
ATOM      2  N3  LQY d   1      25.534   9.842  -6.150  0.00  0.00    -0.233 N 
ATOM      3  O3  LQY d   1      25.213   7.776  -7.129  0.00  0.00    -0.271 OA
ATOM      4  C16 LQY d   1      26.619  10.069  -4.143  0.00  0.00     0.070 C 
ATOM      5  C24 LQY d   1      25.768   8.492  -6.315  0.00  0.00     0.245 C 
ATOM      6  C25 LQY d   1      26.771   7.895  -5.345  0.00  0.00     0.037 C 
ATOM      7  C26 LQY d   1      26.793   6.370  -5.204  0.00  0.00    -0.038 C 
ATOM      8  C27 LQY d   1      25.668   5.870  -4.341  0.00  0.00    -0.106 C 
ATOM      9  C28 LQY d   1      25.006   6.642  -3.470  0.00  0.00    -0.106 C 
ATOM     10  C29 LQY d   1      25.220   8.131  -3.358  0.00  0.00    -0.041 C 
ATOM     11  C30 LQY d   1      26.566   8.563  -3.961  0.00  0.00     0.006 C 
ATOM     12  H29 LQY d   1      27.768   8.181  -5.713  0.00  0.00     0.056 H 
ATOM     13  H30 LQY d   1      27.749   6.069  -4.752  0.00  0.00     0.040 H 
ATOM     14  H31 LQY d   1      26.702   5.919  -6.203  0.00  0.00     0.040 H 
ATOM     15  H32 LQY d   1      25.376   4.824  -4.429  0.00  0.00     0.076 H 
ATOM     16  H33 LQY d   1      24.278   6.172  -2.811  0.00  0.00     0.076 H 
ATOM     17  H34 LQY d   1      25.199   8.415  -2.295  0.00  0.00     0.040 H 
ATOM     18  H35 LQY d   1      24.409   8.648  -3.892  0.00  0.00     0.040 H 
ATOM     19  H36 LQY d   1      27.375   8.252  -3.283  0.00  0.00     0.051 H 
ENDROOT
BRANCH   4  20
ATOM     20  C4  LQY d   1      27.150  10.984  -3.100  0.00  0.00    -0.008 A 
ATOM     21  C3  LQY d   1      27.206  10.595  -1.752  0.00  0.00    -0.068 A 
ATOM     22  C2  LQY d   1      27.598  11.499  -0.772  0.00  0.00    -0.049 A 
ATOM     23  H8  LQY d   1      26.941   9.581  -1.474  0.00  0.00     0.085 H 
ATOM     24  C1  LQY d   1      27.964  12.803  -1.133  0.00  0.00     0.079 A 
ATOM     25  H7  LQY d   1      27.621  11.197   0.269  0.00  0.00     0.087 H 
ATOM     26  C6  LQY d   1      27.936  13.204  -2.477  0.00  0.00     0.008 A 
ATOM     27  C5  LQY d   1      27.527  12.282  -3.445  0.00  0.00    -0.058 A 
ATOM     28  H9  LQY d   1      27.502  12.582  -4.486  0.00  0.00     0.086 H 
BRANCH  24  29
ATOM     29  O   LQY d   1      28.400  13.750  -0.245  0.00  0.00    -0.355 OA
BRANCH  29  30
ATOM     30  C   LQY d   1      28.848  13.305   1.039  0.00  0.00     0.010 C 
ATOM     31  H1  LQY d   1      29.165  14.172   1.637  0.00  0.00     0.066 H 
ATOM     32  H2  LQY d   1      29.697  12.617   0.913  0.00  0.00     0.066 H 
ATOM     33  H3  LQY d   1      28.027  12.784   1.554  0.00  0.00     0.066 H 
ENDBRANCH  29  30
ENDBRANCH  24  29
BRANCH  26  34
ATOM     34  C7  LQY d   1      28.407  14.538  -2.947  0.00  0.00    -0.023 A 
ATOM     35  C8  LQY d   1      29.494  14.633  -3.812  0.00  0.00    -0.071 A 
ATOM     36  C9  LQY d   1      29.861  15.839  -4.378  0.00  0.00    -0.067 A 
ATOM     37  H10 LQY d   1      30.065  13.742  -4.046  0.00  0.00     0.084 H 
ATOM     38  C10 LQY d   1      29.151  17.005  -4.095  0.00  0.00     0.032 A 
ATOM     39  H11 LQY d   1      30.711  15.879  -5.050  0.00  0.00     0.085 H 
ATOM     40  C11 LQY d   1      28.083  16.926  -3.197  0.00  0.00    -0.067 A 
ATOM     41  C12 LQY d   1      27.719  15.711  -2.635  0.00  0.00    -0.071 A 
ATOM     42  H12 LQY d   1      27.533  17.823  -2.937  0.00  0.00     0.085 H 
ATOM     43  H13 LQY d   1      26.886  15.672  -1.942  0.00  0.00     0.084 H 
BRANCH  38  44
ATOM     44  C13 LQY d   1      29.445  18.297  -4.800  0.00  0.00     0.252 C 
ATOM     45  N   LQY d   1      30.521  18.341  -5.597  0.00  0.00    -0.348 N 
ATOM     46  H4  LQY d   1      30.897  17.484  -5.950  0.00  0.00     0.163 HD
ATOM     47  O1  LQY d   1      28.676  19.251  -4.689  0.00  0.00    -0.268 OA
BRANCH  45  48
ATOM     48  C14 LQY d   1      31.158  19.589  -5.964  0.00  0.00     0.069 C 
ATOM     49  H14 LQY d   1      30.364  20.294  -6.253  0.00  0.00     0.078 H 
ATOM     50  H15 LQY d   1      31.804  19.389  -6.831  0.00  0.00     0.078 H 
BRANCH  48  51
ATOM     51  C15 LQY d   1      32.010  20.268  -4.905  0.00  0.00     0.233 C 
ATOM     52  N1  LQY d   1      33.122  20.836  -5.338  0.00  0.00    -0.369 N 
ATOM     53  H5  LQY d   1      33.360  20.794  -6.308  0.00  0.00     0.159 HD
ATOM     54  H6  LQY d   1      33.726  21.308  -4.695  0.00  0.00     0.159 HD
ATOM     55  O2  LQY d   1      31.663  20.287  -3.716  0.00  0.00    -0.272 OA
ENDBRANCH  48  51
ENDBRANCH  45  48
ENDBRANCH  38  44
ENDBRANCH  26  34
ENDBRANCH   4  20
BRANCH   2  56
ATOM     56  C17 LQY d   1      24.620  10.694  -6.934  0.00  0.00     0.038 C 
ATOM     57  C18 LQY d   1      23.471  11.263  -5.979  0.00  0.00    -0.044 C 
ATOM     58  C19 LQY d   1      22.549  12.375  -6.468  0.00  0.00    -0.063 C 
ATOM     59  H17 LQY d   1      23.969  11.640  -5.074  0.00  0.00     0.036 H 
ATOM     60  H18 LQY d   1      22.827  10.411  -5.715  0.00  0.00     0.036 H 
ATOM     61  C20 LQY d   1      23.251  13.635  -6.956  0.00  0.00    -0.065 C 
ATOM     62  H19 LQY d   1      21.885  12.656  -5.637  0.00  0.00     0.033 H 
ATOM     63  H20 LQY d   1      21.948  11.977  -7.299  0.00  0.00     0.033 H 
ATOM     64  C21 LQY d   1      23.710  13.622  -8.421  0.00  0.00    -0.065 C 
ATOM     65  H21 LQY d   1      24.139  13.792  -6.326  0.00  0.00     0.033 H 
ATOM     66  H22 LQY d   1      22.557  14.479  -6.828  0.00  0.00     0.033 H 
ATOM     67  C22 LQY d   1      24.711  12.536  -8.894  0.00  0.00    -0.063 C 
ATOM     68  H23 LQY d   1      24.178  14.598  -8.619  0.00  0.00     0.033 H 
ATOM     69  H24 LQY d   1      22.806  13.516  -9.039  0.00  0.00     0.033 H 
ATOM     70  C23 LQY d   1      25.459  11.763  -7.802  0.00  0.00    -0.044 C 
ATOM     71  H25 LQY d   1      25.463  13.030  -9.527  0.00  0.00     0.033 H 
ATOM     72  H26 LQY d   1      24.150  11.805  -9.494  0.00  0.00     0.033 H 
ATOM     73  H27 LQY d   1      26.281  11.218  -8.289  0.00  0.00     0.036 H 
ATOM     74  H28 LQY d   1      25.874  12.502  -7.101  0.00  0.00     0.036 H 
ATOM     75  H16 LQY d   1      24.113  10.047  -7.665  0.00  0.00     0.076 H 
ENDBRANCH   2  56
TORSDOF 8
