REMARK  2 active torsions:
REMARK  status: ('A' for Active; 'I' for Inactive)
REMARK    1  A    between atoms: C1_1  and  O1_19 
REMARK    2  A    between atoms: C17_12  and  C27_18 
ROOT
ATOM      1  C1  EQU d   1       2.962 -14.156 -12.435  0.00  0.00     0.066 A 
ATOM      2  C2  EQU d   1       3.133 -13.026 -13.241  0.00  0.00    -0.040 A 
ATOM      3  C3  EQU d   1       2.450 -11.848 -12.943  0.00  0.00    -0.022 A 
ATOM      4  C4  EQU d   1       1.573 -11.769 -11.824  0.00  0.00    -0.015 A 
ATOM      5  C5  EQU d   1       1.406 -12.899 -11.015  0.00  0.00    -0.069 A 
ATOM      6  C6  EQU d   1       2.082 -14.101 -11.318  0.00  0.00    -0.050 A 
ATOM      7  C10 EQU d   1       2.628 -10.627 -13.782  0.00  0.00    -0.072 A 
ATOM      8  C11 EQU d   1       1.918  -9.404 -13.471  0.00  0.00    -0.074 A 
ATOM      9  C12 EQU d   1       1.049  -9.280 -12.375  0.00  0.00    -0.035 A 
ATOM     10  C13 EQU d   1       0.877 -10.591 -11.522  0.00  0.00    -0.018 A 
ATOM     11  C16 EQU d   1       0.558  -8.474 -12.081  0.00  0.00     0.023 C 
ATOM     12  C17 EQU d   1       0.305  -8.260 -10.827  0.00  0.00     0.048 C 
ATOM     13  C18 EQU d   1      -0.568  -9.345 -10.239  0.00  0.00    -0.086 C 
ATOM     14  C19 EQU d   1      -0.049 -10.447 -10.354  0.00  0.00    -0.074 C 
ATOM     15  C24 EQU d   1       0.958  -7.180 -12.514  0.00  0.00    -0.029 C 
ATOM     16  C25 EQU d   1       0.295  -6.159 -11.675  0.00  0.00    -0.004 C 
ATOM     17  C26 EQU d   1      -0.273  -6.809 -10.753  0.00  0.00     0.140 C 
ATOM     18  O26 EQU d   1      -1.081  -6.401  -9.986  0.00  0.00    -0.297 OA
ATOM     19  H1  EQU d   1       3.796 -13.066 -14.097  0.00  0.00     0.089 H 
ATOM     20  H2  EQU d   1       0.754 -12.851 -10.151  0.00  0.00     0.085 H 
ATOM     21  H3  EQU d   1       1.931 -14.980 -10.701  0.00  0.00     0.087 H 
ATOM     22  H4  EQU d   1       3.297 -10.656 -14.635  0.00  0.00     0.084 H 
ATOM     23  H5  EQU d   1       2.064  -8.544 -14.114  0.00  0.00     0.084 H 
ATOM     24  H6  EQU d   1      -1.536  -9.168  -9.772  0.00  0.00     0.078 H 
ATOM     25  H7  EQU d   1      -0.246 -11.262  -9.659  0.00  0.00     0.084 H 
ATOM     26  H8  EQU d   1       1.644  -6.974 -13.334  0.00  0.00     0.043 H 
ATOM     27  H9  EQU d   1      -0.445  -5.597 -12.263  0.00  0.00     0.045 H 
ATOM     28  H10 EQU d   1       1.036  -5.463 -11.256  0.00  0.00     0.045 H 
ENDROOT
BRANCH  12  29
ATOM     29  C27 EQU d   1       1.551  -8.132  -9.917  0.00  0.00    -0.058 C 
ATOM     30  H11 EQU d   1       2.073  -9.099  -9.871  0.00  0.00     0.029 H 
ATOM     31  H12 EQU d   1       1.237  -7.837  -8.905  0.00  0.00     0.029 H 
ATOM     32  H13 EQU d   1       2.228  -7.369 -10.328  0.00  0.00     0.029 H 
ENDBRANCH  12  29
BRANCH   1  33
ATOM     33  O1  EQU d   1       3.665 -15.333 -12.704  0.00  0.00    -0.361 OA
ATOM     34  H14 EQU d   1       4.217 -15.547 -11.961  0.00  0.00     0.217 HD
ENDBRANCH   1  33
TORSDOF 2
