REMARK  2 active torsions:
REMARK  status: ('A' for Active; 'I' for Inactive)
REMARK    1  A    between atoms: C8_8  and  N11_11 
REMARK    2  A    between atoms: C9_9  and  O12_12 
ROOT
ATOM      1  C1  A7W d   1     -29.372   6.830 -17.662  0.00  0.00    -0.080 A 
ATOM      2  C2  A7W d   1     -29.264   6.707 -16.292  0.00  0.00    -0.071 A 
ATOM      3  C3  A7W d   1     -29.381   5.707 -18.469  0.00  0.00    -0.055 A 
ATOM      4  C4  A7W d   1     -29.049   5.321 -14.359  0.00  0.00    -0.037 A 
ATOM      5  C5  A7W d   1     -29.012   2.945 -14.699  0.00  0.00     0.035 A 
ATOM      6  C6  A7W d   1     -29.147   5.447 -15.736  0.00  0.00    -0.002 A 
ATOM      7  C7  A7W d   1     -29.157   4.299 -16.534  0.00  0.00     0.093 A 
ATOM      8  C8  A7W d   1     -29.276   4.446 -17.908  0.00  0.00     0.055 A 
ATOM      9  C9  A7W d   1     -28.984   4.034 -13.855  0.00  0.00     0.084 A 
ATOM     10  N10 A7W d   1     -29.106   3.055 -16.025  0.00  0.00    -0.255 NA
ATOM     11  H1  A7W d   1     -29.450   7.814 -18.109  0.00  0.00     0.083 H 
ATOM     12  H2  A7W d   1     -29.271   7.587 -15.660  0.00  0.00     0.084 H 
ATOM     13  H3  A7W d   1     -29.471   5.815 -19.544  0.00  0.00     0.087 H 
ATOM     14  H4  A7W d   1     -29.024   6.188 -13.709  0.00  0.00     0.089 H 
ATOM     15  H5  A7W d   1     -28.955   1.953 -14.265  0.00  0.00     0.119 H 
ENDROOT
BRANCH   8  16
ATOM     16  N11 A7W d   1     -29.322   3.301 -18.727  0.00  0.00    -0.397 N 
ATOM     17  H6  A7W d   1     -29.410   3.401 -19.748  0.00  0.00     0.156 HD
ATOM     18  H7  A7W d   1     -29.267   2.363 -18.305  0.00  0.00     0.156 HD
ENDBRANCH   8  16
BRANCH   9  19
ATOM     19  O12 A7W d   1     -28.886   3.791 -12.516  0.00  0.00    -0.359 OA
ATOM     20  H8  A7W d   1     -29.631   3.273 -12.234  0.00  0.00     0.217 HD
ENDBRANCH   9  19
TORSDOF 2
