REMARK  2 active torsions:
REMARK  status: ('A' for Active; 'I' for Inactive)
REMARK    1  A    between atoms: C9_9  and  C11_11 
REMARK    2  A    between atoms: C11_11  and  C10_10 
ROOT
ATOM      1  C1  6VD d   1     -27.196   4.186 -30.316  0.00  0.00    -0.082 A 
ATOM      2  C2  6VD d   1     -27.309   2.848 -30.635  0.00  0.00    -0.081 A 
ATOM      3  C3  6VD d   1     -26.932   5.127 -31.285  0.00  0.00    -0.067 A 
ATOM      4  C4  6VD d   1     -27.182   2.426 -31.944  0.00  0.00    -0.056 A 
ATOM      5  C5  6VD d   1     -26.791   4.687 -32.588  0.00  0.00     0.041 A 
ATOM      6  C6  6VD d   1     -26.923   3.352 -32.932  0.00  0.00     0.046 A 
ATOM      7  C7  6VD d   1     -26.362   5.199 -35.024  0.00  0.00    -0.012 A 
ATOM      8  C8  6VD d   1     -26.506   5.678 -33.634  0.00  0.00     0.186 A 
ATOM      9  C9  6VD d   1     -26.507   3.882 -35.237  0.00  0.00     0.013 A 
ATOM     10  N12 6VD d   1     -26.771   2.935 -34.265  0.00  0.00    -0.359 N 
ATOM     11  O13 6VD d   1     -26.370   6.859 -33.344  0.00  0.00    -0.287 OA
ATOM     12  H1  6VD d   1     -27.317   4.501 -29.286  0.00  0.00     0.083 H 
ATOM     13  H2  6VD d   1     -27.499   2.123 -29.852  0.00  0.00     0.083 H 
ATOM     14  H3  6VD d   1     -26.838   6.178 -31.035  0.00  0.00     0.085 H 
ATOM     15  H4  6VD d   1     -27.285   1.376 -32.192  0.00  0.00     0.086 H 
ATOM     16  H5  6VD d   1     -26.147   5.886 -35.841  0.00  0.00     0.092 H 
ATOM     17  H11 6VD d   1     -26.855   1.939 -34.514  0.00  0.00     0.166 HD
ENDROOT
BRANCH   9  18
ATOM     18  C11 6VD d   1     -26.327   3.360 -36.627  0.00  0.00    -0.030 C 
ATOM     19  H9  6VD d   1     -25.737   2.433 -36.583  0.00  0.00     0.041 H 
ATOM     20  H10 6VD d   1     -25.785   4.112 -37.220  0.00  0.00     0.041 H 
BRANCH  18  21
ATOM     21  C10 6VD d   1     -27.643   3.065 -37.304  0.00  0.00    -0.071 C 
ATOM     22  H6  6VD d   1     -27.456   2.685 -38.319  0.00  0.00     0.028 H 
ATOM     23  H7  6VD d   1     -28.241   3.987 -37.361  0.00  0.00     0.028 H 
ATOM     24  H8  6VD d   1     -28.192   2.308 -36.725  0.00  0.00     0.028 H 
ENDBRANCH  18  21
ENDBRANCH   9  18
TORSDOF 2
