REMARK  5 active torsions:
REMARK  status: ('A' for Active; 'I' for Inactive)
REMARK    1  A    between atoms: C13_16  and  N1_3 
REMARK    2  A    between atoms: C15_18  and  N2_5 
REMARK    3  A    between atoms: N2_5  and  C16_19 
REMARK    4  A    between atoms: C11_14  and  C15_18 
REMARK    5  A    between atoms: C13_16  and  C14_17 
ROOT
ATOM      1  C1  O82 d   1     124.626 102.838 -43.972  0.00  0.00     0.046 A 
ATOM      2  N1  O82 d   1     124.899 102.966 -42.632  0.00  0.00    -0.343 N 
ATOM      3  C2  O82 d   1     124.389 104.124 -44.459  0.00  0.00     0.003 A 
ATOM      4  C3  O82 d   1     124.534 105.032 -43.365  0.00  0.00     0.004 A 
ATOM      5  C4  O82 d   1     124.852 104.280 -42.231  0.00  0.00     0.046 A 
ATOM      6  C5  O82 d   1     124.569 101.701 -44.781  0.00  0.00    -0.056 A 
ATOM      7  C6  O82 d   1     124.257 101.889 -46.126  0.00  0.00    -0.081 A 
ATOM      8  C7  O82 d   1     124.013 103.156 -46.635  0.00  0.00    -0.082 A 
ATOM      9  C8  O82 d   1     124.077 104.290 -45.823  0.00  0.00    -0.070 A 
ATOM     10  C9  O82 d   1     125.069 104.860 -40.971  0.00  0.00    -0.056 A 
ATOM     11  C10 O82 d   1     124.950 106.251 -40.876  0.00  0.00    -0.073 A 
ATOM     12  C11 O82 d   1     124.627 107.021 -41.993  0.00  0.00    -0.032 A 
ATOM     13  C12 O82 d   1     124.419 106.427 -43.239  0.00  0.00    -0.062 A 
ATOM     14  H3  O82 d   1     124.760 100.713 -44.379  0.00  0.00     0.087 H 
ATOM     15  H4  O82 d   1     124.204 101.031 -46.786  0.00  0.00     0.083 H 
ATOM     16  H5  O82 d   1     123.768 103.268 -47.685  0.00  0.00     0.083 H 
ATOM     17  H6  O82 d   1     123.891 105.276 -46.233  0.00  0.00     0.084 H 
ATOM     18  H7  O82 d   1     125.319 104.255 -40.107  0.00  0.00     0.087 H 
ATOM     19  H8  O82 d   1     125.111 106.737 -39.920  0.00  0.00     0.084 H 
ATOM     20  H9  O82 d   1     124.171 107.036 -44.101  0.00  0.00     0.085 H 
ENDROOT
BRANCH  12  21
ATOM     21  C15 O82 d   1     124.510 108.501 -41.862  0.00  0.00     0.105 C 
ATOM     22  H14 O82 d   1     125.151 108.826 -41.030  0.00  0.00     0.083 H 
ATOM     23  H15 O82 d   1     124.862 108.960 -42.797  0.00  0.00     0.083 H 
BRANCH  21  24
ATOM     24  N2  O82 d   1     123.122 108.979 -41.599  0.00  0.00    -0.075 N 
ATOM     25  H1  O82 d   1     122.775 108.553 -40.754  0.00  0.00     0.277 HD
ATOM     26  H2  O82 d   1     122.527 108.725 -42.372  0.00  0.00     0.277 HD
BRANCH  24  27
ATOM     27  C16 O82 d   1     123.127 110.459 -41.442  0.00  0.00     0.065 C 
ATOM     28  H16 O82 d   1     122.103 110.811 -41.248  0.00  0.00     0.067 H 
ATOM     29  H17 O82 d   1     123.506 110.924 -42.364  0.00  0.00     0.067 H 
ATOM     30  H18 O82 d   1     123.776 110.736 -40.598  0.00  0.00     0.067 H 
ENDBRANCH  24  27
ENDBRANCH  21  24
ENDBRANCH  12  21
BRANCH   2  31
ATOM     31  C13 O82 d   1     125.209 101.856 -41.753  0.00  0.00     0.024 C 
ATOM     32  H10 O82 d   1     124.740 100.943 -42.149  0.00  0.00     0.068 H 
ATOM     33  H11 O82 d   1     124.808 102.069 -40.751  0.00  0.00     0.068 H 
BRANCH  31  34
ATOM     34  C14 O82 d   1     126.700 101.637 -41.649  0.00  0.00     0.073 C 
ATOM     35  F1  O82 d   1     127.285 102.634 -40.943  0.00  0.00    -0.254 F 
ATOM     36  H12 O82 d   1     126.889 100.678 -41.144  0.00  0.00     0.084 H 
ATOM     37  H13 O82 d   1     127.132 101.610 -42.660  0.00  0.00     0.084 H 
ENDBRANCH  31  34
ENDBRANCH   2  31
TORSDOF 5
