REMARK  5 active torsions:
REMARK  status: ('A' for Active; 'I' for Inactive)
REMARK    1  A    between atoms: C13_17  and  N1_3 
REMARK    2  A    between atoms: C15_19  and  N2_6 
REMARK    3  A    between atoms: N2_6  and  C16_20 
REMARK    4  A    between atoms: C11_15  and  C15_19 
REMARK    5  A    between atoms: C13_17  and  C14_18 
ROOT
ATOM      1  C1  O83 d   1     124.586 102.910 -44.037  0.00  0.00     0.046 A 
ATOM      2  N1  O83 d   1     124.892 103.010 -42.702  0.00  0.00    -0.340 N 
ATOM      3  C2  O83 d   1     124.332 104.204 -44.491  0.00  0.00     0.003 A 
ATOM      4  C3  O83 d   1     124.500 105.090 -43.384  0.00  0.00     0.004 A 
ATOM      5  C4  O83 d   1     124.851 104.316 -42.274  0.00  0.00     0.046 A 
ATOM      6  C5  O83 d   1     124.512 101.785 -44.865  0.00  0.00    -0.056 A 
ATOM      7  C6  O83 d   1     124.167 102.000 -46.199  0.00  0.00    -0.081 A 
ATOM      8  C7  O83 d   1     123.908 103.276 -46.679  0.00  0.00    -0.082 A 
ATOM      9  C8  O83 d   1     123.986 104.393 -45.843  0.00  0.00    -0.070 A 
ATOM     10  C9  O83 d   1     125.095 104.870 -41.007  0.00  0.00    -0.056 A 
ATOM     11  C10 O83 d   1     124.972 106.258 -40.883  0.00  0.00    -0.073 A 
ATOM     12  C11 O83 d   1     124.619 107.052 -41.974  0.00  0.00    -0.032 A 
ATOM     13  C12 O83 d   1     124.383 106.480 -43.226  0.00  0.00    -0.062 A 
ATOM     14  H3  O83 d   1     124.714 100.790 -44.486  0.00  0.00     0.087 H 
ATOM     15  H4  O83 d   1     124.100 101.154 -46.874  0.00  0.00     0.083 H 
ATOM     16  H5  O83 d   1     123.640 103.409 -47.721  0.00  0.00     0.083 H 
ATOM     17  H6  O83 d   1     123.784 105.386 -46.228  0.00  0.00     0.084 H 
ATOM     18  H7  O83 d   1     125.367 104.249 -40.161  0.00  0.00     0.087 H 
ATOM     19  H8  O83 d   1     125.154 106.725 -39.922  0.00  0.00     0.084 H 
ATOM     20  H9  O83 d   1     124.112 107.105 -44.069  0.00  0.00     0.085 H 
ENDROOT
BRANCH  12  21
ATOM     21  C15 O83 d   1     124.498 108.531 -41.818  0.00  0.00     0.105 C 
ATOM     22  H13 O83 d   1     125.183 108.850 -41.018  0.00  0.00     0.083 H 
ATOM     23  H14 O83 d   1     124.797 109.003 -42.766  0.00  0.00     0.083 H 
BRANCH  21  24
ATOM     24  N2  O83 d   1     123.127 109.003 -41.474  0.00  0.00    -0.075 N 
ATOM     25  H1  O83 d   1     122.830 108.569 -40.614  0.00  0.00     0.277 HD
ATOM     26  H2  O83 d   1     122.491 108.752 -42.215  0.00  0.00     0.277 HD
BRANCH  24  27
ATOM     27  C16 O83 d   1     123.131 110.482 -41.306  0.00  0.00     0.065 C 
ATOM     28  H15 O83 d   1     122.117 110.825 -41.052  0.00  0.00     0.067 H 
ATOM     29  H16 O83 d   1     123.455 110.957 -42.244  0.00  0.00     0.067 H 
ATOM     30  H17 O83 d   1     123.824 110.757 -40.498  0.00  0.00     0.067 H 
ENDBRANCH  24  27
ENDBRANCH  21  24
ENDBRANCH  12  21
BRANCH   2  31
ATOM     31  C13 O83 d   1     125.230 101.881 -41.858  0.00  0.00     0.055 C 
ATOM     32  H10 O83 d   1     124.754 100.975 -42.260  0.00  0.00     0.073 H 
ATOM     33  H11 O83 d   1     124.861 102.069 -40.839  0.00  0.00     0.073 H 
BRANCH  31  34
ATOM     34  C14 O83 d   1     126.729 101.676 -41.813  0.00  0.00     0.224 C 
ATOM     35  F1  O83 d   1     127.317 102.633 -41.055  0.00  0.00    -0.213 F 
ATOM     36  F2  O83 d   1     127.022 100.493 -41.217  0.00  0.00    -0.213 F 
ATOM     37  H12 O83 d   1     127.132 101.699 -42.836  0.00  0.00     0.147 H 
ENDBRANCH  31  34
ENDBRANCH   2  31
TORSDOF 5
