REMARK  6 active torsions:
REMARK  status: ('A' for Active; 'I' for Inactive)
REMARK    1  A    between atoms: C13_18  and  N1_3 
REMARK    2  A    between atoms: C15_20  and  N2_6 
REMARK    3  A    between atoms: N2_6  and  C16_21 
REMARK    4  A    between atoms: N2_6  and  C17_22 
REMARK    5  A    between atoms: C11_16  and  C15_20 
REMARK    6  A    between atoms: C13_18  and  C14_19 
ROOT
ATOM      1  C1  O80 d   1      91.531  93.221 -44.272  0.00  0.00     0.046 A 
ATOM      2  N1  O80 d   1      91.838  93.466 -42.949  0.00  0.00    -0.337 N 
ATOM      3  C2  O80 d   1      91.105  94.425 -44.822  0.00  0.00     0.003 A 
ATOM      4  C3  O80 d   1      91.168  95.403 -43.789  0.00  0.00     0.004 A 
ATOM      5  C4  O80 d   1      91.629  94.780 -42.628  0.00  0.00     0.046 A 
ATOM      6  C5  O80 d   1      91.584  92.045 -45.024  0.00  0.00    -0.056 A 
ATOM      7  C6  O80 d   1      91.202  92.101 -46.365  0.00  0.00    -0.081 A 
ATOM      8  C7  O80 d   1      90.774  93.294 -46.937  0.00  0.00    -0.082 A 
ATOM      9  C8  O80 d   1      90.721  94.466 -46.177  0.00  0.00    -0.070 A 
ATOM     10  C9  O80 d   1      91.811  95.454 -41.415  0.00  0.00    -0.056 A 
ATOM     11  C10 O80 d   1      91.510  96.813 -41.393  0.00  0.00    -0.073 A 
ATOM     12  C11 O80 d   1      91.048  97.462 -42.533  0.00  0.00    -0.032 A 
ATOM     13  C12 O80 d   1      90.873  96.769 -43.732  0.00  0.00    -0.062 A 
ATOM     14  H2  O80 d   1      91.913  91.114 -44.578  0.00  0.00     0.087 H 
ATOM     15  H3  O80 d   1      91.239  91.202 -46.969  0.00  0.00     0.083 H 
ATOM     16  H4  O80 d   1      90.479  93.315 -47.980  0.00  0.00     0.083 H 
ATOM     17  H5  O80 d   1      90.388  95.395 -46.625  0.00  0.00     0.084 H 
ATOM     18  H6  O80 d   1      92.171  94.940 -40.531  0.00  0.00     0.087 H 
ATOM     19  H7  O80 d   1      91.638  97.374 -40.474  0.00  0.00     0.084 H 
ATOM     20  H8  O80 d   1      90.511  97.286 -44.613  0.00  0.00     0.085 H 
ENDROOT
BRANCH  12  21
ATOM     21  C15 O80 d   1      90.738  98.913 -42.470  0.00  0.00     0.106 C 
ATOM     22  H11 O80 d   1      90.084  99.165 -43.318  0.00  0.00     0.083 H 
ATOM     23  H12 O80 d   1      90.210  99.114 -41.526  0.00  0.00     0.083 H 
BRANCH  21  24
ATOM     24  N2  O80 d   1      91.943  99.787 -42.530  0.00  0.00    -0.075 N 
ATOM     25  H1  O80 d   1      92.620  99.466 -41.856  0.00  0.00     0.279 HD
BRANCH  24  26
ATOM     26  C16 O80 d   1      92.541  99.738 -43.893  0.00  0.00     0.066 C 
ATOM     27  H13 O80 d   1      93.429 100.386 -43.927  0.00  0.00     0.068 H 
ATOM     28  H14 O80 d   1      91.803 100.088 -44.630  0.00  0.00     0.068 H 
ATOM     29  H15 O80 d   1      92.832  98.704 -44.129  0.00  0.00     0.068 H 
ENDBRANCH  24  26
BRANCH  24  30
ATOM     30  C17 O80 d   1      91.562 101.190 -42.218  0.00  0.00     0.066 C 
ATOM     31  H16 O80 d   1      91.119 101.235 -41.212  0.00  0.00     0.068 H 
ATOM     32  H17 O80 d   1      90.829 101.544 -42.958  0.00  0.00     0.068 H 
ATOM     33  H18 O80 d   1      92.456 101.829 -42.254  0.00  0.00     0.068 H 
ENDBRANCH  24  30
ENDBRANCH  21  24
ENDBRANCH  12  21
BRANCH   2  34
ATOM     34  C13 O80 d   1      92.319  92.491 -42.001  0.00  0.00     0.090 C 
ATOM     35  H9  O80 d   1      92.018  91.489 -42.341  0.00  0.00     0.078 H 
ATOM     36  H10 O80 d   1      91.865  92.697 -41.020  0.00  0.00     0.078 H 
BRANCH  34  37
ATOM     37  C14 O80 d   1      93.819  92.524 -41.857  0.00  0.00     0.403 C 
ATOM     38  F1  O80 d   1      94.251  93.572 -41.127  0.00  0.00    -0.169 F 
ATOM     39  F2  O80 d   1      94.247  91.400 -41.245  0.00  0.00    -0.169 F 
ATOM     40  F3  O80 d   1      94.406  92.587 -43.066  0.00  0.00    -0.169 F 
ENDBRANCH  34  37
ENDBRANCH   2  34
TORSDOF 6
