REMARK  12 active torsions:
REMARK  status: ('A' for Active; 'I' for Inactive)
REMARK    1  A    between atoms: C1_1  and  O_34 
REMARK    2  A    between atoms: C2_2  and  O1_37 
REMARK    3  A    between atoms: C3_3  and  C4_4 
REMARK    4  A    between atoms: O1_37  and  C3_3 
REMARK    5  A    between atoms: C4_4  and  C5_5 
REMARK    6  A    between atoms: C5_5  and  C6_6 
REMARK    7  A    between atoms: C6_6  and  O2_38 
REMARK    8  A    between atoms: O2_38  and  C7_7 
REMARK    9  A    between atoms: C10_13  and  C13_42 
REMARK   10  A    between atoms: N5_18  and  C19_19 
REMARK   11  A    between atoms: C15_31  and  C18_30 
REMARK   12  A    between atoms: O_34  and  C_35 
ROOT
ATOM      1  C1  6M5 d   1      28.612  12.697  -0.661  0.00  0.00     0.101 A 
ATOM      2  C2  6M5 d   1      28.261  13.286  -1.894  0.00  0.00     0.102 A 
ATOM      3  C15 6M5 d   1      27.625  11.099  -2.727  0.00  0.00    -0.007 A 
ATOM      4  C16 6M5 d   1      27.954  10.534  -1.502  0.00  0.00    -0.068 A 
ATOM      5  C17 6M5 d   1      28.460  11.327  -0.484  0.00  0.00    -0.047 A 
ATOM      6  C14 6M5 d   1      27.749  12.481  -2.901  0.00  0.00    -0.036 A 
ATOM      7  H32 6M5 d   1      27.815   9.471  -1.342  0.00  0.00     0.085 H 
ATOM      8  H33 6M5 d   1      28.740  10.874   0.460  0.00  0.00     0.087 H 
ATOM      9  H37 6M5 d   1      27.440  12.930  -3.838  0.00  0.00     0.089 H 
ENDROOT
BRANCH   3  10
ATOM     10  C18 6M5 d   1      27.074  10.283  -3.843  0.00  0.00     0.070 C 
ATOM     11  N4  6M5 d   1      26.593  10.902  -4.862  0.00  0.00    -0.173 NA
ATOM     12  N5  6M5 d   1      25.976  10.170  -5.852  0.00  0.00    -0.233 N 
ATOM     13  C26 6M5 d   1      26.202   8.818  -6.076  0.00  0.00     0.245 C 
ATOM     14  O3  6M5 d   1      25.595   8.201  -6.953  0.00  0.00    -0.271 OA
ATOM     15  C27 6M5 d   1      27.176   8.155  -5.142  0.00  0.00     0.037 C 
ATOM     16  C32 6M5 d   1      27.009   8.765  -3.733  0.00  0.00     0.006 C 
ATOM     17  C28 6M5 d   1      27.090   6.625  -5.104  0.00  0.00    -0.038 C 
ATOM     18  H25 6M5 d   1      28.186   8.404  -5.498  0.00  0.00     0.056 H 
ATOM     19  C31 6M5 d   1      25.651   8.331  -3.160  0.00  0.00    -0.041 C 
ATOM     20  H26 6M5 d   1      27.816   8.409  -3.075  0.00  0.00     0.051 H 
ATOM     21  C30 6M5 d   1      25.307   6.902  -3.407  0.00  0.00    -0.106 C 
ATOM     22  H27 6M5 d   1      25.667   8.498  -2.073  0.00  0.00     0.040 H 
ATOM     23  H28 6M5 d   1      24.869   8.957  -3.616  0.00  0.00     0.040 H 
ATOM     24  C29 6M5 d   1      25.893   6.168  -4.335  0.00  0.00    -0.106 C 
ATOM     25  H13 6M5 d   1      24.535   6.441  -2.792  0.00  0.00     0.076 H 
ATOM     26  H29 6M5 d   1      25.484   5.182  -4.550  0.00  0.00     0.076 H 
ATOM     27  H30 6M5 d   1      27.997   6.227  -4.625  0.00  0.00     0.040 H 
ATOM     28  H31 6M5 d   1      27.021   6.244  -6.134  0.00  0.00     0.040 H 
BRANCH  12  29
ATOM     29  C19 6M5 d   1      25.066  10.952  -6.715  0.00  0.00     0.038 C 
ATOM     30  C20 6M5 d   1      23.885  11.466  -5.905  0.00  0.00    -0.044 C 
ATOM     31  C21 6M5 d   1      22.755  12.078  -6.727  0.00  0.00    -0.063 C 
ATOM     32  H11 6M5 d   1      24.256  12.234  -5.211  0.00  0.00     0.036 H 
ATOM     33  H12 6M5 d   1      23.472  10.623  -5.332  0.00  0.00     0.036 H 
ATOM     34  C22 6M5 d   1      23.201  13.270  -7.546  0.00  0.00    -0.065 C 
ATOM     35  H23 6M5 d   1      21.958  12.402  -6.042  0.00  0.00     0.033 H 
ATOM     36  H24 6M5 d   1      22.362  11.310  -7.410  0.00  0.00     0.033 H 
ATOM     37  C23 6M5 d   1      23.853  12.900  -8.877  0.00  0.00    -0.065 C 
ATOM     38  H21 6M5 d   1      22.320  13.896  -7.754  0.00  0.00     0.033 H 
ATOM     39  H22 6M5 d   1      23.927  13.845  -6.953  0.00  0.00     0.033 H 
ATOM     40  C24 6M5 d   1      25.318  12.460  -8.807  0.00  0.00    -0.063 C 
ATOM     41  H19 6M5 d   1      23.274  12.075  -9.317  0.00  0.00     0.033 H 
ATOM     42  H20 6M5 d   1      23.797  13.779  -9.535  0.00  0.00     0.033 H 
ATOM     43  C25 6M5 d   1      25.873  12.017  -7.454  0.00  0.00    -0.044 C 
ATOM     44  H17 6M5 d   1      25.439  11.616  -9.502  0.00  0.00     0.033 H 
ATOM     45  H18 6M5 d   1      25.930  13.307  -9.149  0.00  0.00     0.033 H 
ATOM     46  H15 6M5 d   1      26.884  11.618  -7.620  0.00  0.00     0.036 H 
ATOM     47  H16 6M5 d   1      25.930  12.905  -6.807  0.00  0.00     0.036 H 
ATOM     48  H14 6M5 d   1      24.655  10.275  -7.478  0.00  0.00     0.076 H 
ENDBRANCH  12  29
ENDBRANCH   3  10
BRANCH   2  49
ATOM     49  O1  6M5 d   1      28.432  14.650  -2.017  0.00  0.00    -0.348 OA
BRANCH  49  50
ATOM     50  C3  6M5 d   1      28.151  15.274  -3.287  0.00  0.00     0.026 C 
ATOM     51  H1  6M5 d   1      28.859  14.902  -4.042  0.00  0.00     0.075 H 
ATOM     52  H2  6M5 d   1      27.124  15.030  -3.596  0.00  0.00     0.075 H 
BRANCH  50  53
ATOM     53  C4  6M5 d   1      28.295  16.774  -3.156  0.00  0.00    -0.043 C 
ATOM     54  H3  6M5 d   1      29.312  16.997  -2.802  0.00  0.00     0.036 H 
ATOM     55  H4  6M5 d   1      27.563  17.131  -2.417  0.00  0.00     0.036 H 
BRANCH  53  56
ATOM     56  C5  6M5 d   1      28.066  17.519  -4.457  0.00  0.00    -0.043 C 
ATOM     57  H5  6M5 d   1      28.227  16.814  -5.286  0.00  0.00     0.036 H 
ATOM     58  H6  6M5 d   1      28.804  18.332  -4.519  0.00  0.00     0.036 H 
BRANCH  56  59
ATOM     59  C6  6M5 d   1      26.695  18.120  -4.614  0.00  0.00     0.026 C 
ATOM     60  H7  6M5 d   1      26.641  18.660  -5.571  0.00  0.00     0.075 H 
ATOM     61  H8  6M5 d   1      26.507  18.820  -3.787  0.00  0.00     0.075 H 
BRANCH  59  62
ATOM     62  O2  6M5 d   1      25.697  17.081  -4.596  0.00  0.00    -0.351 OA
BRANCH  62  63
ATOM     63  C7  6M5 d   1      24.444  17.384  -5.066  0.00  0.00     0.068 A 
ATOM     64  C8  6M5 d   1      23.990  18.686  -5.246  0.00  0.00    -0.050 A 
ATOM     65  C9  6M5 d   1      22.717  18.911  -5.728  0.00  0.00    -0.067 A 
ATOM     66  H10 6M5 d   1      24.636  19.523  -5.008  0.00  0.00     0.087 H 
ATOM     67  C10 6M5 d   1      21.898  17.845  -6.074  0.00  0.00     0.013 A 
ATOM     68  H40 6M5 d   1      22.354  19.927  -5.837  0.00  0.00     0.085 H 
ATOM     69  C11 6M5 d   1      22.369  16.546  -5.915  0.00  0.00    -0.067 A 
ATOM     70  C12 6M5 d   1      23.632  16.314  -5.409  0.00  0.00    -0.050 A 
ATOM     71  H39 6M5 d   1      21.739  15.708  -6.191  0.00  0.00     0.085 H 
ATOM     72  H38 6M5 d   1      23.988  15.298  -5.280  0.00  0.00     0.087 H 
BRANCH  67  73
ATOM     73  C13 6M5 d   1      20.572  18.087  -6.629  0.00  0.00     0.179 A 
ATOM     74  N3  6M5 d   1      20.086  19.267  -6.980  0.00  0.00    -0.239 N 
ATOM     75  N2  6M5 d   1      18.827  19.042  -7.437  0.00  0.00    -0.046 NA
ATOM     76  H9  6M5 d   1      20.567  20.176  -6.919  0.00  0.00     0.192 HD
ATOM     77  N1  6M5 d   1      18.559  17.777  -7.394  0.00  0.00    -0.023 NA
ATOM     78  N   6M5 d   1      19.646  17.162  -6.899  0.00  0.00    -0.108 NA
ENDBRANCH  67  73
ENDBRANCH  62  63
ENDBRANCH  59  62
ENDBRANCH  56  59
ENDBRANCH  53  56
ENDBRANCH  50  53
ENDBRANCH  49  50
ENDBRANCH   2  49
BRANCH   1  79
ATOM     79  O   6M5 d   1      29.081  13.557   0.295  0.00  0.00    -0.353 OA
BRANCH  79  80
ATOM     80  C   6M5 d   1      29.897  13.000   1.338  0.00  0.00     0.010 C 
ATOM     81  H34 6M5 d   1      30.201  13.798   2.031  0.00  0.00     0.066 H 
ATOM     82  H35 6M5 d   1      30.792  12.537   0.896  0.00  0.00     0.066 H 
ATOM     83  H36 6M5 d   1      29.323  12.238   1.886  0.00  0.00     0.066 H 
ENDBRANCH  79  80
ENDBRANCH   1  79
TORSDOF 12
