REMARK  11 active torsions:
REMARK  status: ('A' for Active; 'I' for Inactive)
REMARK    1  A    between atoms: N1_1  and  CA1_2 
REMARK    2  A    between atoms: CA1_2  and  C1_3 
REMARK    3  A    between atoms: CA1_2  and  CB1_6 
REMARK    4  A    between atoms: CB1_6  and  CG1_7 
REMARK    5  A    between atoms: CG1_7  and  CD1_8 
REMARK       I    between atoms: CD1_8  and  N2_10 
REMARK    6  A    between atoms: N2_10  and  CA2_11 
REMARK    7  A    between atoms: CA2_11  and  C2_12 
REMARK    8  A    between atoms: CA2_11  and  CB2_14 
REMARK       I    between atoms: C2_12  and  N3_16 
REMARK    9  A    between atoms: CB2_14  and  SG2_15 
REMARK   10  A    between atoms: N3_16  and  CA3_17 
REMARK   11  A    between atoms: CA3_17  and  C3_18 
ROOT
ATOM      1  CD1 GSH d   1      -2.871 -30.337  15.075  0.00  0.00     0.218 C 
ATOM      2  OE1 GSH d   1      -3.214 -31.361  15.620  0.00  0.00    -0.274 OA
ATOM      3  N2  GSH d   1      -2.707 -30.344  13.626  0.00  0.00    -0.347 N 
ATOM      4  H9  GSH d   1      -2.450 -29.524  13.115  0.00  0.00     0.163 HD
ENDROOT
BRANCH   3   5
ATOM      5  CA2 GSH d   1      -2.941 -31.621  12.974  0.00  0.00     0.097 C 
ATOM      6  H10 GSH d   1      -3.368 -32.313  13.714  0.00  0.00     0.088 H 
BRANCH   5   7
ATOM      7  C2  GSH d   1      -1.603 -32.151  12.505  0.00  0.00     0.241 C 
ATOM      8  O2  GSH d   1      -1.429 -32.517  11.359  0.00  0.00    -0.271 OA
ATOM      9  N3  GSH d   1      -0.566 -32.159  13.495  0.00  0.00    -0.349 N 
ATOM     10  H14 GSH d   1      -0.752 -31.814  14.415  0.00  0.00     0.163 HD
BRANCH   9  11
ATOM     11  CA3 GSH d   1       0.722 -32.655  13.172  0.00  0.00     0.075 C 
ATOM     12  H15 GSH d   1       1.538 -32.020  13.546  0.00  0.00     0.080 H 
ATOM     13  H16 GSH d   1       0.861 -32.835  12.096  0.00  0.00     0.080 H 
BRANCH  11  14
ATOM     14  C3  GSH d   1       0.541 -33.916  13.965  0.00  0.00     0.191 C 
ATOM     15  O31 GSH d   1      -0.576 -34.163  14.464  0.00  0.00    -0.647 OA
ATOM     16  O32 GSH d   1       1.467 -34.727  14.168  0.00  0.00    -0.647 OA
ENDBRANCH  11  14
ENDBRANCH   9  11
ENDBRANCH   5   7
BRANCH   5  17
ATOM     17  CB2 GSH d   1      -3.843 -31.559  11.848  0.00  0.00     0.001 C 
ATOM     18  H11 GSH d   1      -4.561 -32.389  11.916  0.00  0.00     0.052 H 
ATOM     19  H12 GSH d   1      -3.264 -31.651  10.918  0.00  0.00     0.052 H 
BRANCH  17  20
ATOM     20  SG2 GSH d   1      -4.721 -30.043  11.828  0.00  0.00    -0.180 SA
ATOM     21  H13 GSH d   1      -4.067 -29.278  11.761  0.00  0.00     0.101 HD
ENDBRANCH  17  20
ENDBRANCH   5  17
ENDBRANCH   3   5
BRANCH   1  22
ATOM     22  CG1 GSH d   1      -2.616 -29.086  15.891  0.00  0.00     0.012 C 
ATOM     23  H7  GSH d   1      -1.612 -29.147  16.337  0.00  0.00     0.047 H 
ATOM     24  H8  GSH d   1      -2.671 -28.209  15.230  0.00  0.00     0.047 H 
BRANCH  22  25
ATOM     25  CB1 GSH d   1      -3.650 -28.934  17.009  0.00  0.00    -0.021 C 
ATOM     26  H5  GSH d   1      -4.636 -28.715  16.572  0.00  0.00     0.037 H 
ATOM     27  H6  GSH d   1      -3.705 -29.867  17.590  0.00  0.00     0.037 H 
BRANCH  25  28
ATOM     28  CA1 GSH d   1      -3.230 -27.790  17.920  0.00  0.00     0.183 C 
ATOM     29  H4  GSH d   1      -2.139 -27.827  18.051  0.00  0.00     0.101 H 
BRANCH  28  30
ATOM     30  N1  GSH d   1      -3.837 -27.909  19.195  0.00  0.00    -0.065 N 
ATOM     31  H1  GSH d   1      -3.580 -28.792  19.608  0.00  0.00     0.275 HD
ATOM     32  H2  GSH d   1      -4.839 -27.863  19.096  0.00  0.00     0.275 HD
ATOM     33  H3  GSH d   1      -3.523 -27.157  19.788  0.00  0.00     0.275 HD
ENDBRANCH  28  30
BRANCH  28  34
ATOM     34  C1  GSH d   1      -3.596 -26.469  17.268  0.00  0.00     0.204 C 
ATOM     35  O11 GSH d   1      -2.763 -25.892  16.519  0.00  0.00    -0.646 OA
ATOM     36  O12 GSH d   1      -4.734 -25.937  17.468  0.00  0.00    -0.646 OA
ENDBRANCH  28  34
ENDBRANCH  25  28
ENDBRANCH  22  25
ENDBRANCH   1  22
TORSDOF 11
