REMARK  9 active torsions:
REMARK  status: ('A' for Active; 'I' for Inactive)
REMARK    1  A    between atoms: N_3  and  C1_4 
REMARK    2  A    between atoms: C1_4  and  C2_5 
REMARK    3  A    between atoms: C1_4  and  C_6 
REMARK    4  A    between atoms: C3_13  and  C4_15 
REMARK    5  A    between atoms: C9_17  and  C10_23 
REMARK    6  A    between atoms: C7_18  and  O_19 
REMARK    7  A    between atoms: O_19  and  C8_20 
REMARK    8  A    between atoms: C13_26  and  C14_29 
REMARK       I    between atoms: C14_29  and  N2_31 
REMARK    9  A    between atoms: C17_33  and  O1_34 
ROOT
ATOM      1  C4  8Z4 d   1     134.731  90.349  66.647  0.00  0.00    -0.008 A 
ATOM      2  C21 8Z4 d   1     134.622  91.486  65.843  0.00  0.00    -0.058 A 
ATOM      3  C9  8Z4 d   1     134.318  92.713  66.419  0.00  0.00     0.008 A 
ATOM      4  C7  8Z4 d   1     134.194  92.806  67.821  0.00  0.00     0.079 A 
ATOM      5  C6  8Z4 d   1     134.307  91.672  68.616  0.00  0.00    -0.049 A 
ATOM      6  C5  8Z4 d   1     134.570  90.450  68.026  0.00  0.00    -0.068 A 
ATOM      7  H16 8Z4 d   1     134.774  91.411  64.772  0.00  0.00     0.086 H 
ATOM      8  H20 8Z4 d   1     134.190  91.745  69.691  0.00  0.00     0.087 H 
ATOM      9  H21 8Z4 d   1     134.652  89.562  68.643  0.00  0.00     0.085 H 
ENDROOT
BRANCH   1  10
ATOM     10  C3  8Z4 d   1     134.988  89.028  66.024  0.00  0.00     0.070 C 
ATOM     11  C22 8Z4 d   1     135.698  87.939  66.808  0.00  0.00     0.006 C 
ATOM     12  C27 8Z4 d   1     136.557  87.132  65.811  0.00  0.00     0.037 C 
ATOM     13  C23 8Z4 d   1     134.703  86.983  67.508  0.00  0.00    -0.041 C 
ATOM     14  H15 8Z4 d   1     136.344  88.402  67.569  0.00  0.00     0.051 H 
ATOM     15  C28 8Z4 d   1     135.724  86.758  64.602  0.00  0.00     0.245 C 
ATOM     16  C26 8Z4 d   1     137.295  85.968  66.491  0.00  0.00    -0.038 C 
ATOM     17  H8  8Z4 d   1     137.342  87.810  65.445  0.00  0.00     0.056 H 
ATOM     18  O3  8Z4 d   1     135.907  85.714  63.991  0.00  0.00    -0.271 OA
ATOM     19  N   8Z4 d   1     134.760  87.681  64.193  0.00  0.00    -0.234 N 
ATOM     20  N1  8Z4 d   1     134.557  88.882  64.821  0.00  0.00    -0.173 NA
ATOM     21  C25 8Z4 d   1     136.441  85.220  67.458  0.00  0.00    -0.106 C 
ATOM     22  H9  8Z4 d   1     138.164  86.372  67.031  0.00  0.00     0.040 H 
ATOM     23  H10 8Z4 d   1     137.638  85.269  65.714  0.00  0.00     0.040 H 
ATOM     24  C24 8Z4 d   1     135.276  85.660  67.887  0.00  0.00    -0.106 C 
ATOM     25  H11 8Z4 d   1     136.799  84.261  67.829  0.00  0.00     0.076 H 
ATOM     26  H12 8Z4 d   1     134.700  85.022  68.555  0.00  0.00     0.076 H 
ATOM     27  H13 8Z4 d   1     134.341  87.475  68.423  0.00  0.00     0.040 H 
ATOM     28  H14 8Z4 d   1     133.858  86.808  66.826  0.00  0.00     0.040 H 
BRANCH  19  29
ATOM     29  C1  8Z4 d   1     133.883  87.441  63.018  0.00  0.00     0.031 C 
ATOM     30  H1  8Z4 d   1     134.017  86.397  62.698  0.00  0.00     0.074 H 
BRANCH  29  31
ATOM     31  C2  8Z4 d   1     134.283  88.334  61.863  0.00  0.00    -0.056 C 
ATOM     32  H2  8Z4 d   1     133.623  88.141  61.005  0.00  0.00     0.030 H 
ATOM     33  H3  8Z4 d   1     135.324  88.122  61.579  0.00  0.00     0.030 H 
ATOM     34  H4  8Z4 d   1     134.192  89.388  62.166  0.00  0.00     0.030 H 
ENDBRANCH  29  31
BRANCH  29  35
ATOM     35  C   8Z4 d   1     132.431  87.627  63.401  0.00  0.00    -0.056 C 
ATOM     36  H5  8Z4 d   1     131.794  87.446  62.523  0.00  0.00     0.030 H 
ATOM     37  H6  8Z4 d   1     132.276  88.654  63.761  0.00  0.00     0.030 H 
ATOM     38  H7  8Z4 d   1     132.168  86.915  64.197  0.00  0.00     0.030 H 
ENDBRANCH  29  35
ENDBRANCH  19  29
ENDBRANCH   1  10
BRANCH   3  39
ATOM     39  C10 8Z4 d   1     134.299  93.890  65.651  0.00  0.00    -0.023 A 
ATOM     40  C20 8Z4 d   1     133.124  94.568  65.333  0.00  0.00    -0.071 A 
ATOM     41  C19 8Z4 d   1     133.165  95.783  64.666  0.00  0.00    -0.067 A 
ATOM     42  H22 8Z4 d   1     132.167  94.141  65.610  0.00  0.00     0.084 H 
ATOM     43  C13 8Z4 d   1     134.382  96.367  64.325  0.00  0.00     0.032 A 
ATOM     44  H23 8Z4 d   1     132.239  96.284  64.407  0.00  0.00     0.085 H 
ATOM     45  C12 8Z4 d   1     135.555  95.718  64.694  0.00  0.00    -0.067 A 
ATOM     46  C11 8Z4 d   1     135.510  94.499  65.343  0.00  0.00    -0.071 A 
ATOM     47  H24 8Z4 d   1     136.513  96.172  64.471  0.00  0.00     0.085 H 
ATOM     48  H25 8Z4 d   1     136.437  94.008  65.617  0.00  0.00     0.084 H 
BRANCH  43  49
ATOM     49  C14 8Z4 d   1     134.422  97.723  63.689  0.00  0.00     0.253 C 
ATOM     50  O2  8Z4 d   1     133.703  98.615  64.150  0.00  0.00    -0.267 OA
ATOM     51  N2  8Z4 d   1     135.327  98.004  62.737  0.00  0.00    -0.345 N 
ATOM     52  C18 8Z4 d   1     135.360  99.320  62.077  0.00  0.00     0.022 C 
ATOM     53  C15 8Z4 d   1     136.404  97.150  62.204  0.00  0.00     0.000 C 
ATOM     54  C17 8Z4 d   1     135.880  98.932  60.704  0.00  0.00     0.052 C 
ATOM     55  H26 8Z4 d   1     136.044 100.013  62.589  0.00  0.00     0.068 H 
ATOM     56  H27 8Z4 d   1     134.358  99.770  62.019  0.00  0.00     0.068 H 
ATOM     57  C16 8Z4 d   1     137.004  97.986  61.088  0.00  0.00    -0.025 C 
ATOM     58  H28 8Z4 d   1     136.243  99.799  60.133  0.00  0.00     0.085 H 
ATOM     59  H30 8Z4 d   1     137.882  98.544  61.445  0.00  0.00     0.039 H 
ATOM     60  H31 8Z4 d   1     137.293  97.353  60.236  0.00  0.00     0.039 H 
ATOM     61  H32 8Z4 d   1     135.999  96.205  61.812  0.00  0.00     0.064 H 
ATOM     62  H33 8Z4 d   1     137.154  96.934  62.979  0.00  0.00     0.064 H 
BRANCH  54  63
ATOM     63  O1  8Z4 d   1     134.869  98.248  59.973  0.00  0.00    -0.394 OA
ATOM     64  H29 8Z4 d   1     134.615  97.463  60.444  0.00  0.00     0.210 HD
ENDBRANCH  54  63
ENDBRANCH  43  49
ENDBRANCH   3  39
BRANCH   4  65
ATOM     65  O   8Z4 d   1     133.943  94.066  68.303  0.00  0.00    -0.355 OA
BRANCH  65  66
ATOM     66  C8  8Z4 d   1     133.542  94.237  69.659  0.00  0.00     0.010 C 
ATOM     67  H17 8Z4 d   1     133.387  95.307  69.863  0.00  0.00     0.066 H 
ATOM     68  H18 8Z4 d   1     134.325  93.846  70.325  0.00  0.00     0.066 H 
ATOM     69  H19 8Z4 d   1     132.604  93.690  69.836  0.00  0.00     0.066 H 
ENDBRANCH  65  66
ENDBRANCH   4  65
TORSDOF 9
