REMARK  20 active torsions:
REMARK  status: ('A' for Active; 'I' for Inactive)
REMARK    1  A    between atoms: O1_19  and  C1_1 
REMARK    2  A    between atoms: C10_2  and  C20_5 
REMARK    3  A    between atoms: O10_20  and  C10_2 
REMARK    4  A    between atoms: C21_6  and  C11_3 
REMARK    5  A    between atoms: C11_3  and  O11_21 
REMARK    6  A    between atoms: C2_4  and  O2_22 
REMARK    7  A    between atoms: C20_5  and  O1_19 
REMARK    8  A    between atoms: C21_6  and  O10_20 
REMARK    9  A    between atoms: C3_7  and  O3_25 
REMARK   10  A    between atoms: C30_8  and  O30_26 
REMARK   11  A    between atoms: C31_9  and  O31_27 
REMARK   12  A    between atoms: C4_10  and  O4_28 
REMARK   13  A    between atoms: C40_11  and  O40_29 
REMARK   14  A    between atoms: C41_12  and  O41_30 
REMARK   15  A    between atoms: C5_13  and  C6_16 
REMARK   16  A    between atoms: C50_14  and  C60_17 
REMARK   17  A    between atoms: C51_15  and  C61_18 
REMARK   18  A    between atoms: C6_16  and  O6_34 
REMARK   19  A    between atoms: C60_17  and  O60_32 
REMARK   20  A    between atoms: C61_18  and  O61_33 
ROOT
ATOM      1  C20 DQR d   1     -19.062 -66.348 -50.416  0.00  0.00     0.217 C 
ATOM      2  C30 DQR d   1     -20.158 -67.348 -49.938  0.00  0.00     0.118 C 
ATOM      3  C40 DQR d   1     -21.051 -66.441 -49.130  0.00  0.00     0.092 C 
ATOM      4  C50 DQR d   1     -20.866 -65.241 -49.668  0.00  0.00     0.089 C 
ATOM      5  O20 DQR d   1     -19.307 -65.168 -50.034  0.00  0.00    -0.341 OA
ATOM      6  H8  DQR d   1     -20.691 -67.757 -50.809  0.00  0.00     0.095 H 
ATOM      7  H11 DQR d   1     -20.730 -66.447 -48.078  0.00  0.00     0.091 H 
ATOM      8  H14 DQR d   1     -21.478 -65.125 -50.575  0.00  0.00     0.090 H 
ENDROOT
BRANCH   1   9
ATOM      9  C10 DQR d   1     -17.978 -66.682 -51.460  0.00  0.00     0.078 C 
ATOM     10  H2  DQR d   1     -17.021 -66.246 -51.139  0.00  0.00     0.083 H 
ATOM     11  H3  DQR d   1     -18.268 -66.255 -52.431  0.00  0.00     0.083 H 
BRANCH   9  12
ATOM     12  O10 DQR d   1     -17.828 -68.089 -51.595  0.00  0.00    -0.345 OA
BRANCH  12  13
ATOM     13  C21 DQR d   1     -17.770 -68.640 -52.976  0.00  0.00     0.215 C 
ATOM     14  C31 DQR d   1     -17.515 -69.934 -52.961  0.00  0.00     0.118 C 
ATOM     15  C41 DQR d   1     -18.918 -70.598 -52.708  0.00  0.00     0.092 C 
ATOM     16  H9  DQR d   1     -17.111 -70.245 -53.936  0.00  0.00     0.095 H 
ATOM     17  C51 DQR d   1     -19.787 -69.745 -53.672  0.00  0.00     0.089 C 
ATOM     18  H12 DQR d   1     -19.230 -70.517 -51.656  0.00  0.00     0.091 H 
ATOM     19  O21 DQR d   1     -19.258 -68.541 -53.645  0.00  0.00    -0.341 OA
ATOM     20  H15 DQR d   1     -19.726 -70.165 -54.687  0.00  0.00     0.090 H 
BRANCH  13  21
ATOM     21  C11 DQR d   1     -16.879 -67.824 -53.849  0.00  0.00     0.071 C 
ATOM     22  H4  DQR d   1     -17.152 -66.764 -53.741  0.00  0.00     0.082 H 
ATOM     23  H5  DQR d   1     -17.025 -68.136 -54.894  0.00  0.00     0.082 H 
BRANCH  21  24
ATOM     24  O11 DQR d   1     -15.503 -67.979 -53.513  0.00  0.00    -0.395 OA
ATOM     25  H22 DQR d   1     -15.255 -68.891 -53.610  0.00  0.00     0.209 HD
ENDBRANCH  21  24
ENDBRANCH  13  21
BRANCH  14  26
ATOM     26  O31 DQR d   1     -16.580 -70.334 -51.924  0.00  0.00    -0.387 OA
ATOM     27  H26 DQR d   1     -15.736 -69.928 -52.086  0.00  0.00     0.210 HD
ENDBRANCH  14  26
BRANCH  15  28
ATOM     28  O41 DQR d   1     -18.978 -71.878 -53.120  0.00  0.00    -0.390 OA
ATOM     29  H29 DQR d   1     -19.880 -72.174 -53.099  0.00  0.00     0.210 HD
ENDBRANCH  15  28
BRANCH  17  30
ATOM     30  C61 DQR d   1     -21.259 -69.662 -53.266  0.00  0.00     0.043 C 
ATOM     31  H20 DQR d   1     -21.353 -69.415 -52.198  0.00  0.00     0.078 H 
ATOM     32  H21 DQR d   1     -21.771 -70.614 -53.469  0.00  0.00     0.078 H 
BRANCH  30  33
ATOM     33  O61 DQR d   1     -21.792 -68.641 -54.054  0.00  0.00    -0.398 OA
ATOM     34  H31 DQR d   1     -22.714 -68.534 -53.851  0.00  0.00     0.209 HD
ENDBRANCH  30  33
ENDBRANCH  17  30
ENDBRANCH  12  13
ENDBRANCH   9  12
ENDBRANCH   1   9
BRANCH   1  35
ATOM     35  O1  DQR d   1     -18.101 -66.654 -49.273  0.00  0.00    -0.318 OA
BRANCH  35  36
ATOM     36  C1  DQR d   1     -17.430 -65.568 -48.600  0.00  0.00     0.162 C 
ATOM     37  C2  DQR d   1     -16.082 -66.003 -48.050  0.00  0.00     0.110 C 
ATOM     38  C3  DQR d   1     -16.238 -67.010 -46.963  0.00  0.00     0.092 C 
ATOM     39  H6  DQR d   1     -15.565 -65.123 -47.641  0.00  0.00     0.094 H 
ATOM     40  C4  DQR d   1     -17.035 -66.456 -45.857  0.00  0.00     0.090 C 
ATOM     41  H7  DQR d   1     -16.781 -67.871 -47.379  0.00  0.00     0.091 H 
ATOM     42  C5  DQR d   1     -18.381 -66.023 -46.381  0.00  0.00     0.089 C 
ATOM     43  H10 DQR d   1     -16.508 -65.607 -45.396  0.00  0.00     0.091 H 
ATOM     44  O5  DQR d   1     -18.195 -65.025 -47.441  0.00  0.00    -0.348 OA
ATOM     45  H13 DQR d   1     -18.912 -66.893 -46.795  0.00  0.00     0.090 H 
ATOM     46  H1  DQR d   1     -17.278 -64.762 -49.333  0.00  0.00     0.133 H 
BRANCH  37  47
ATOM     47  O2  DQR d   1     -15.294 -66.555 -49.128  0.00  0.00    -0.388 OA
ATOM     48  H23 DQR d   1     -15.729 -67.325 -49.475  0.00  0.00     0.210 HD
ENDBRANCH  37  47
BRANCH  38  49
ATOM     49  O3  DQR d   1     -14.946 -67.493 -46.462  0.00  0.00    -0.390 OA
ATOM     50  H24 DQR d   1     -15.093 -68.171 -45.813  0.00  0.00     0.210 HD
ENDBRANCH  38  49
BRANCH  40  51
ATOM     51  O4  DQR d   1     -17.271 -67.502 -44.881  0.00  0.00    -0.390 OA
ATOM     52  H27 DQR d   1     -16.440 -67.799 -44.529  0.00  0.00     0.210 HD
ENDBRANCH  40  51
BRANCH  42  53
ATOM     53  C6  DQR d   1     -19.177 -65.452 -45.247  0.00  0.00     0.043 C 
ATOM     54  H16 DQR d   1     -19.053 -66.089 -44.359  0.00  0.00     0.078 H 
ATOM     55  H17 DQR d   1     -20.240 -65.420 -45.529  0.00  0.00     0.078 H 
BRANCH  53  56
ATOM     56  O6  DQR d   1     -18.742 -64.165 -44.952  0.00  0.00    -0.398 OA
ATOM     57  H32 DQR d   1     -18.850 -63.612 -45.717  0.00  0.00     0.209 HD
ENDBRANCH  53  56
ENDBRANCH  42  53
ENDBRANCH  35  36
ENDBRANCH   1  35
BRANCH   2  58
ATOM     58  O30 DQR d   1     -19.743 -68.390 -49.170  0.00  0.00    -0.387 OA
ATOM     59  H25 DQR d   1     -19.260 -68.058 -48.422  0.00  0.00     0.210 HD
ENDBRANCH   2  58
BRANCH   3  60
ATOM     60  O40 DQR d   1     -22.508 -66.801 -49.189  0.00  0.00    -0.390 OA
ATOM     61  H28 DQR d   1     -22.794 -66.813 -50.095  0.00  0.00     0.210 HD
ENDBRANCH   3  60
BRANCH   4  62
ATOM     62  C60 DQR d   1     -21.232 -64.184 -48.682  0.00  0.00     0.043 C 
ATOM     63  H18 DQR d   1     -21.034 -64.547 -47.663  0.00  0.00     0.078 H 
ATOM     64  H19 DQR d   1     -22.299 -63.939 -48.784  0.00  0.00     0.078 H 
BRANCH  62  65
ATOM     65  O60 DQR d   1     -20.452 -63.025 -48.934  0.00  0.00    -0.398 OA
ATOM     66  H30 DQR d   1     -19.531 -63.239 -48.847  0.00  0.00     0.209 HD
ENDBRANCH  62  65
ENDBRANCH   4  62
TORSDOF 20
