REMARK  27 active torsions:
REMARK  status: ('A' for Active; 'I' for Inactive)
REMARK    1  A    between atoms: O1_2  and  C1_1 
REMARK    2  A    between atoms: C21_19  and  O1_2 
REMARK    3  A    between atoms: C2_3  and  O2_4 
REMARK    4  A    between atoms: C3_5  and  O3_6 
REMARK    5  A    between atoms: C4_7  and  O4_8 
REMARK    6  A    between atoms: C5_9  and  C6_11 
REMARK    7  A    between atoms: C6_11  and  O6_12 
REMARK    8  A    between atoms: O11_14  and  C11_13 
REMARK    9  A    between atoms: C11_13  and  C21_19 
REMARK   10  A    between atoms: C22_21  and  O11_14 
REMARK   11  A    between atoms: O12_16  and  C12_15 
REMARK   12  A    between atoms: C12_15  and  C22_21 
REMARK   13  A    between atoms: C23_23  and  O12_16 
REMARK   14  A    between atoms: C13_17  and  O13_18 
REMARK   15  A    between atoms: C13_17  and  C23_23 
REMARK   16  A    between atoms: C31_25  and  O31_26 
REMARK   17  A    between atoms: C32_27  and  O32_28 
REMARK   18  A    between atoms: C33_29  and  O33_30 
REMARK   19  A    between atoms: C41_31  and  O41_32 
REMARK   20  A    between atoms: C42_33  and  O42_34 
REMARK   21  A    between atoms: C43_35  and  O43_36 
REMARK   22  A    between atoms: C51_37  and  C61_40 
REMARK   23  A    between atoms: C52_38  and  C62_42 
REMARK   24  A    between atoms: C53_39  and  C63_44 
REMARK   25  A    between atoms: C61_40  and  O61_41 
REMARK   26  A    between atoms: C62_42  and  O62_43 
REMARK   27  A    between atoms: C63_44  and  O63_45 
ROOT
ATOM      1  O11 NYT d   1      21.375  43.134  50.518  0.00  0.00    -0.345 OA
ENDROOT
BRANCH   1   2
ATOM      2  C11 NYT d   1      20.227  43.992  50.452  0.00  0.00     0.078 C 
ATOM      3  H12 NYT d   1      20.445  44.947  50.953  0.00  0.00     0.083 H 
ATOM      4  H13 NYT d   1      19.370  43.507  50.943  0.00  0.00     0.083 H 
BRANCH   2   5
ATOM      5  C21 NYT d   1      19.905  44.243  48.971  0.00  0.00     0.217 C 
ATOM      6  O21 NYT d   1      20.996  44.956  48.401  0.00  0.00    -0.341 OA
ATOM      7  C51 NYT d   1      21.476  44.208  47.259  0.00  0.00     0.089 C 
ATOM      8  C41 NYT d   1      20.335  43.282  46.777  0.00  0.00     0.092 C 
ATOM      9  H31 NYT d   1      22.303  43.565  47.594  0.00  0.00     0.090 H 
ATOM     10  C31 NYT d   1      19.699  42.941  48.135  0.00  0.00     0.118 C 
ATOM     11  H25 NYT d   1      19.626  43.844  46.151  0.00  0.00     0.091 H 
ATOM     12  H19 NYT d   1      20.261  42.123  48.610  0.00  0.00     0.095 H 
BRANCH   5  13
ATOM     13  O1  NYT d   1      18.794  45.061  48.765  0.00  0.00    -0.318 OA
BRANCH  13  14
ATOM     14  C1  NYT d   1      18.804  46.372  49.320  0.00  0.00     0.162 C 
ATOM     15  C2  NYT d   1      17.399  46.736  49.744  0.00  0.00     0.110 C 
ATOM     16  C3  NYT d   1      16.493  46.735  48.535  0.00  0.00     0.092 C 
ATOM     17  H2  NYT d   1      17.392  47.732  50.211  0.00  0.00     0.094 H 
ATOM     18  C4  NYT d   1      17.020  47.728  47.511  0.00  0.00     0.090 C 
ATOM     19  H4  NYT d   1      16.483  45.721  48.108  0.00  0.00     0.091 H 
ATOM     20  C5  NYT d   1      18.453  47.361  47.131  0.00  0.00     0.089 C 
ATOM     21  H6  NYT d   1      17.011  48.744  47.933  0.00  0.00     0.091 H 
ATOM     22  O5  NYT d   1      19.290  47.197  48.297  0.00  0.00    -0.348 OA
ATOM     23  H8  NYT d   1      18.414  46.400  46.598  0.00  0.00     0.090 H 
ATOM     24  H1  NYT d   1      19.471  46.422  50.193  0.00  0.00     0.133 H 
BRANCH  15  25
ATOM     25  O2  NYT d   1      16.953  45.748  50.688  0.00  0.00    -0.388 OA
ATOM     26  H3  NYT d   1      16.962  44.892  50.276  0.00  0.00     0.210 HD
ENDBRANCH  15  25
BRANCH  16  27
ATOM     27  O3  NYT d   1      15.159  47.137  48.813  0.00  0.00    -0.390 OA
ATOM     28  H5  NYT d   1      14.777  46.545  49.451  0.00  0.00     0.210 HD
ENDBRANCH  16  27
BRANCH  18  29
ATOM     29  O4  NYT d   1      16.130  47.670  46.369  0.00  0.00    -0.390 OA
ATOM     30  H7  NYT d   1      15.251  47.903  46.642  0.00  0.00     0.210 HD
ENDBRANCH  18  29
BRANCH  20  31
ATOM     31  C6  NYT d   1      19.107  48.386  46.207  0.00  0.00     0.043 C 
ATOM     32  H9  NYT d   1      18.964  48.064  45.165  0.00  0.00     0.078 H 
ATOM     33  H10 NYT d   1      20.183  48.430  46.433  0.00  0.00     0.078 H 
BRANCH  31  34
ATOM     34  O6  NYT d   1      18.555  49.682  46.363  0.00  0.00    -0.398 OA
ATOM     35  H11 NYT d   1      17.627  49.656  46.163  0.00  0.00     0.209 HD
ENDBRANCH  31  34
ENDBRANCH  20  31
ENDBRANCH  13  14
ENDBRANCH   5  13
BRANCH   7  36
ATOM     36  C61 NYT d   1      22.043  45.132  46.188  0.00  0.00     0.043 C 
ATOM     37  H34 NYT d   1      22.319  44.557  45.292  0.00  0.00     0.078 H 
ATOM     38  H35 NYT d   1      22.927  45.664  46.569  0.00  0.00     0.078 H 
BRANCH  36  39
ATOM     39  O61 NYT d   1      21.013  46.044  45.888  0.00  0.00    -0.398 OA
ATOM     40  H36 NYT d   1      20.780  46.526  46.673  0.00  0.00     0.209 HD
ENDBRANCH  36  39
ENDBRANCH   7  36
BRANCH   8  41
ATOM     41  O41 NYT d   1      20.769  42.122  46.011  0.00  0.00    -0.390 OA
ATOM     42  H26 NYT d   1      20.022  41.562  45.836  0.00  0.00     0.210 HD
ENDBRANCH   8  41
BRANCH  10  43
ATOM     43  O31 NYT d   1      18.327  42.490  47.993  0.00  0.00    -0.387 OA
ATOM     44  H20 NYT d   1      18.308  41.696  47.471  0.00  0.00     0.210 HD
ENDBRANCH  10  43
ENDBRANCH   2   5
ENDBRANCH   1   2
BRANCH   1  45
ATOM     45  C22 NYT d   1      22.304  43.404  51.561  0.00  0.00     0.215 C 
ATOM     46  O22 NYT d   1      22.829  44.744  51.531  0.00  0.00    -0.341 OA
ATOM     47  C52 NYT d   1      24.118  44.784  50.919  0.00  0.00     0.089 C 
ATOM     48  C42 NYT d   1      24.361  43.371  50.414  0.00  0.00     0.092 C 
ATOM     49  H32 NYT d   1      24.888  45.079  51.647  0.00  0.00     0.090 H 
ATOM     50  C32 NYT d   1      23.495  42.534  51.326  0.00  0.00     0.118 C 
ATOM     51  H27 NYT d   1      24.044  43.261  49.366  0.00  0.00     0.091 H 
ATOM     52  H21 NYT d   1      24.023  42.285  52.258  0.00  0.00     0.095 H 
BRANCH  45  53
ATOM     53  C12 NYT d   1      21.678  43.182  52.941  0.00  0.00     0.078 C 
ATOM     54  H14 NYT d   1      22.462  43.327  53.699  0.00  0.00     0.083 H 
ATOM     55  H15 NYT d   1      20.887  43.933  53.082  0.00  0.00     0.083 H 
BRANCH  53  56
ATOM     56  O12 NYT d   1      21.104  41.892  53.139  0.00  0.00    -0.345 OA
BRANCH  56  57
ATOM     57  C23 NYT d   1      21.065  41.426  54.492  0.00  0.00     0.215 C 
ATOM     58  O23 NYT d   1      22.326  41.517  55.083  0.00  0.00    -0.341 OA
ATOM     59  C53 NYT d   1      22.968  40.251  55.051  0.00  0.00     0.089 C 
ATOM     60  C43 NYT d   1      22.118  39.383  54.152  0.00  0.00     0.092 C 
ATOM     61  H33 NYT d   1      22.975  39.814  56.061  0.00  0.00     0.090 H 
ATOM     62  C33 NYT d   1      20.770  39.937  54.450  0.00  0.00     0.118 C 
ATOM     63  H29 NYT d   1      22.377  39.538  53.094  0.00  0.00     0.091 H 
ATOM     64  H23 NYT d   1      20.391  39.582  55.420  0.00  0.00     0.095 H 
BRANCH  57  65
ATOM     65  C13 NYT d   1      20.122  42.240  55.355  0.00  0.00     0.071 C 
ATOM     66  H16 NYT d   1      20.157  41.862  56.388  0.00  0.00     0.082 H 
ATOM     67  H17 NYT d   1      20.434  43.295  55.340  0.00  0.00     0.082 H 
BRANCH  65  68
ATOM     68  O13 NYT d   1      18.796  42.136  54.862  0.00  0.00    -0.395 OA
ATOM     69  H18 NYT d   1      18.764  42.463  53.971  0.00  0.00     0.209 HD
ENDBRANCH  65  68
ENDBRANCH  57  65
BRANCH  59  70
ATOM     70  C63 NYT d   1      24.417  40.406  54.596  0.00  0.00     0.043 C 
ATOM     71  H40 NYT d   1      24.441  40.837  53.584  0.00  0.00     0.078 H 
ATOM     72  H41 NYT d   1      24.908  39.422  54.587  0.00  0.00     0.078 H 
BRANCH  70  73
ATOM     73  O63 NYT d   1      25.098  41.269  55.497  0.00  0.00    -0.398 OA
ATOM     74  H42 NYT d   1      26.000  41.368  55.218  0.00  0.00     0.209 HD
ENDBRANCH  70  73
ENDBRANCH  59  70
BRANCH  60  75
ATOM     75  O43 NYT d   1      22.254  37.983  54.450  0.00  0.00    -0.390 OA
ATOM     76  H30 NYT d   1      23.135  37.699  54.236  0.00  0.00     0.210 HD
ENDBRANCH  60  75
BRANCH  62  77
ATOM     77  O33 NYT d   1      19.854  39.578  53.431  0.00  0.00    -0.387 OA
ATOM     78  H24 NYT d   1      19.031  40.030  53.573  0.00  0.00     0.210 HD
ENDBRANCH  62  77
ENDBRANCH  56  57
ENDBRANCH  53  56
ENDBRANCH  45  53
BRANCH  47  79
ATOM     79  C62 NYT d   1      24.113  45.758  49.743  0.00  0.00     0.043 C 
ATOM     80  H37 NYT d   1      23.494  45.350  48.930  0.00  0.00     0.078 H 
ATOM     81  H38 NYT d   1      25.142  45.904  49.383  0.00  0.00     0.078 H 
BRANCH  79  82
ATOM     82  O62 NYT d   1      23.575  47.008  50.170  0.00  0.00    -0.398 OA
ATOM     83  H39 NYT d   1      23.571  47.616  49.440  0.00  0.00     0.209 HD
ENDBRANCH  79  82
ENDBRANCH  47  79
BRANCH  48  84
ATOM     84  O42 NYT d   1      25.726  43.054  50.525  0.00  0.00    -0.390 OA
ATOM     85  H28 NYT d   1      26.013  43.203  51.418  0.00  0.00     0.210 HD
ENDBRANCH  48  84
BRANCH  50  86
ATOM     86  O32 NYT d   1      23.025  41.358  50.691  0.00  0.00    -0.387 OA
ATOM     87  H22 NYT d   1      23.757  40.776  50.524  0.00  0.00     0.210 HD
ENDBRANCH  50  86
ENDBRANCH   1  45
TORSDOF 27
