REMARK WARNING: 32 MAX_TORS EXCEEDED!!!
REMARK  34 active torsions:
REMARK  status: ('A' for Active; 'I' for Inactive)
REMARK    1  A    between atoms: C01_1  and  C02_2 
REMARK    2  A    between atoms: C01_1  and  O56_56 
REMARK    3  A    between atoms: C03_3  and  O55_55 
REMARK    4  A    between atoms: C04_4  and  O54_54 
REMARK    5  A    between atoms: C05_5  and  O53_53 
REMARK    6  A    between atoms: C06_6  and  O08_8 
REMARK    7  A    between atoms: O08_8  and  C09_9 
REMARK    8  A    between atoms: C09_9  and  C18_18 
REMARK    9  A    between atoms: C10_10  and  O17_17 
REMARK   10  A    between atoms: C11_11  and  O16_16 
REMARK   11  A    between atoms: C12_12  and  C14_14 
REMARK   12  A    between atoms: C14_14  and  O15_15 
REMARK   13  A    between atoms: C18_18  and  O19_19 
REMARK   14  A    between atoms: O19_19  and  C20_20 
REMARK   15  A    between atoms: C20_20  and  C29_29 
REMARK   16  A    between atoms: C21_21  and  O28_28 
REMARK   17  A    between atoms: C22_22  and  O27_27 
REMARK   18  A    between atoms: C23_23  and  C25_25 
REMARK   19  A    between atoms: C25_25  and  O26_26 
REMARK   20  A    between atoms: C29_29  and  O30_30 
REMARK   21  A    between atoms: O30_30  and  C31_31 
REMARK   22  A    between atoms: C31_31  and  C40_40 
REMARK   23  A    between atoms: C32_32  and  O39_39 
REMARK   24  A    between atoms: C33_33  and  O38_38 
REMARK   25  A    between atoms: C34_34  and  C36_36 
REMARK   26  A    between atoms: C36_36  and  O37_37 
REMARK   27  A    between atoms: C40_40  and  O41_41 
REMARK   28  A    between atoms: O41_41  and  C42_42 
REMARK   29  A    between atoms: C42_42  and  C51_51 
REMARK   30  A    between atoms: C43_43  and  O50_50 
REMARK   31  A    between atoms: C44_44  and  O49_49 
REMARK   32  A    between atoms: C45_45  and  C47_47 
REMARK   33  A    between atoms: C47_47  and  O48_48 
REMARK   34  A    between atoms: C51_51  and  O52_52 
ROOT
ATOM      1  C20 FNY d   1     150.011 -10.877 130.732  0.00  0.00     0.215 C 
ATOM      2  C21 FNY d   1     149.963 -12.084 131.671  0.00  0.00     0.118 C 
ATOM      3  C22 FNY d   1     149.696 -11.608 132.810  0.00  0.00     0.092 C 
ATOM      4  C23 FNY d   1     148.688 -10.475 132.386  0.00  0.00     0.089 C 
ATOM      5  O24 FNY d   1     149.186  -9.877 131.412  0.00  0.00    -0.341 OA
ATOM      6  H18 FNY d   1     149.148 -12.757 131.364  0.00  0.00     0.095 H 
ATOM      7  H19 FNY d   1     150.593 -11.215 133.312  0.00  0.00     0.091 H 
ATOM      8  H20 FNY d   1     147.761 -10.957 132.042  0.00  0.00     0.090 H 
ENDROOT
BRANCH   1   9
ATOM      9  O19 FNY d   1     151.331 -10.337 130.621  0.00  0.00    -0.345 OA
BRANCH   9  10
ATOM     10  C18 FNY d   1     151.244  -9.118 129.863  0.00  0.00     0.078 C 
ATOM     11  H16 FNY d   1     151.253  -9.375 128.793  0.00  0.00     0.083 H 
ATOM     12  H17 FNY d   1     150.294  -8.622 130.113  0.00  0.00     0.083 H 
BRANCH  10  13
ATOM     13  C09 FNY d   1     152.384  -8.136 130.131  0.00  0.00     0.217 C 
ATOM     14  C10 FNY d   1     152.181  -7.611 131.216  0.00  0.00     0.118 C 
ATOM     15  C11 FNY d   1     150.992  -6.785 130.826  0.00  0.00     0.092 C 
ATOM     16  H8  FNY d   1     153.028  -7.040 131.626  0.00  0.00     0.095 H 
ATOM     17  C12 FNY d   1     151.323  -6.218 129.450  0.00  0.00     0.089 C 
ATOM     18  H9  FNY d   1     150.097  -7.421 130.758  0.00  0.00     0.091 H 
ATOM     19  O13 FNY d   1     152.343  -6.894 129.134  0.00  0.00    -0.341 OA
ATOM     20  H10 FNY d   1     150.501  -6.353 128.731  0.00  0.00     0.090 H 
BRANCH  13  21
ATOM     21  O08 FNY d   1     153.587  -8.865 130.007  0.00  0.00    -0.318 OA
BRANCH  21  22
ATOM     22  C06 FNY d   1     154.713  -8.040 130.451  0.00  0.00     0.162 C 
ATOM     23  C05 FNY d   1     155.534  -8.958 131.276  0.00  0.00     0.110 C 
ATOM     24  C04 FNY d   1     155.508  -8.756 132.728  0.00  0.00     0.092 C 
ATOM     25  H6  FNY d   1     156.580  -8.824 130.963  0.00  0.00     0.094 H 
ATOM     26  C03 FNY d   1     154.890  -7.505 133.193  0.00  0.00     0.090 C 
ATOM     27  H5  FNY d   1     156.564  -8.666 133.023  0.00  0.00     0.091 H 
ATOM     28  C02 FNY d   1     155.160  -6.444 132.206  0.00  0.00     0.089 C 
ATOM     29  H4  FNY d   1     155.214  -7.243 134.211  0.00  0.00     0.091 H 
ATOM     30  O07 FNY d   1     154.306  -6.768 131.080  0.00  0.00    -0.348 OA
ATOM     31  H3  FNY d   1     156.219  -6.432 131.910  0.00  0.00     0.090 H 
ATOM     32  H7  FNY d   1     155.307  -7.763 129.568  0.00  0.00     0.133 H 
BRANCH  23  33
ATOM     33  O53 FNY d   1     155.135 -10.280 130.949  0.00  0.00    -0.388 OA
ATOM     34  H49 FNY d   1     154.212 -10.388 131.144  0.00  0.00     0.210 HD
ENDBRANCH  23  33
BRANCH  24  35
ATOM     35  O54 FNY d   1     155.041  -9.887 133.373  0.00  0.00    -0.390 OA
ATOM     36  H50 FNY d   1     155.032  -9.735 134.311  0.00  0.00     0.210 HD
ENDBRANCH  24  35
BRANCH  26  37
ATOM     37  O55 FNY d   1     153.542  -7.631 133.070  0.00  0.00    -0.390 OA
ATOM     38  H51 FNY d   1     153.321  -7.788 132.159  0.00  0.00     0.210 HD
ENDBRANCH  26  37
BRANCH  28  39
ATOM     39  C01 FNY d   1     154.762  -5.091 132.801  0.00  0.00     0.043 C 
ATOM     40  H1  FNY d   1     155.519  -4.765 133.530  0.00  0.00     0.078 H 
ATOM     41  H2  FNY d   1     153.785  -5.175 133.300  0.00  0.00     0.078 H 
BRANCH  39  42
ATOM     42  O56 FNY d   1     154.681  -4.141 131.721  0.00  0.00    -0.398 OA
ATOM     43  H52 FNY d   1     154.029  -4.431 131.094  0.00  0.00     0.209 HD
ENDBRANCH  39  42
ENDBRANCH  28  39
ENDBRANCH  21  22
ENDBRANCH  13  21
BRANCH  14  44
ATOM     44  O17 FNY d   1     151.739  -8.612 132.062  0.00  0.00    -0.387 OA
ATOM     45  H15 FNY d   1     151.098  -9.148 131.609  0.00  0.00     0.210 HD
ENDBRANCH  14  44
BRANCH  15  46
ATOM     46  O16 FNY d   1     150.760  -5.790 131.768  0.00  0.00    -0.390 OA
ATOM     47  H14 FNY d   1     150.559  -6.190 132.606  0.00  0.00     0.210 HD
ENDBRANCH  15  46
BRANCH  17  48
ATOM     48  C14 FNY d   1     151.669  -4.736 129.598  0.00  0.00     0.043 C 
ATOM     49  H11 FNY d   1     152.647  -4.653 130.094  0.00  0.00     0.078 H 
ATOM     50  H12 FNY d   1     150.900  -4.258 130.222  0.00  0.00     0.078 H 
BRANCH  48  51
ATOM     51  O15 FNY d   1     151.733  -4.051 128.361  0.00  0.00    -0.398 OA
ATOM     52  H13 FNY d   1     150.891  -4.107 127.925  0.00  0.00     0.209 HD
ENDBRANCH  48  51
ENDBRANCH  17  48
ENDBRANCH  10  13
ENDBRANCH   9  10
ENDBRANCH   1   9
BRANCH   1  53
ATOM     53  C29 FNY d   1     149.536 -11.069 129.384  0.00  0.00     0.078 C 
ATOM     54  H26 FNY d   1     150.250 -11.715 128.852  0.00  0.00     0.083 H 
ATOM     55  H27 FNY d   1     149.489 -10.088 128.888  0.00  0.00     0.083 H 
BRANCH  53  56
ATOM     56  O30 FNY d   1     148.239 -11.674 129.318  0.00  0.00    -0.345 OA
BRANCH  56  57
ATOM     57  C31 FNY d   1     147.258 -11.238 128.338  0.00  0.00     0.215 C 
ATOM     58  C32 FNY d   1     145.892 -12.006 128.659  0.00  0.00     0.118 C 
ATOM     59  C33 FNY d   1     145.242 -11.088 129.668  0.00  0.00     0.092 C 
ATOM     60  H28 FNY d   1     145.271 -12.121 127.758  0.00  0.00     0.095 H 
ATOM     61  C34 FNY d   1     145.491  -9.919 129.117  0.00  0.00     0.089 C 
ATOM     62  H29 FNY d   1     145.768 -11.167 130.631  0.00  0.00     0.091 H 
ATOM     63  O35 FNY d   1     146.936 -10.019 128.417  0.00  0.00    -0.341 OA
ATOM     64  H30 FNY d   1     144.722  -9.682 128.367  0.00  0.00     0.090 H 
BRANCH  58  65
ATOM     65  O39 FNY d   1     146.145 -13.227 129.205  0.00  0.00    -0.387 OA
ATOM     66  H35 FNY d   1     145.329 -13.619 129.494  0.00  0.00     0.210 HD
ENDBRANCH  58  65
BRANCH  59  67
ATOM     67  O38 FNY d   1     143.892 -11.326 129.923  0.00  0.00    -0.390 OA
ATOM     68  H34 FNY d   1     143.406 -11.293 129.107  0.00  0.00     0.210 HD
ENDBRANCH  59  67
BRANCH  61  69
ATOM     69  C36 FNY d   1     145.513  -8.839 130.187  0.00  0.00     0.043 C 
ATOM     70  H31 FNY d   1     146.156  -9.142 131.026  0.00  0.00     0.078 H 
ATOM     71  H32 FNY d   1     144.496  -8.643 130.556  0.00  0.00     0.078 H 
BRANCH  69  72
ATOM     72  O37 FNY d   1     146.023  -7.723 129.571  0.00  0.00    -0.398 OA
ATOM     73  H33 FNY d   1     146.061  -7.008 130.195  0.00  0.00     0.209 HD
ENDBRANCH  69  72
ENDBRANCH  61  69
BRANCH  57  74
ATOM     74  C40 FNY d   1     147.756 -11.492 126.915  0.00  0.00     0.078 C 
ATOM     75  H36 FNY d   1     148.619 -10.842 126.709  0.00  0.00     0.083 H 
ATOM     76  H37 FNY d   1     146.950 -11.268 126.201  0.00  0.00     0.083 H 
BRANCH  74  77
ATOM     77  O41 FNY d   1     148.153 -12.876 126.772  0.00  0.00    -0.345 OA
BRANCH  77  78
ATOM     78  C42 FNY d   1     148.013 -13.398 125.403  0.00  0.00     0.215 C 
ATOM     79  C43 FNY d   1     148.040 -14.993 125.438  0.00  0.00     0.118 C 
ATOM     80  C44 FNY d   1     146.637 -15.308 125.796  0.00  0.00     0.092 C 
ATOM     81  H38 FNY d   1     148.263 -15.389 124.437  0.00  0.00     0.095 H 
ATOM     82  C45 FNY d   1     145.967 -14.466 124.977  0.00  0.00     0.089 C 
ATOM     83  H39 FNY d   1     146.411 -15.114 126.855  0.00  0.00     0.091 H 
ATOM     84  O46 FNY d   1     146.897 -13.169 124.868  0.00  0.00    -0.341 OA
ATOM     85  H40 FNY d   1     145.858 -14.931 123.986  0.00  0.00     0.090 H 
BRANCH  79  86
ATOM     86  O50 FNY d   1     148.995 -15.494 126.306  0.00  0.00    -0.387 OA
ATOM     87  H45 FNY d   1     149.860 -15.246 126.001  0.00  0.00     0.210 HD
ENDBRANCH  79  86
BRANCH  80  88
ATOM     88  O49 FNY d   1     146.416 -16.644 125.487  0.00  0.00    -0.390 OA
ATOM     89  H44 FNY d   1     145.489 -16.837 125.565  0.00  0.00     0.210 HD
ENDBRANCH  80  88
BRANCH  82  90
ATOM     90  C47 FNY d   1     144.605 -14.113 125.477  0.00  0.00     0.043 C 
ATOM     91  H41 FNY d   1     144.698 -13.648 126.469  0.00  0.00     0.078 H 
ATOM     92  H42 FNY d   1     144.005 -15.031 125.557  0.00  0.00     0.078 H 
BRANCH  90  93
ATOM     93  O48 FNY d   1     143.963 -13.227 124.621  0.00  0.00    -0.398 OA
ATOM     94  H43 FNY d   1     143.102 -13.023 124.966  0.00  0.00     0.209 HD
ENDBRANCH  90  93
ENDBRANCH  82  90
BRANCH  78  95
ATOM     95  C51 FNY d   1     149.084 -12.823 124.526  0.00  0.00     0.071 C 
ATOM     96  H46 FNY d   1     148.956 -11.731 124.506  0.00  0.00     0.082 H 
ATOM     97  H47 FNY d   1     148.946 -13.227 123.512  0.00  0.00     0.082 H 
BRANCH  95  98
ATOM     98  O52 FNY d   1     150.381 -13.094 124.921  0.00  0.00    -0.395 OA
ATOM     99  H48 FNY d   1     150.517 -14.034 124.933  0.00  0.00     0.209 HD
ENDBRANCH  95  98
ENDBRANCH  78  95
ENDBRANCH  77  78
ENDBRANCH  74  77
ENDBRANCH  57  74
ENDBRANCH  56  57
ENDBRANCH  53  56
ENDBRANCH   1  53
BRANCH   2 100
ATOM    100  O28 FNY d   1     151.128 -12.792 131.625  0.00  0.00    -0.387 OA
ATOM    101  H25 FNY d   1     151.077 -13.523 132.230  0.00  0.00     0.210 HD
ENDBRANCH   2 100
BRANCH   3 102
ATOM    102  O27 FNY d   1     149.038 -12.517 133.645  0.00  0.00    -0.390 OA
ATOM    103  H24 FNY d   1     149.643 -13.203 133.904  0.00  0.00     0.210 HD
ENDBRANCH   3 102
BRANCH   4 104
ATOM    104  C25 FNY d   1     148.304  -9.574 133.540  0.00  0.00     0.043 C 
ATOM    105  H21 FNY d   1     148.102 -10.177 134.438  0.00  0.00     0.078 H 
ATOM    106  H22 FNY d   1     147.409  -8.990 133.281  0.00  0.00     0.078 H 
BRANCH 104 107
ATOM    107  O26 FNY d   1     149.380  -8.721 133.770  0.00  0.00    -0.398 OA
ATOM    108  H23 FNY d   1     149.550  -8.210 132.988  0.00  0.00     0.209 HD
ENDBRANCH 104 107
ENDBRANCH   4 104
TORSDOF 34
