REMARK  1 active torsions:
REMARK  status: ('A' for Active; 'I' for Inactive)
REMARK    1  A    between atoms: C1_1  and  C2_4 
ROOT
ATOM      1  C1  VGL d   1      12.910  -6.407 -35.101  0.00  0.00     0.150 A 
ATOM      2  C3  VGL d   1      10.663  -6.424 -35.567  0.00  0.00     0.020 A 
ATOM      3  C4  VGL d   1      10.382  -6.352 -34.201  0.00  0.00     0.019 A 
ATOM      4  C6  VGL d   1      12.632  -6.335 -33.735  0.00  0.00     0.036 A 
ATOM      5  N2  VGL d   1      11.920  -6.445 -35.982  0.00  0.00    -0.251 NA
ATOM      6  N5  VGL d   1      11.373  -6.313 -33.319  0.00  0.00    -0.269 NA
ATOM      7  H1  VGL d   1       9.853  -6.463 -36.286  0.00  0.00     0.117 H 
ATOM      8  H2  VGL d   1       9.353  -6.328 -33.861  0.00  0.00     0.117 H 
ATOM      9  H3  VGL d   1      13.443  -6.297 -33.016  0.00  0.00     0.118 H 
ENDROOT
BRANCH   1  10
ATOM     10  C2  VGL d   1      14.359  -6.435 -35.563  0.00  0.00     0.230 C 
ATOM     11  O1  VGL d   1      14.652  -6.417 -36.802  0.00  0.00    -0.643 OA
ATOM     12  O2  VGL d   1      15.251  -6.502 -34.679  0.00  0.00    -0.643 OA
ENDBRANCH   1  10
TORSDOF 1
