REMARK  1 active torsions:
REMARK  status: ('A' for Active; 'I' for Inactive)
REMARK    1  A    between atoms: C1_1  and  C2_4 
ROOT
ATOM      1  C1  6PC d   1      37.495   0.498   5.051  0.00  0.00     0.132 A 
ATOM      2  C3  6PC d   1      37.157  -1.826   4.941  0.00  0.00     0.003 A 
ATOM      3  C4  6PC d   1      35.779  -1.631   4.998  0.00  0.00    -0.066 A 
ATOM      4  C5  6PC d   1      35.291  -0.373   5.084  0.00  0.00    -0.079 A 
ATOM      5  C6  6PC d   1      36.114   0.701   5.110  0.00  0.00    -0.048 A 
ATOM      6  N2  6PC d   1      37.986  -0.756   4.966  0.00  0.00    -0.254 NA
ATOM      7  H1  6PC d   1      37.563  -2.829   4.877  0.00  0.00     0.114 H 
ATOM      8  H2  6PC d   1      35.105  -2.479   4.974  0.00  0.00     0.085 H 
ATOM      9  H3  6PC d   1      34.219  -0.222   5.133  0.00  0.00     0.083 H 
ATOM     10  H4  6PC d   1      35.708   1.704   5.176  0.00  0.00     0.087 H 
ENDROOT
BRANCH   1  11
ATOM     11  C2  6PC d   1      38.412   1.703   5.099  0.00  0.00     0.228 C 
ATOM     12  O1  6PC d   1      39.693   1.573   5.106  0.00  0.00    -0.643 OA
ATOM     13  O2  6PC d   1      37.843   2.833   5.188  0.00  0.00    -0.643 OA
ENDBRANCH   1  11
TORSDOF 1
