REMARK  6 active torsions:
REMARK  status: ('A' for Active; 'I' for Inactive)
REMARK    1  A    between atoms: C16_2  and  S19_22 
REMARK    2  A    between atoms: C8_14  and  C13_3 
REMARK    3  A    between atoms: C10_6  and  C24_17 
REMARK    4  A    between atoms: C10_6  and  C23_18 
REMARK    5  A    between atoms: C7_15  and  C3_12 
REMARK    6  A    between atoms: S19_22  and  N22_24 
ROOT
ATOM      1  C11 949 d   1       8.449   3.111  16.371  0.00  0.00     0.197 A 
ATOM      2  C10 949 d   1       7.157   3.301  15.634  0.00  0.00     0.125 A 
ATOM      3  C8  949 d   1       8.874   2.324  14.294  0.00  0.00     0.095 A 
ATOM      4  C7  949 d   1       9.457   2.552  15.477  0.00  0.00     0.058 A 
ATOM      5  O12 949 d   1       8.618   3.398  17.550  0.00  0.00    -0.289 OA
ATOM      6  O9  949 d   1       7.479   2.706  14.364  0.00  0.00    -0.331 OA
ENDROOT
BRANCH   3   7
ATOM      7  C13 949 d   1       9.449   1.917  12.963  0.00  0.00    -0.002 A 
ATOM      8  C14 949 d   1       8.569   1.496  11.964  0.00  0.00    -0.069 A 
ATOM      9  C15 949 d   1       9.046   1.153  10.698  0.00  0.00    -0.059 A 
ATOM     10  H7  949 d   1       7.507   1.435  12.173  0.00  0.00     0.085 H 
ATOM     11  C16 949 d   1      10.404   1.251  10.417  0.00  0.00     0.079 A 
ATOM     12  H1  949 d   1       8.358   0.810   9.934  0.00  0.00     0.085 H 
ATOM     13  C17 949 d   1      11.276   1.701  11.408  0.00  0.00    -0.059 A 
ATOM     14  C18 949 d   1      10.802   2.037  12.673  0.00  0.00    -0.069 A 
ATOM     15  H2  949 d   1      12.334   1.790  11.191  0.00  0.00     0.085 H 
ATOM     16  H8  949 d   1      11.489   2.393  13.432  0.00  0.00     0.085 H 
BRANCH  11  17
ATOM     17  S19 949 d   1      10.975   0.904   8.955  0.00  0.00     0.256 S 
ATOM     18  O21 949 d   1      10.529   1.958   8.095  0.00  0.00    -0.201 OA
ATOM     19  O20 949 d   1      12.414   0.884   8.992  0.00  0.00    -0.201 OA
BRANCH  17  20
ATOM     20  N22 949 d   1      10.433  -0.496   8.405  0.00  0.00    -0.324 N 
ATOM     21  H15 949 d   1      10.717  -0.823   7.504  0.00  0.00     0.169 HD
ATOM     22  H16 949 d   1       9.809  -1.044   8.962  0.00  0.00     0.169 HD
ENDBRANCH  17  20
ENDBRANCH  11  17
ENDBRANCH   3   7
BRANCH   4  23
ATOM     23  C3  949 d   1      10.893   2.387  15.883  0.00  0.00    -0.017 A 
ATOM     24  C2  949 d   1      11.615   3.510  16.293  0.00  0.00    -0.035 A 
ATOM     25  C1  949 d   1      12.947   3.389  16.678  0.00  0.00     0.117 A 
ATOM     26  H3  949 d   1      11.135   4.482  16.311  0.00  0.00     0.089 H 
ATOM     27  C6  949 d   1      13.555   2.137  16.645  0.00  0.00    -0.046 A 
ATOM     28  F25 949 d   1      13.644   4.479  17.079  0.00  0.00    -0.206 F 
ATOM     29  C5  949 d   1      12.837   1.015  16.235  0.00  0.00    -0.079 A 
ATOM     30  H4  949 d   1      14.593   2.034  16.940  0.00  0.00     0.088 H 
ATOM     31  C4  949 d   1      11.506   1.142  15.847  0.00  0.00    -0.072 A 
ATOM     32  H5  949 d   1      13.315   0.042  16.218  0.00  0.00     0.083 H 
ATOM     33  H6  949 d   1      10.950   0.272  15.518  0.00  0.00     0.084 H 
ENDBRANCH   4  23
BRANCH   2  34
ATOM     34  C24 949 d   1       6.024   2.547  16.316  0.00  0.00    -0.041 C 
ATOM     35  H9  949 d   1       5.090   2.703  15.756  0.00  0.00     0.032 H 
ATOM     36  H10 949 d   1       5.902   2.920  17.344  0.00  0.00     0.032 H 
ATOM     37  H11 949 d   1       6.261   1.473  16.341  0.00  0.00     0.032 H 
ENDBRANCH   2  34
BRANCH   2  38
ATOM     38  C23 949 d   1       6.851   4.789  15.516  0.00  0.00    -0.041 C 
ATOM     39  H12 949 d   1       7.691   5.298  15.020  0.00  0.00     0.032 H 
ATOM     40  H13 949 d   1       6.707   5.214  16.520  0.00  0.00     0.032 H 
ATOM     41  H14 949 d   1       5.935   4.929  14.923  0.00  0.00     0.032 H 
ENDBRANCH   2  38
TORSDOF 6
