REMARK  10 active torsions:
REMARK  status: ('A' for Active; 'I' for Inactive)
REMARK    1  A    between atoms: PG_1  and  O3B_5 
REMARK    2  A    between atoms: O3B_5  and  PB_6 
REMARK    3  A    between atoms: PB_6  and  O3A_9 
REMARK    4  A    between atoms: O3A_9  and  PA_10 
REMARK    5  A    between atoms: PA_10  and  O5'_13 
REMARK    6  A    between atoms: O5'_13  and  C5'_14 
REMARK    7  A    between atoms: C5'_14  and  C4'_15 
REMARK    8  A    between atoms: C3'_17  and  O3'_18 
REMARK    9  A    between atoms: C2'_19  and  O2'_20 
REMARK   10  A    between atoms: C1'_21  and  N9_22 
ROOT
ATOM      1  C4' GTP d   1       7.564 -10.311  34.504  0.00  0.00     0.089 C 
ATOM      2  O4' GTP d   1       8.713  -9.767  35.123  0.00  0.00    -0.353 OA
ATOM      3  C3' GTP d   1       6.366  -9.539  35.025  0.00  0.00     0.091 C 
ATOM      4  C2' GTP d   1       6.943  -8.286  35.628  0.00  0.00     0.105 C 
ATOM      5  C1' GTP d   1       8.345  -8.733  36.005  0.00  0.00     0.139 C 
ATOM      6  H3  GTP d   1       7.457 -11.382  34.733  0.00  0.00     0.090 H 
ATOM      7  H4  GTP d   1       5.639  -9.322  34.228  0.00  0.00     0.091 H 
ATOM      8  H6  GTP d   1       6.975  -7.468  34.893  0.00  0.00     0.093 H 
ATOM      9  H8  GTP d   1       8.356  -9.104  37.040  0.00  0.00     0.122 H 
ENDROOT
BRANCH   1  10
ATOM     10  C5' GTP d   1       7.743 -10.103  33.010  0.00  0.00     0.058 C 
ATOM     11  H1  GTP d   1       8.763 -10.387  32.710  0.00  0.00     0.079 H 
ATOM     12  H2  GTP d   1       7.015 -10.713  32.456  0.00  0.00     0.079 H 
BRANCH  10  13
ATOM     13  O5' GTP d   1       7.526  -8.732  32.745  0.00  0.00    -0.287 OA
BRANCH  13  14
ATOM     14  PA  GTP d   1       7.251  -8.191  31.257  0.00  0.00     0.417 P 
ATOM     15  O1A GTP d   1       5.873  -8.638  30.821  0.00  0.00    -0.624 OA
ATOM     16  O2A GTP d   1       7.404  -6.693  31.257  0.00  0.00    -0.624 OA
BRANCH  14  17
ATOM     17  O3A GTP d   1       8.451  -8.837  30.415  0.00  0.00    -0.180 OA
BRANCH  17  18
ATOM     18  PB  GTP d   1       8.473  -9.140  28.845  0.00  0.00     0.428 P 
ATOM     19  O1B GTP d   1       7.609  -8.136  28.119  0.00  0.00    -0.624 OA
ATOM     20  O2B GTP d   1       9.880  -9.224  28.308  0.00  0.00    -0.624 OA
BRANCH  18  21
ATOM     21  O3B GTP d   1       7.834 -10.621  28.830  0.00  0.00    -0.173 OA
BRANCH  21  22
ATOM     22  PG  GTP d   1       7.136 -11.334  27.565  0.00  0.00     0.431 P 
ATOM     23  O1G GTP d   1       6.515 -10.330  26.612  0.00  0.00    -0.616 OA
ATOM     24  O2G GTP d   1       8.193 -12.136  26.852  0.00  0.00    -0.616 OA
ATOM     25  O3G GTP d   1       6.072 -12.257  28.119  0.00  0.00    -0.616 OA
ENDBRANCH  21  22
ENDBRANCH  18  21
ENDBRANCH  17  18
ENDBRANCH  14  17
ENDBRANCH  13  14
ENDBRANCH  10  13
ENDBRANCH   1  10
BRANCH   3  26
ATOM     26  O3' GTP d   1       5.777 -10.268  36.077  0.00  0.00    -0.390 OA
ATOM     27  H5  GTP d   1       5.026  -9.791  36.409  0.00  0.00     0.210 HD
ENDBRANCH   3  26
BRANCH   5  28
ATOM     28  N9  GTP d   1       9.272  -7.599  35.882  0.00  0.00    -0.295 N 
ATOM     29  C8  GTP d   1       9.460  -6.744  34.817  0.00  0.00     0.071 A 
ATOM     30  N7  GTP d   1      10.415  -5.841  35.173  0.00  0.00    -0.234 NA
ATOM     31  H9  GTP d   1       8.938  -6.784  33.862  0.00  0.00     0.144 H 
ATOM     32  C5  GTP d   1      10.838  -6.130  36.442  0.00  0.00     0.171 A 
ATOM     33  C6  GTP d   1      11.764  -5.560  37.305  0.00  0.00     0.292 A 
ATOM     34  C4  GTP d   1      10.110  -7.228  36.877  0.00  0.00     0.161 A 
ATOM     35  O6  GTP d   1      12.459  -4.580  37.031  0.00  0.00    -0.265 OA
ATOM     36  N1  GTP d   1      11.948  -6.109  38.543  0.00  0.00    -0.154 N 
ATOM     37  C2  GTP d   1      11.224  -7.197  38.952  0.00  0.00     0.680 A 
ATOM     38  H10 GTP d   1      12.624  -5.709  39.162  0.00  0.00     0.187 HD
ATOM     39  N2  GTP d   1      11.450  -7.673  40.180  0.00  0.00    -0.234 N 
ATOM     40  N3  GTP d   1      10.298  -7.763  38.113  0.00  0.00    -0.174 N 
ATOM     41  H11 GTP d   1      10.924  -8.490  40.521  0.00  0.00     0.174 HD
ATOM     42  H12 GTP d   1      12.151  -7.223  40.786  0.00  0.00     0.174 HD
ATOM     43  H13 GTP d   1       9.752  -8.582  38.415  0.00  0.00     0.186 HD
ENDBRANCH   5  28
BRANCH   4  44
ATOM     44  O2' GTP d   1       6.194  -7.876  36.744  0.00  0.00    -0.388 OA
ATOM     45  H7  GTP d   1       6.203  -8.563  37.400  0.00  0.00     0.210 HD
ENDBRANCH   4  44
TORSDOF 10
