REMARK  6 active torsions:
REMARK  status: ('A' for Active; 'I' for Inactive)
REMARK    1  A    between atoms: N_1  and  CA_2 
REMARK    2  A    between atoms: CA_2  and  C_3 
REMARK    3  A    between atoms: CA_2  and  CB_5 
REMARK    4  A    between atoms: CB_5  and  CG_6 
REMARK    5  A    between atoms: CG_6  and  CD_7 
REMARK    6  A    between atoms: CD_7  and  NE_8 
REMARK       I    between atoms: NE_8  and  CZ_9 
REMARK       I    between atoms: CZ_9  and  NH1_10 
ROOT
ATOM      1  CG  ARG d   1     -24.896  11.876 -38.740  0.00  0.00    -0.047 C 
ATOM      2  H7  ARG d   1     -24.623  11.335 -37.822  0.00  0.00     0.035 H 
ATOM      3  H8  ARG d   1     -25.478  11.213 -39.397  0.00  0.00     0.035 H 
ENDROOT
BRANCH   1   4
ATOM      4  CB  ARG d   1     -23.614  12.278 -39.467  0.00  0.00    -0.028 C 
ATOM      5  H5  ARG d   1     -23.166  13.119 -38.918  0.00  0.00     0.036 H 
ATOM      6  H6  ARG d   1     -22.929  11.418 -39.442  0.00  0.00     0.036 H 
BRANCH   4   7
ATOM      7  CA  ARG d   1     -23.776  12.708 -40.938  0.00  0.00     0.182 C 
ATOM      8  H4  ARG d   1     -24.106  13.757 -40.951  0.00  0.00     0.101 H 
BRANCH   7   9
ATOM      9  N   ARG d   1     -24.813  11.886 -41.637  0.00  0.00    -0.065 N 
ATOM     10  H1  ARG d   1     -25.687  11.954 -41.139  0.00  0.00     0.275 HD
ATOM     11  H2  ARG d   1     -24.516  10.923 -41.665  0.00  0.00     0.275 HD
ATOM     12  H3  ARG d   1     -24.935  12.227 -42.578  0.00  0.00     0.275 HD
ENDBRANCH   7   9
BRANCH   7  13
ATOM     13  C   ARG d   1     -22.442  12.617 -41.680  0.00  0.00     0.204 C 
ATOM     14  O   ARG d   1     -22.300  11.830 -42.618  0.00  0.00    -0.646 OA
ATOM     15  OXT ARG d   1     -21.479  13.323 -41.377  0.00  0.00    -0.646 OA
ENDBRANCH   7  13
ENDBRANCH   4   7
ENDBRANCH   1   4
BRANCH   1  16
ATOM     16  CD  ARG d   1     -25.765  13.065 -38.360  0.00  0.00     0.009 C 
ATOM     17  H9  ARG d   1     -25.644  13.852 -39.119  0.00  0.00     0.064 H 
ATOM     18  H10 ARG d   1     -25.439  13.447 -37.381  0.00  0.00     0.064 H 
BRANCH  16  19
ATOM     19  NE  ARG d   1     -27.179  12.697 -38.279  0.00  0.00    -0.227 N 
ATOM     20  CZ  ARG d   1     -27.792  12.209 -37.199  0.00  0.00     0.665 C 
ATOM     21  NH1 ARG d   1     -27.130  12.008 -36.063  0.00  0.00    -0.235 N 
ATOM     22  NH2 ARG d   1     -29.084  11.913 -37.259  0.00  0.00    -0.235 N 
ATOM     23  H12 ARG d   1     -27.622  11.630 -35.240  0.00  0.00     0.174 HD
ATOM     24  H13 ARG d   1     -26.126  12.230 -36.006  0.00  0.00     0.174 HD
ATOM     25  H14 ARG d   1     -29.607  12.064 -38.133  0.00  0.00     0.174 HD
ATOM     26  H15 ARG d   1     -29.564  11.532 -36.431  0.00  0.00     0.174 HD
ATOM     27  H11 ARG d   1     -27.749  12.825 -39.127  0.00  0.00     0.177 HD
ENDBRANCH  16  19
ENDBRANCH   1  16
TORSDOF 6
