REMARK  6 active torsions:
REMARK  status: ('A' for Active; 'I' for Inactive)
REMARK    1  A    between atoms: C2_2  and  C7_18 
REMARK    2  A    between atoms: C9_20  and  C13_5 
REMARK    3  A    between atoms: C20_11  and  S23_24 
REMARK    4  A    between atoms: S23_24  and  C25_14 
REMARK    5  A    between atoms: N8_19  and  C5_16 
REMARK    6  A    between atoms: N8_19  and  C9_20 
ROOT
ATOM      1  C1  73K d   1     -31.087  75.157   5.623  0.00  0.00     0.035 A 
ATOM      2  C2  73K d   1     -31.734  75.468   6.767  0.00  0.00     0.041 A 
ATOM      3  C3  73K d   1     -32.133  74.320   7.604  0.00  0.00     0.186 A 
ATOM      4  C12 73K d   1     -32.293  72.384   8.202  0.00  0.00     0.111 A 
ATOM      5  N4  73K d   1     -31.805  73.114   7.232  0.00  0.00    -0.119 N 
ATOM      6  C5  73K d   1     -31.115  72.827   6.124  0.00  0.00     0.709 A 
ATOM      7  N6  73K d   1     -30.775  73.773   5.341  0.00  0.00    -0.076 NA
ATOM      8  N10 73K d   1     -32.784  74.388   8.705  0.00  0.00    -0.129 NA
ATOM      9  N11 73K d   1     -32.887  73.032   9.120  0.00  0.00    -0.142 NA
ATOM     10  H1  73K d   1     -30.803  75.939   4.921  0.00  0.00     0.117 H 
ATOM     11  H2  73K d   1     -32.197  71.299   8.221  0.00  0.00     0.148 H 
ENDROOT
BRANCH   2  12
ATOM     12  C7  73K d   1     -32.068  76.902   7.093  0.00  0.00    -0.021 A 
ATOM     13  C18 73K d   1     -33.413  77.263   7.355  0.00  0.00    -0.071 A 
ATOM     14  C19 73K d   1     -33.746  78.605   7.582  0.00  0.00    -0.061 A 
ATOM     15  H6  73K d   1     -34.184  76.501   7.380  0.00  0.00     0.084 H 
ATOM     16  C20 73K d   1     -32.735  79.591   7.492  0.00  0.00     0.058 A 
ATOM     17  H7  73K d   1     -34.765  78.884   7.824  0.00  0.00     0.085 H 
ATOM     18  C21 73K d   1     -31.396  79.239   7.206  0.00  0.00    -0.061 A 
ATOM     19  C22 73K d   1     -31.055  77.894   7.017  0.00  0.00    -0.071 A 
ATOM     20  H8  73K d   1     -30.636  80.008   7.133  0.00  0.00     0.085 H 
ATOM     21  H9  73K d   1     -30.028  77.613   6.815  0.00  0.00     0.084 H 
BRANCH  16  22
ATOM     22  S23 73K d   1     -33.148  81.308   7.723  0.00  0.00     0.171 S 
ATOM     23  O24 73K d   1     -33.998  81.471   8.902  0.00  0.00    -0.223 OA
ATOM     24  O26 73K d   1     -31.909  82.075   7.588  0.00  0.00    -0.223 OA
BRANCH  22  25
ATOM     25  C25 73K d   1     -34.213  81.575   6.282  0.00  0.00     0.020 C 
ATOM     26  H10 73K d   1     -34.564  82.617   6.274  0.00  0.00     0.049 H 
ATOM     27  H11 73K d   1     -35.078  80.897   6.334  0.00  0.00     0.049 H 
ATOM     28  H12 73K d   1     -33.644  81.373   5.363  0.00  0.00     0.049 H 
ENDBRANCH  22  25
ENDBRANCH  16  22
ENDBRANCH   2  12
BRANCH   6  29
ATOM     29  N8  73K d   1     -30.772  71.600   5.835  0.00  0.00    -0.218 N 
ATOM     30  H13 73K d   1     -31.208  70.835   6.370  0.00  0.00     0.178 HD
BRANCH  29  31
ATOM     31  C9  73K d   1     -29.810  71.253   4.801  0.00  0.00     0.053 C 
ATOM     32  H14 73K d   1     -30.126  70.323   4.305  0.00  0.00     0.075 H 
ATOM     33  H15 73K d   1     -29.761  72.065   4.061  0.00  0.00     0.075 H 
BRANCH  31  34
ATOM     34  C13 73K d   1     -28.466  71.056   5.409  0.00  0.00     0.070 A 
ATOM     35  C14 73K d   1     -28.123  70.213   6.376  0.00  0.00    -0.051 A 
ATOM     36  C15 73K d   1     -26.688  70.456   6.529  0.00  0.00    -0.059 A 
ATOM     37  H3  73K d   1     -28.754  69.513   6.921  0.00  0.00     0.087 H 
ATOM     38  C16 73K d   1     -26.457  71.399   5.624  0.00  0.00     0.019 A 
ATOM     39  H4  73K d   1     -25.986  69.982   7.213  0.00  0.00     0.086 H 
ATOM     40  O17 73K d   1     -27.511  71.818   4.902  0.00  0.00    -0.325 OA
ATOM     41  H5  73K d   1     -25.461  71.814   5.473  0.00  0.00     0.123 H 
ENDBRANCH  31  34
ENDBRANCH  29  31
ENDBRANCH   6  29
TORSDOF 6
