REMARK  11 active torsions:
REMARK  status: ('A' for Active; 'I' for Inactive)
REMARK    1  A    between atoms: N_1  and  CA_2 
REMARK    2  A    between atoms: CA_2  and  C_3 
REMARK    3  A    between atoms: CA_2  and  CB_6 
REMARK    4  A    between atoms: CB_6  and  CG_7 
REMARK    5  A    between atoms: CG_7  and  SD_8 
REMARK    6  A    between atoms: SD_8  and  CE_9 
REMARK    7  A    between atoms: SD_8  and  C5'_10 
REMARK    8  A    between atoms: C5'_10  and  C4'_11 
REMARK    9  A    between atoms: C3'_13  and  O3'_14 
REMARK   10  A    between atoms: C2'_15  and  O2'_16 
REMARK   11  A    between atoms: C1'_17  and  N9_18 
ROOT
ATOM      1  C4' SAM d   1     -19.529  22.882  27.067  0.00  0.00     0.076 C 
ATOM      2  O4' SAM d   1     -19.816  21.754  27.905  0.00  0.00    -0.355 OA
ATOM      3  C3' SAM d   1     -20.874  23.541  26.797  0.00  0.00     0.090 C 
ATOM      4  C2' SAM d   1     -21.875  22.419  26.923  0.00  0.00     0.105 C 
ATOM      5  C1' SAM d   1     -21.229  21.511  27.943  0.00  0.00     0.139 C 
ATOM      6  H14 SAM d   1     -19.124  22.520  26.110  0.00  0.00     0.088 H 
ATOM      7  H15 SAM d   1     -21.073  24.305  27.563  0.00  0.00     0.091 H 
ATOM      8  H17 SAM d   1     -22.865  22.777  27.241  0.00  0.00     0.093 H 
ATOM      9  H19 SAM d   1     -21.443  20.460  27.696  0.00  0.00     0.122 H 
ENDROOT
BRANCH   1  10
ATOM     10  C5' SAM d   1     -18.464  23.810  27.686  0.00  0.00    -0.005 C 
ATOM     11  H12 SAM d   1     -17.664  23.168  28.082  0.00  0.00     0.051 H 
ATOM     12  H13 SAM d   1     -18.064  24.434  26.873  0.00  0.00     0.051 H 
BRANCH  10  13
ATOM     13  SD  SAM d   1     -18.927  24.838  28.916  0.00  0.00    -0.221 SA
BRANCH  13  14
ATOM     14  CG  SAM d   1     -19.513  26.248  28.206  0.00  0.00    -0.029 C 
ATOM     15  H7  SAM d   1     -18.761  27.035  28.363  0.00  0.00     0.047 H 
ATOM     16  H8  SAM d   1     -19.622  26.055  27.129  0.00  0.00     0.047 H 
BRANCH  14  17
ATOM     17  CB  SAM d   1     -20.859  26.785  28.719  0.00  0.00    -0.022 C 
ATOM     18  H5  SAM d   1     -21.656  26.082  28.435  0.00  0.00     0.037 H 
ATOM     19  H6  SAM d   1     -20.816  26.867  29.815  0.00  0.00     0.037 H 
BRANCH  17  20
ATOM     20  CA  SAM d   1     -21.180  28.172  28.125  0.00  0.00     0.183 C 
ATOM     21  H4  SAM d   1     -20.937  28.155  27.052  0.00  0.00     0.101 H 
BRANCH  20  22
ATOM     22  N   SAM d   1     -20.338  29.172  28.776  0.00  0.00    -0.065 N 
ATOM     23  H1  SAM d   1     -19.369  28.917  28.668  0.00  0.00     0.275 HD
ATOM     24  H2  SAM d   1     -20.567  29.217  29.757  0.00  0.00     0.275 HD
ATOM     25  H3  SAM d   1     -20.497  30.073  28.352  0.00  0.00     0.275 HD
ENDBRANCH  20  22
BRANCH  20  26
ATOM     26  C   SAM d   1     -22.645  28.520  28.265  0.00  0.00     0.204 C 
ATOM     27  O   SAM d   1     -23.462  28.068  27.430  0.00  0.00    -0.646 OA
ATOM     28  OXT SAM d   1     -23.019  29.258  29.202  0.00  0.00    -0.646 OA
ENDBRANCH  20  26
ENDBRANCH  17  20
ENDBRANCH  14  17
ENDBRANCH  13  14
BRANCH  13  29
ATOM     29  CE  SAM d   1     -17.543  25.350  29.660  0.00  0.00    -0.042 C 
ATOM     30  H9  SAM d   1     -17.063  24.500  30.167  0.00  0.00     0.040 H 
ATOM     31  H10 SAM d   1     -17.790  26.126  30.399  0.00  0.00     0.040 H 
ATOM     32  H11 SAM d   1     -16.855  25.765  28.909  0.00  0.00     0.040 H 
ENDBRANCH  13  29
ENDBRANCH  10  13
ENDBRANCH   1  10
BRANCH   3  33
ATOM     33  O3' SAM d   1     -20.930  24.170  25.516  0.00  0.00    -0.390 OA
ATOM     34  H16 SAM d   1     -21.786  24.565  25.395  0.00  0.00     0.210 HD
ENDBRANCH   3  33
BRANCH   5  35
ATOM     35  N9  SAM d   1     -21.725  21.814  29.312  0.00  0.00    -0.294 N 
ATOM     36  C8  SAM d   1     -21.033  22.401  30.311  0.00  0.00     0.071 A 
ATOM     37  N7  SAM d   1     -21.782  22.491  31.442  0.00  0.00    -0.236 NA
ATOM     38  H20 SAM d   1     -20.008  22.756  30.223  0.00  0.00     0.144 H 
ATOM     39  C5  SAM d   1     -22.980  21.937  31.167  0.00  0.00     0.149 A 
ATOM     40  C6  SAM d   1     -24.238  21.695  31.902  0.00  0.00     0.155 A 
ATOM     41  C4  SAM d   1     -22.927  21.490  29.769  0.00  0.00     0.167 A 
ATOM     42  N6  SAM d   1     -24.382  22.070  33.197  0.00  0.00    -0.382 N 
ATOM     43  N1  SAM d   1     -25.243  21.094  31.232  0.00  0.00    -0.222 NA
ATOM     44  H21 SAM d   1     -25.269  21.891  33.690  0.00  0.00     0.157 HD
ATOM     45  H22 SAM d   1     -23.605  22.534  33.688  0.00  0.00     0.157 HD
ATOM     46  C2  SAM d   1     -25.115  20.703  29.955  0.00  0.00     0.091 A 
ATOM     47  N3  SAM d   1     -24.008  20.892  29.224  0.00  0.00    -0.222 NA
ATOM     48  H23 SAM d   1     -25.956  20.205  29.487  0.00  0.00     0.146 H 
ENDBRANCH   5  35
BRANCH   4  49
ATOM     49  O2' SAM d   1     -21.954  21.701  25.685  0.00  0.00    -0.388 OA
ATOM     50  H18 SAM d   1     -22.585  20.996  25.769  0.00  0.00     0.210 HD
ENDBRANCH   4  49
TORSDOF 11
