REMARK  5 active torsions:
REMARK  status: ('A' for Active; 'I' for Inactive)
REMARK       I    between atoms: C10_1  and  N12_2 
REMARK    1  A    between atoms: C09_16  and  C10_1 
REMARK    2  A    between atoms: N12_2  and  C13_3 
REMARK    3  A    between atoms: O02_9  and  C01_8 
REMARK    4  A    between atoms: C03_10  and  O02_9 
REMARK    5  A    between atoms: C03_10  and  C05_12 
ROOT
ATOM      1  C22 5XS d   1     -17.607  -9.677  21.883  0.00  0.00    -0.052 A 
ATOM      2  C05 5XS d   1     -18.488 -10.464  21.177  0.00  0.00     0.040 A 
ATOM      3  C06 5XS d   1     -18.478 -11.848  21.308  0.00  0.00    -0.067 A 
ATOM      4  C07 5XS d   1     -17.556 -12.456  22.149  0.00  0.00    -0.081 A 
ATOM      5  C08 5XS d   1     -16.666 -11.674  22.850  0.00  0.00    -0.068 A 
ATOM      6  C09 5XS d   1     -16.700 -10.281  22.737  0.00  0.00     0.033 A 
ATOM      7  H3  5XS d   1     -17.623  -8.599  21.772  0.00  0.00     0.086 H 
ATOM      8  H7  5XS d   1     -19.189 -12.451  20.755  0.00  0.00     0.085 H 
ATOM      9  H8  5XS d   1     -17.537 -13.535  22.253  0.00  0.00     0.083 H 
ATOM     10  H9  5XS d   1     -15.932 -12.143  23.496  0.00  0.00     0.085 H 
ENDROOT
BRANCH   6  11
ATOM     11  C10 5XS d   1     -15.667  -9.448  23.491  0.00  0.00     0.257 C 
ATOM     12  N12 5XS d   1     -14.869 -10.168  24.492  0.00  0.00    -0.305 N 
ATOM     13  H1  5XS d   1     -15.103 -11.122  24.679  0.00  0.00     0.170 HD
ATOM     14  O11 5XS d   1     -15.498  -8.306  23.265  0.00  0.00    -0.267 OA
BRANCH  12  15
ATOM     15  C13 5XS d   1     -13.736  -9.570  25.245  0.00  0.00     0.162 A 
ATOM     16  C21 5XS d   1     -12.756  -8.771  24.516  0.00  0.00     0.128 A 
ATOM     17  C17 5XS d   1     -11.673  -8.277  25.198  0.00  0.00     0.182 A 
ATOM     18  N20 5XS d   1     -12.646  -8.331  23.247  0.00  0.00    -0.345 N 
ATOM     19  N16 5XS d   1     -11.541  -8.585  26.526  0.00  0.00    -0.220 NA
ATOM     20  N18 5XS d   1     -10.940  -7.558  24.320  0.00  0.00    -0.222 NA
ATOM     21  C15 5XS d   1     -12.455  -9.356  27.158  0.00  0.00     0.091 A 
ATOM     22  N14 5XS d   1     -13.528  -9.852  26.538  0.00  0.00    -0.222 NA
ATOM     23  H2  5XS d   1     -12.311  -9.580  28.209  0.00  0.00     0.146 H 
ATOM     24  C19 5XS d   1     -11.533  -7.595  23.143  0.00  0.00     0.067 A 
ATOM     25  H10 5XS d   1     -11.176  -7.108  22.237  0.00  0.00     0.143 H 
ATOM     26  H11 5XS d   1     -13.309  -8.528  22.484  0.00  0.00     0.167 HD
ENDBRANCH  12  15
ENDBRANCH   6  11
BRANCH   2  27
ATOM     27  C03 5XS d   1     -19.473  -9.786  20.276  0.00  0.00     0.292 C 
ATOM     28  O04 5XS d   1     -20.262 -10.431  19.631  0.00  0.00    -0.259 OA
BRANCH  27  29
ATOM     29  O02 5XS d   1     -19.468  -8.338  20.200  0.00  0.00    -0.323 OA
BRANCH  29  30
ATOM     30  C01 5XS d   1     -20.300  -7.863  19.144  0.00  0.00     0.013 C 
ATOM     31  H4  5XS d   1     -20.270  -6.764  19.119  0.00  0.00     0.067 H 
ATOM     32  H5  5XS d   1     -21.334  -8.197  19.313  0.00  0.00     0.067 H 
ATOM     33  H6  5XS d   1     -19.938  -8.261  18.185  0.00  0.00     0.067 H 
ENDBRANCH  29  30
ENDBRANCH  27  29
ENDBRANCH   2  27
TORSDOF 5
