REMARK  11 active torsions:
REMARK  status: ('A' for Active; 'I' for Inactive)
REMARK       I    between atoms: N_29  and  C1_1 
REMARK    1  A    between atoms: C1_1  and  C_31 
REMARK    2  A    between atoms: C2_2  and  N_29 
REMARK    3  A    between atoms: C7_5  and  N1_27 
REMARK    4  A    between atoms: N1_27  and  C8_6 
REMARK    5  A    between atoms: C9_7  and  C10_8 
REMARK    6  A    between atoms: N1_27  and  C9_7 
REMARK    7  A    between atoms: C10_8  and  N2_28 
REMARK    8  A    between atoms: N3_23  and  C11_9 
REMARK    9  A    between atoms: C13_11  and  N8_20 
REMARK   10  A    between atoms: N8_20  and  C18_21 
REMARK   11  A    between atoms: N3_23  and  C4_24 
ROOT
ATOM      1  N6  5Y3 d   1      22.303  69.903  35.205  0.00  0.00    -0.175 NA
ATOM      2  C11 5Y3 d   1      19.280  67.890  33.343  0.00  0.00     0.134 A 
ATOM      3  C12 5Y3 d   1      20.115  68.644  32.513  0.00  0.00     0.005 A 
ATOM      4  C13 5Y3 d   1      21.193  69.360  33.039  0.00  0.00     0.131 A 
ATOM      5  C14 5Y3 d   1      20.516  68.463  35.177  0.00  0.00     0.177 A 
ATOM      6  C15 5Y3 d   1      20.933  68.584  36.498  0.00  0.00     0.111 C 
ATOM      7  C16 5Y3 d   1      22.089  69.379  36.438  0.00  0.00     0.046 C 
ATOM      8  N7  5Y3 d   1      19.903  67.446  38.550  0.00  0.00    -0.191 NA
ATOM      9  C17 5Y3 d   1      20.352  67.962  37.640  0.00  0.00     0.105 C 
ATOM     10  N4  5Y3 d   1      21.359  69.271  34.422  0.00  0.00    -0.198 N 
ATOM     11  N5  5Y3 d   1      19.456  67.809  34.673  0.00  0.00    -0.210 NA
ATOM     12  H9  5Y3 d   1      19.922  68.674  31.442  0.00  0.00     0.095 H 
ATOM     13  H10 5Y3 d   1      22.744  69.556  37.290  0.00  0.00     0.120 H 
ENDROOT
BRANCH   4  14
ATOM     14  N8  5Y3 d   1      22.111  70.063  32.251  0.00  0.00    -0.364 N 
ATOM     15  H13 5Y3 d   1      22.905  70.524  32.718  0.00  0.00     0.162 HD
BRANCH  14  16
ATOM     16  C18 5Y3 d   1      21.999  70.175  30.799  0.00  0.00     0.044 A 
ATOM     17  C19 5Y3 d   1      22.704  71.277  30.119  0.00  0.00    -0.079 A 
ATOM     18  C20 5Y3 d   1      21.225  71.297  30.240  0.00  0.00    -0.079 A 
ATOM     19  H11 5Y3 d   1      23.630  71.738  29.778  0.00  0.00     0.080 H 
ATOM     20  H12 5Y3 d   1      20.269  71.784  30.053  0.00  0.00     0.080 H 
ATOM     21  H14 5Y3 d   1      21.949  69.176  30.341  0.00  0.00     0.085 H 
ENDBRANCH  14  16
ENDBRANCH   4  14
BRANCH   2  22
ATOM     22  N3  5Y3 d   1      18.270  67.176  32.721  0.00  0.00    -0.341 N 
ATOM     23  H15 5Y3 d   1      18.202  67.345  31.707  0.00  0.00     0.167 HD
BRANCH  22  24
ATOM     24  C4  5Y3 d   1      17.314  66.258  33.215  0.00  0.00     0.035 C 
ATOM     25  C3  5Y3 d   1      17.287  65.858  34.551  0.00  0.00    -0.029 C 
ATOM     26  C2  5Y3 d   1      16.305  64.984  35.011  0.00  0.00     0.063 C 
ATOM     27  H1  5Y3 d   1      18.038  66.231  35.238  0.00  0.00     0.090 H 
ATOM     28  C7  5Y3 d   1      15.421  64.410  34.083  0.00  0.00     0.057 C 
ATOM     29  C6  5Y3 d   1      15.485  64.773  32.735  0.00  0.00    -0.053 C 
ATOM     30  C5  5Y3 d   1      16.459  65.655  32.300  0.00  0.00    -0.055 C 
ATOM     31  H17 5Y3 d   1      14.771  64.364  32.029  0.00  0.00     0.087 H 
ATOM     32  H16 5Y3 d   1      16.555  65.876  31.243  0.00  0.00     0.087 H 
BRANCH  26  33
ATOM     33  N   5Y3 d   1      16.085  64.669  36.384  0.00  0.00    -0.325 N 
ATOM     34  C1  5Y3 d   1      16.431  65.287  37.545  0.00  0.00     0.218 C 
ATOM     35  O   5Y3 d   1      16.482  64.701  38.619  0.00  0.00    -0.274 OA
ATOM     36  H21 5Y3 d   1      15.572  63.822  36.521  0.00  0.00     0.169 HD
BRANCH  34  37
ATOM     37  C   5Y3 d   1      16.534  66.784  37.465  0.00  0.00    -0.003 C 
ATOM     38  H22 5Y3 d   1      16.817  67.185  38.449  0.00  0.00     0.040 H 
ATOM     39  H23 5Y3 d   1      15.562  67.203  37.164  0.00  0.00     0.040 H 
ATOM     40  H24 5Y3 d   1      17.298  67.060  36.723  0.00  0.00     0.040 H 
ENDBRANCH  34  37
ENDBRANCH  26  33
BRANCH  28  41
ATOM     41  N1  5Y3 d   1      14.485  63.360  34.531  0.00  0.00    -0.382 N 
BRANCH  41  42
ATOM     42  C8  5Y3 d   1      13.193  63.767  35.047  0.00  0.00    -0.018 C 
ATOM     43  H2  5Y3 d   1      12.617  62.876  35.336  0.00  0.00     0.056 H 
ATOM     44  H3  5Y3 d   1      12.646  64.321  34.270  0.00  0.00     0.056 H 
ATOM     45  H4  5Y3 d   1      13.336  64.413  35.926  0.00  0.00     0.056 H 
ENDBRANCH  41  42
BRANCH  41  46
ATOM     46  C9  5Y3 d   1      14.489  62.064  33.720  0.00  0.00     0.017 C 
ATOM     47  H5  5Y3 d   1      13.699  61.404  34.107  0.00  0.00     0.066 H 
ATOM     48  H6  5Y3 d   1      14.281  62.306  32.667  0.00  0.00     0.066 H 
BRANCH  46  49
ATOM     49  C10 5Y3 d   1      15.819  61.331  33.798  0.00  0.00     0.094 C 
ATOM     50  H7  5Y3 d   1      16.632  62.053  33.630  0.00  0.00     0.077 H 
ATOM     51  H8  5Y3 d   1      15.845  60.560  33.014  0.00  0.00     0.077 H 
BRANCH  49  52
ATOM     52  N2  5Y3 d   1      16.020  60.683  35.112  0.00  0.00    -0.078 N 
ATOM     53  H18 5Y3 d   1      16.910  60.210  35.121  0.00  0.00     0.274 HD
ATOM     54  H19 5Y3 d   1      15.283  60.014  35.273  0.00  0.00     0.274 HD
ATOM     55  H20 5Y3 d   1      16.004  61.383  35.838  0.00  0.00     0.274 HD
ENDBRANCH  49  52
ENDBRANCH  46  49
ENDBRANCH  41  46
ENDBRANCH  28  41
ENDBRANCH  22  24
ENDBRANCH   2  22
TORSDOF 11
