REMARK  13 active torsions:
REMARK  status: ('A' for Active; 'I' for Inactive)
REMARK       I    between atoms: N_29  and  C1_1 
REMARK    1  A    between atoms: C1_1  and  C_31 
REMARK    2  A    between atoms: C2_2  and  N_29 
REMARK    3  A    between atoms: C7_5  and  N1_32 
REMARK    4  A    between atoms: N1_32  and  C8_6 
REMARK    5  A    between atoms: C9_7  and  C10_8 
REMARK    6  A    between atoms: N1_32  and  C9_7 
REMARK    7  A    between atoms: C10_8  and  N2_33 
REMARK    8  A    between atoms: N2_33  and  C11_9 
REMARK    9  A    between atoms: N2_33  and  C12_10 
REMARK   10  A    between atoms: N3_25  and  C13_11 
REMARK   11  A    between atoms: C15_13  and  N8_23 
REMARK   12  A    between atoms: N8_23  and  C20_16 
REMARK   13  A    between atoms: N3_25  and  C4_26 
ROOT
ATOM      1  N6  5Y4 d   1      11.978  -8.757  28.693  0.00  0.00    -0.175 NA
ATOM      2  C13 5Y4 d   1      10.614  -6.035  31.359  0.00  0.00     0.134 C 
ATOM      3  C14 5Y4 d   1      10.664  -7.351  31.815  0.00  0.00     0.005 C 
ATOM      4  C15 5Y4 d   1      11.018  -8.391  30.955  0.00  0.00     0.131 C 
ATOM      5  C16 5Y4 d   1      11.456  -6.637  29.314  0.00  0.00     0.177 A 
ATOM      6  C19 5Y4 d   1      12.096  -5.425  27.157  0.00  0.00     0.105 C 
ATOM      7  N7  5Y4 d   1      12.267  -4.560  26.425  0.00  0.00    -0.191 NA
ATOM      8  C17 5Y4 d   1      11.940  -6.577  27.998  0.00  0.00     0.111 A 
ATOM      9  C18 5Y4 d   1      12.246  -7.908  27.684  0.00  0.00     0.046 A 
ATOM     10  N4  5Y4 d   1      11.484  -7.977  29.688  0.00  0.00    -0.198 N 
ATOM     11  N5  5Y4 d   1      11.012  -5.668  30.129  0.00  0.00    -0.210 NA
ATOM     12  H15 5Y4 d   1      10.424  -7.570  32.854  0.00  0.00     0.095 H 
ATOM     13  H19 5Y4 d   1      12.657  -8.222  26.726  0.00  0.00     0.120 H 
ENDROOT
BRANCH   4  14
ATOM     14  N8  5Y4 d   1      11.097  -9.740  31.299  0.00  0.00    -0.364 N 
ATOM     15  H20 5Y4 d   1      11.372 -10.411  30.567  0.00  0.00     0.162 HD
BRANCH  14  16
ATOM     16  C20 5Y4 d   1      10.814 -10.260  32.634  0.00  0.00     0.044 A 
ATOM     17  C21 5Y4 d   1       9.412 -10.477  33.030  0.00  0.00    -0.079 A 
ATOM     18  C22 5Y4 d   1      10.289 -11.632  32.748  0.00  0.00    -0.079 A 
ATOM     19  H17 5Y4 d   1       8.441 -10.078  33.319  0.00  0.00     0.080 H 
ATOM     20  H18 5Y4 d   1      10.438 -12.708  32.677  0.00  0.00     0.080 H 
ATOM     21  H16 5Y4 d   1      11.547  -9.875  33.358  0.00  0.00     0.085 H 
ENDBRANCH  14  16
ENDBRANCH   4  14
BRANCH   2  22
ATOM     22  N3  5Y4 d   1      10.251  -5.081  32.294  0.00  0.00    -0.341 N 
ATOM     23  H21 5Y4 d   1      10.000  -5.472  33.213  0.00  0.00     0.167 HD
BRANCH  22  24
ATOM     24  C4  5Y4 d   1      10.160  -3.676  32.226  0.00  0.00     0.035 A 
ATOM     25  C3  5Y4 d   1      10.555  -2.978  31.093  0.00  0.00    -0.029 A 
ATOM     26  C2  5Y4 d   1      10.488  -1.587  31.059  0.00  0.00     0.063 A 
ATOM     27  H1  5Y4 d   1      10.919  -3.520  30.227  0.00  0.00     0.090 H 
ATOM     28  C7  5Y4 d   1       9.996  -0.892  32.174  0.00  0.00     0.057 A 
ATOM     29  C6  5Y4 d   1       9.626  -1.601  33.317  0.00  0.00    -0.053 A 
ATOM     30  C5  5Y4 d   1       9.677  -2.982  33.329  0.00  0.00    -0.055 A 
ATOM     31  H23 5Y4 d   1       9.297  -1.066  34.200  0.00  0.00     0.087 H 
ATOM     32  H22 5Y4 d   1       9.339  -3.527  34.203  0.00  0.00     0.087 H 
BRANCH  26  33
ATOM     33  N   5Y4 d   1      10.950  -0.837  29.941  0.00  0.00    -0.325 N 
ATOM     34  C1  5Y4 d   1      10.959  -1.089  28.604  0.00  0.00     0.218 C 
ATOM     35  O   5Y4 d   1      11.528  -0.365  27.800  0.00  0.00    -0.274 OA
ATOM     36  H24 5Y4 d   1      11.345   0.048  30.186  0.00  0.00     0.169 HD
BRANCH  34  37
ATOM     37  C   5Y4 d   1      10.070  -2.216  28.155  0.00  0.00    -0.003 C 
ATOM     38  H25 5Y4 d   1      10.151  -2.335  27.064  0.00  0.00     0.040 H 
ATOM     39  H26 5Y4 d   1       9.027  -1.989  28.422  0.00  0.00     0.040 H 
ATOM     40  H27 5Y4 d   1      10.381  -3.148  28.650  0.00  0.00     0.040 H 
ENDBRANCH  34  37
ENDBRANCH  26  33
BRANCH  28  41
ATOM     41  N1  5Y4 d   1       9.971   0.577  32.187  0.00  0.00    -0.382 N 
BRANCH  41  42
ATOM     42  C8  5Y4 d   1       8.992   1.251  31.337  0.00  0.00    -0.018 C 
ATOM     43  H2  5Y4 d   1       9.094   2.340  31.453  0.00  0.00     0.056 H 
ATOM     44  H3  5Y4 d   1       7.978   0.944  31.632  0.00  0.00     0.056 H 
ATOM     45  H4  5Y4 d   1       9.168   0.976  30.287  0.00  0.00     0.056 H 
ENDBRANCH  41  42
BRANCH  41  46
ATOM     46  C9  5Y4 d   1      10.175   1.188  33.552  0.00  0.00     0.017 C 
ATOM     47  H5  5Y4 d   1       9.191   1.328  34.024  0.00  0.00     0.066 H 
ATOM     48  H6  5Y4 d   1      10.778   0.496  34.159  0.00  0.00     0.066 H 
BRANCH  46  49
ATOM     49  C10 5Y4 d   1      10.904   2.571  33.502  0.00  0.00     0.097 C 
ATOM     50  H7  5Y4 d   1      11.166   2.846  34.534  0.00  0.00     0.078 H 
ATOM     51  H8  5Y4 d   1      10.194   3.307  33.096  0.00  0.00     0.078 H 
BRANCH  49  52
ATOM     52  N2  5Y4 d   1      12.132   2.647  32.696  0.00  0.00    -0.077 N 
ATOM     53  H28 5Y4 d   1      11.981   2.134  31.841  0.00  0.00     0.279 HD
BRANCH  52  54
ATOM     54  C11 5Y4 d   1      12.440   4.035  32.357  0.00  0.00     0.066 C 
ATOM     55  H9  5Y4 d   1      13.360   4.070  31.755  0.00  0.00     0.068 H 
ATOM     56  H10 5Y4 d   1      12.584   4.615  33.281  0.00  0.00     0.068 H 
ATOM     57  H11 5Y4 d   1      11.608   4.465  31.780  0.00  0.00     0.068 H 
ENDBRANCH  52  54
BRANCH  52  58
ATOM     58  C12 5Y4 d   1      13.262   2.049  33.400  0.00  0.00     0.066 C 
ATOM     59  H12 5Y4 d   1      13.025   1.005  33.653  0.00  0.00     0.068 H 
ATOM     60  H13 5Y4 d   1      13.460   2.614  34.323  0.00  0.00     0.068 H 
ATOM     61  H14 5Y4 d   1      14.152   2.077  32.755  0.00  0.00     0.068 H 
ENDBRANCH  52  58
ENDBRANCH  49  52
ENDBRANCH  46  49
ENDBRANCH  41  46
ENDBRANCH  28  41
ENDBRANCH  22  24
ENDBRANCH   2  22
TORSDOF 13
