REMARK  13 active torsions:
REMARK  status: ('A' for Active; 'I' for Inactive)
REMARK    1  A    between atoms: C1_7  and  S1_1 
REMARK    2  A    between atoms: S1_1  and  C1'_8 
REMARK    3  A    between atoms: C2_2  and  O2_22 
REMARK    4  A    between atoms: N7_24  and  C3_3 
REMARK    5  A    between atoms: C5_4  and  C6_5 
REMARK    6  A    between atoms: C6_5  and  O6_13 
REMARK    7  A    between atoms: C5'_11  and  C6'_12 
REMARK    8  A    between atoms: C6'_12  and  O6'_14 
REMARK    9  A    between atoms: C4_15  and  O4_17 
REMARK   10  A    between atoms: C4'_16  and  O4'_18 
REMARK   11  A    between atoms: C3'_19  and  O3'_20 
REMARK   12  A    between atoms: C2'_21  and  O2'_23 
REMARK   13  A    between atoms: C12_29  and  C10_27 
ROOT
ATOM      1  C2  TGZ d   1      -0.234  -9.215   1.320  0.00  0.00     0.093 C 
ATOM      2  C3  TGZ d   1       0.556  -7.950   1.642  0.00  0.00     0.086 C 
ATOM      3  C5  TGZ d   1      -1.452  -6.603   1.056  0.00  0.00     0.087 C 
ATOM      4  C1  TGZ d   1      -1.735  -8.944   1.428  0.00  0.00     0.112 C 
ATOM      5  O5  TGZ d   1      -2.117  -7.804   0.659  0.00  0.00    -0.363 OA
ATOM      6  C4  TGZ d   1       0.042  -6.771   0.828  0.00  0.00     0.086 C 
ATOM      7  H1  TGZ d   1      -0.000  -9.537   0.294  0.00  0.00     0.091 H 
ATOM      8  H2  TGZ d   1       0.422  -7.726   2.711  0.00  0.00     0.083 H 
ATOM      9  H3  TGZ d   1      -1.632  -6.424   2.126  0.00  0.00     0.090 H 
ATOM     10  H6  TGZ d   1      -1.985  -8.783   2.487  0.00  0.00     0.104 H 
ATOM     11  H13 TGZ d   1       0.558  -5.856   1.153  0.00  0.00     0.090 H 
ENDROOT
BRANCH   4  12
ATOM     12  S1  TGZ d   1      -2.703 -10.271   0.781  0.00  0.00    -0.100 SA
BRANCH  12  13
ATOM     13  C1' TGZ d   1      -4.373  -9.782   1.048  0.00  0.00     0.112 C 
ATOM     14  O5' TGZ d   1      -4.862 -10.433   2.226  0.00  0.00    -0.363 OA
ATOM     15  C5' TGZ d   1      -6.151  -9.932   2.584  0.00  0.00     0.087 C 
ATOM     16  C4' TGZ d   1      -7.153 -10.295   1.494  0.00  0.00     0.089 C 
ATOM     17  H8  TGZ d   1      -6.102  -8.836   2.671  0.00  0.00     0.090 H 
ATOM     18  C3' TGZ d   1      -6.701  -9.675   0.175  0.00  0.00     0.090 C 
ATOM     19  H14 TGZ d   1      -8.147  -9.906   1.759  0.00  0.00     0.091 H 
ATOM     20  C2' TGZ d   1      -5.277 -10.103  -0.141  0.00  0.00     0.096 C 
ATOM     21  H17 TGZ d   1      -6.721  -8.581   0.289  0.00  0.00     0.091 H 
ATOM     22  H19 TGZ d   1      -5.238 -11.181  -0.357  0.00  0.00     0.092 H 
ATOM     23  H7  TGZ d   1      -4.394  -8.694   1.209  0.00  0.00     0.104 H 
BRANCH  15  24
ATOM     24  C6' TGZ d   1      -6.563 -10.513   3.930  0.00  0.00     0.043 C 
ATOM     25  H9  TGZ d   1      -6.485 -11.610   3.899  0.00  0.00     0.078 H 
ATOM     26  H10 TGZ d   1      -7.601 -10.226   4.155  0.00  0.00     0.078 H 
BRANCH  24  27
ATOM     27  O6' TGZ d   1      -5.690  -9.996   4.942  0.00  0.00    -0.398 OA
ATOM     28  H12 TGZ d   1      -4.795 -10.245   4.744  0.00  0.00     0.209 HD
ENDBRANCH  24  27
ENDBRANCH  15  24
BRANCH  16  29
ATOM     29  O4' TGZ d   1      -7.213 -11.721   1.378  0.00  0.00    -0.390 OA
ATOM     30  H16 TGZ d   1      -6.354 -12.056   1.150  0.00  0.00     0.210 HD
ENDBRANCH  16  29
BRANCH  18  31
ATOM     31  O3' TGZ d   1      -7.564 -10.025  -0.916  0.00  0.00    -0.390 OA
ATOM     32  H18 TGZ d   1      -8.444  -9.718  -0.733  0.00  0.00     0.210 HD
ENDBRANCH  18  31
BRANCH  20  33
ATOM     33  O2' TGZ d   1      -4.869  -9.351  -1.287  0.00  0.00    -0.389 OA
ATOM     34  H21 TGZ d   1      -4.908  -8.423  -1.086  0.00  0.00     0.210 HD
ENDBRANCH  20  33
ENDBRANCH  12  13
ENDBRANCH   4  12
BRANCH   1  35
ATOM     35  O2  TGZ d   1       0.145 -10.250   2.240  0.00  0.00    -0.390 OA
ATOM     36  H20 TGZ d   1       1.078 -10.412   2.166  0.00  0.00     0.210 HD
ENDBRANCH   1  35
BRANCH   2  37
ATOM     37  N7  TGZ d   1       2.008  -8.121   1.376  0.00  0.00    -0.273 N 
ATOM     38  N8  TGZ d   1       2.820  -7.943   2.495  0.00  0.00     0.005 NA
ATOM     39  N9  TGZ d   1       4.130  -8.140   2.030  0.00  0.00    -0.158 NA
ATOM     40  C10 TGZ d   1       4.076  -8.417   0.707  0.00  0.00     0.101 A 
ATOM     41  C11 TGZ d   1       2.745  -8.400   0.290  0.00  0.00     0.025 A 
ATOM     42  H22 TGZ d   1       2.376  -8.578  -0.719  0.00  0.00     0.117 H 
BRANCH  40  43
ATOM     43  C12 TGZ d   1       5.275  -8.678  -0.140  0.00  0.00    -0.002 A 
ATOM     44  C13 TGZ d   1       5.189  -8.572  -1.519  0.00  0.00    -0.034 A 
ATOM     45  C14 TGZ d   1       6.315  -8.811  -2.299  0.00  0.00     0.117 A 
ATOM     46  H23 TGZ d   1       4.249  -8.304  -1.987  0.00  0.00     0.089 H 
ATOM     47  C15 TGZ d   1       7.524  -9.141  -1.711  0.00  0.00    -0.046 A 
ATOM     48  F18 TGZ d   1       6.241  -8.728  -3.638  0.00  0.00    -0.206 F 
ATOM     49  C16 TGZ d   1       7.619  -9.235  -0.324  0.00  0.00    -0.079 A 
ATOM     50  H24 TGZ d   1       8.395  -9.326  -2.329  0.00  0.00     0.088 H 
ATOM     51  C17 TGZ d   1       6.492  -9.000   0.458  0.00  0.00    -0.070 A 
ATOM     52  H25 TGZ d   1       8.564  -9.489   0.142  0.00  0.00     0.083 H 
ATOM     53  H26 TGZ d   1       6.561  -9.068   1.538  0.00  0.00     0.084 H 
ENDBRANCH  40  43
ENDBRANCH   2  37
BRANCH   3  54
ATOM     54  C6  TGZ d   1      -2.009  -5.426   0.259  0.00  0.00     0.043 C 
ATOM     55  H4  TGZ d   1      -1.861  -5.610  -0.815  0.00  0.00     0.078 H 
ATOM     56  H5  TGZ d   1      -1.480  -4.506   0.549  0.00  0.00     0.078 H 
BRANCH  54  57
ATOM     57  O6  TGZ d   1      -3.406  -5.275   0.527  0.00  0.00    -0.398 OA
ATOM     58  H11 TGZ d   1      -3.863  -6.069   0.276  0.00  0.00     0.209 HD
ENDBRANCH  54  57
ENDBRANCH   3  54
BRANCH   6  59
ATOM     59  O4  TGZ d   1       0.317  -6.993  -0.566  0.00  0.00    -0.391 OA
ATOM     60  H15 TGZ d   1       1.253  -7.096  -0.691  0.00  0.00     0.210 HD
ENDBRANCH   6  59
TORSDOF 13
