REMARK  11 active torsions:
REMARK  status: ('A' for Active; 'I' for Inactive)
REMARK    1  A    between atoms: NAA_1  and  CAB_2 
REMARK    2  A    between atoms: CAB_2  and  CAC_3 
REMARK    3  A    between atoms: CAD_4  and  CAG_5 
REMARK    4  A    between atoms: CAD_4  and  CAU_21 
REMARK    5  A    between atoms: CAF_6  and  CAE_7 
REMARK    6  A    between atoms: CAH_8  and  CAI_9 
REMARK    7  A    between atoms: CAH_8  and  CAT_20 
REMARK    8  A    between atoms: CAJ_10  and  CAK_11 
REMARK    9  A    between atoms: CAL_12  and  CAS_19 
REMARK   10  A    between atoms: CAP_16  and  CAQ_17 
REMARK   11  A    between atoms: CAP_16  and  CAR_18 
ROOT
ATOM      1  CAI RNE d   1       2.645  -2.198  12.259  0.00  0.00    -0.077 C 
ATOM      2  CAJ RNE d   1       3.672  -2.192  13.125  0.00  0.00    -0.075 C 
ATOM      3  H10 RNE d   1       1.869  -2.954  12.364  0.00  0.00     0.084 H 
ATOM      4  H11 RNE d   1       4.468  -1.461  12.988  0.00  0.00     0.084 H 
ENDROOT
BRANCH   1   5
ATOM      5  CAH RNE d   1       2.537  -1.177  11.136  0.00  0.00    -0.062 C 
ATOM      6  CAE RNE d   1       1.434  -1.308  10.365  0.00  0.00    -0.077 C 
ATOM      7  H9  RNE d   1       0.724  -2.092  10.623  0.00  0.00     0.084 H 
BRANCH   6   8
ATOM      8  CAF RNE d   1       1.117  -0.429   9.156  0.00  0.00    -0.082 C 
ATOM      9  CAG RNE d   1      -0.077  -0.649   8.535  0.00  0.00    -0.077 C 
ATOM     10  H7  RNE d   1      -0.784  -1.349   8.978  0.00  0.00     0.084 H 
ATOM     11  H8  RNE d   1       1.810   0.335   8.808  0.00  0.00     0.083 H 
BRANCH   9  12
ATOM     12  CAD RNE d   1      -0.453   0.069   7.220  0.00  0.00    -0.064 C 
ATOM     13  CAC RNE d   1      -1.316  -0.632   6.463  0.00  0.00    -0.073 C 
ATOM     14  H6  RNE d   1      -1.696  -1.547   6.916  0.00  0.00     0.080 H 
BRANCH  13  15
ATOM     15  CAB RNE d   1      -1.845  -0.329   5.050  0.00  0.00     0.095 C 
ATOM     16  H4  RNE d   1      -2.921  -0.105   5.084  0.00  0.00     0.081 H 
ATOM     17  H5  RNE d   1      -1.306   0.526   4.614  0.00  0.00     0.081 H 
BRANCH  15  18
ATOM     18  NAA RNE d   1      -1.594  -1.571   4.244  0.00  0.00    -0.076 N 
ATOM     19  H1  RNE d   1      -1.922  -1.432   3.301  0.00  0.00     0.274 HD
ATOM     20  H2  RNE d   1      -2.086  -2.346   4.660  0.00  0.00     0.274 HD
ATOM     21  H3  RNE d   1      -0.606  -1.768   4.230  0.00  0.00     0.274 HD
ENDBRANCH  15  18
ENDBRANCH  13  15
BRANCH  12  22
ATOM     22  CAU RNE d   1       0.251   1.366   6.810  0.00  0.00    -0.051 C 
ATOM     23  H30 RNE d   1      -0.156   1.717   5.850  0.00  0.00     0.033 H 
ATOM     24  H31 RNE d   1       1.330   1.180   6.705  0.00  0.00     0.033 H 
ATOM     25  H32 RNE d   1       0.085   2.133   7.581  0.00  0.00     0.033 H 
ENDBRANCH  12  22
ENDBRANCH   9  12
ENDBRANCH   6   8
BRANCH   5  26
ATOM     26  CAT RNE d   1       3.541  -0.045  10.993  0.00  0.00    -0.051 C 
ATOM     27  H27 RNE d   1       3.277   0.571  10.121  0.00  0.00     0.033 H 
ATOM     28  H28 RNE d   1       4.549  -0.464  10.855  0.00  0.00     0.033 H 
ATOM     29  H29 RNE d   1       3.524   0.577  11.900  0.00  0.00     0.033 H 
ENDBRANCH   5  26
ENDBRANCH   1   5
BRANCH   2  30
ATOM     30  CAK RNE d   1       3.769  -3.193  14.321  0.00  0.00    -0.048 C 
ATOM     31  CAL RNE d   1       4.516  -2.811  15.363  0.00  0.00    -0.077 C 
ATOM     32  CAM RNE d   1       4.636  -3.593  16.677  0.00  0.00    -0.044 C 
ATOM     33  CAN RNE d   1       3.639  -4.741  16.725  0.00  0.00    -0.061 C 
ATOM     34  H12 RNE d   1       4.441  -2.913  17.519  0.00  0.00     0.039 H 
ATOM     35  H13 RNE d   1       5.655  -3.999  16.762  0.00  0.00     0.039 H 
ATOM     36  CAO RNE d   1       3.504  -5.443  15.419  0.00  0.00    -0.054 C 
ATOM     37  H14 RNE d   1       2.655  -4.341  17.012  0.00  0.00     0.033 H 
ATOM     38  H15 RNE d   1       3.974  -5.466  17.481  0.00  0.00     0.033 H 
ATOM     39  CAP RNE d   1       2.976  -4.526  14.344  0.00  0.00    -0.020 C 
ATOM     40  H16 RNE d   1       2.810  -6.288  15.539  0.00  0.00     0.034 H 
ATOM     41  H17 RNE d   1       4.491  -5.819  15.113  0.00  0.00     0.034 H 
BRANCH  31  42
ATOM     42  CAS RNE d   1       5.330  -1.529  15.338  0.00  0.00    -0.054 C 
ATOM     43  H24 RNE d   1       5.193  -1.027  14.369  0.00  0.00     0.033 H 
ATOM     44  H25 RNE d   1       6.394  -1.768  15.481  0.00  0.00     0.033 H 
ATOM     45  H26 RNE d   1       4.992  -0.864  16.146  0.00  0.00     0.033 H 
ENDBRANCH  31  42
BRANCH  39  46
ATOM     46  CAQ RNE d   1       3.108  -5.306  13.042  0.00  0.00    -0.065 C 
ATOM     47  H18 RNE d   1       2.738  -4.692  12.208  0.00  0.00     0.028 H 
ATOM     48  H19 RNE d   1       2.516  -6.231  13.107  0.00  0.00     0.028 H 
ATOM     49  H20 RNE d   1       4.165  -5.558  12.871  0.00  0.00     0.028 H 
ENDBRANCH  39  46
BRANCH  39  50
ATOM     50  CAR RNE d   1       1.488  -4.293  14.610  0.00  0.00    -0.065 C 
ATOM     51  H21 RNE d   1       1.367  -3.730  15.547  0.00  0.00     0.028 H 
ATOM     52  H22 RNE d   1       0.975  -5.262  14.695  0.00  0.00     0.028 H 
ATOM     53  H23 RNE d   1       1.052  -3.719  13.779  0.00  0.00     0.028 H 
ENDBRANCH  39  50
ENDBRANCH   2  30
TORSDOF 11
