REMARK  7 active torsions:
REMARK  status: ('A' for Active; 'I' for Inactive)
REMARK    1  A    between atoms: NH2_10  and  P_1 
REMARK    2  A    between atoms: CA_3  and  N_2 
REMARK    3  A    between atoms: CB_4  and  CA_3 
REMARK    4  A    between atoms: CA_3  and  C_14 
REMARK    5  A    between atoms: CG_5  and  CB_4 
REMARK    6  A    between atoms: CD_6  and  CG_5 
REMARK    7  A    between atoms: NE_7  and  CD_6 
REMARK       I    between atoms: CZ_8  and  NE_7 
REMARK       I    between atoms: CZ_8  and  NH2_10 
ROOT
ATOM      1  CG  RPI d   1      25.400  26.278  12.268  0.00  0.00    -0.047 C 
ATOM      2  H7  RPI d   1      24.764  25.447  11.928  0.00  0.00     0.035 H 
ATOM      3  H8  RPI d   1      26.283  25.876  12.787  0.00  0.00     0.035 H 
ENDROOT
BRANCH   1   4
ATOM      4  CB  RPI d   1      24.616  27.144  13.222  0.00  0.00    -0.028 C 
ATOM      5  H5  RPI d   1      24.366  28.093  12.726  0.00  0.00     0.036 H 
ATOM      6  H6  RPI d   1      23.690  26.623  13.505  0.00  0.00     0.036 H 
BRANCH   4   7
ATOM      7  CA  RPI d   1      25.423  27.432  14.466  0.00  0.00     0.182 C 
ATOM      8  H4  RPI d   1      26.463  27.650  14.182  0.00  0.00     0.101 H 
BRANCH   7   9
ATOM      9  N   RPI d   1      25.412  26.262  15.292  0.00  0.00    -0.065 N 
ATOM     10  H1  RPI d   1      25.802  25.486  14.780  0.00  0.00     0.275 HD
ATOM     11  H2  RPI d   1      24.464  26.047  15.558  0.00  0.00     0.275 HD
ATOM     12  H3  RPI d   1      25.963  26.430  16.119  0.00  0.00     0.275 HD
ENDBRANCH   7   9
BRANCH   7  13
ATOM     13  C   RPI d   1      24.851  28.653  15.162  0.00  0.00     0.204 C 
ATOM     14  O   RPI d   1      23.752  29.168  14.789  0.00  0.00    -0.646 OA
ATOM     15  OXT RPI d   1      25.498  29.178  16.105  0.00  0.00    -0.646 OA
ENDBRANCH   7  13
ENDBRANCH   4   7
ENDBRANCH   1   4
BRANCH   1  16
ATOM     16  CD  RPI d   1      25.849  27.079  11.074  0.00  0.00     0.009 C 
ATOM     17  H9  RPI d   1      26.653  26.544  10.547  0.00  0.00     0.064 H 
ATOM     18  H10 RPI d   1      26.216  28.063  11.401  0.00  0.00     0.064 H 
BRANCH  16  19
ATOM     19  NE  RPI d   1      24.732  27.244  10.209  0.00  0.00    -0.226 N 
ATOM     20  CZ  RPI d   1      24.890  27.234   8.816  0.00  0.00     0.677 C 
ATOM     21  NH1 RPI d   1      26.081  27.077   8.323  0.00  0.00    -0.235 N 
ATOM     22  NH2 RPI d   1      23.773  27.368   7.936  0.00  0.00    -0.117 N 
ATOM     23  H12 RPI d   1      26.219  27.067   7.302  0.00  0.00     0.174 HD
ATOM     24  H13 RPI d   1      26.888  26.963   8.953  0.00  0.00     0.174 HD
ATOM     25  H14 RPI d   1      23.969  27.385   6.956  0.00  0.00     0.191 HD
ATOM     26  H11 RPI d   1      23.793  27.373  10.612  0.00  0.00     0.177 HD
BRANCH  22  27
ATOM     27  P   RPI d   1      22.189  27.497   8.383  0.00  0.00     0.390 P 
ATOM     28  O1P RPI d   1      21.547  26.160   8.069  0.00  0.00    -0.622 OA
ATOM     29  O2P RPI d   1      21.608  28.557   7.481  0.00  0.00    -0.622 OA
ATOM     30  O3P RPI d   1      22.019  27.842   9.833  0.00  0.00    -0.622 OA
ENDBRANCH  22  27
ENDBRANCH  16  19
ENDBRANCH   1  16
TORSDOF 7
