REMARK  11 active torsions:
REMARK  status: ('A' for Active; 'I' for Inactive)
REMARK    1  A    between atoms: C1_1  and  C16_17 
REMARK    2  A    between atoms: C1_1  and  C17_18 
REMARK    3  A    between atoms: C5_5  and  C18_19 
REMARK    4  A    between atoms: C6_6  and  C7_7 
REMARK    5  A    between atoms: C8_8  and  C9_9 
REMARK    6  A    between atoms: C9_9  and  C19_20 
REMARK    7  A    between atoms: C10_10  and  C11_11 
REMARK    8  A    between atoms: C12_12  and  C13_13 
REMARK    9  A    between atoms: C13_13  and  C20_21 
REMARK   10  A    between atoms: C14_14  and  C15_15 
REMARK   11  A    between atoms: C15_15  and  O1_16 
ROOT
ATOM      1  C7  RTL d   1      15.186  -2.172 -13.011  0.00  0.00    -0.075 C 
ATOM      2  C8  RTL d   1      16.262  -2.132 -12.198  0.00  0.00    -0.077 C 
ATOM      3  H7  RTL d   1      14.395  -1.442 -12.847  0.00  0.00     0.084 H 
ATOM      4  H8  RTL d   1      17.063  -2.857 -12.338  0.00  0.00     0.084 H 
ENDROOT
BRANCH   1   5
ATOM      5  C6  RTL d   1      15.006  -3.190 -14.162  0.00  0.00    -0.048 C 
ATOM      6  C1  RTL d   1      15.789  -4.530 -14.132  0.00  0.00    -0.020 C 
ATOM      7  C2  RTL d   1      15.230  -5.502 -15.154  0.00  0.00    -0.054 C 
ATOM      8  C3  RTL d   1      14.942  -4.803 -16.456  0.00  0.00    -0.061 C 
ATOM      9  H1  RTL d   1      14.298  -5.938 -14.765  0.00  0.00     0.034 H 
ATOM     10  H2  RTL d   1      15.964  -6.303 -15.329  0.00  0.00     0.034 H 
ATOM     11  C4  RTL d   1      14.059  -3.556 -16.531  0.00  0.00    -0.044 C 
ATOM     12  H3  RTL d   1      14.472  -5.552 -17.110  0.00  0.00     0.033 H 
ATOM     13  H4  RTL d   1      15.918  -4.514 -16.872  0.00  0.00     0.033 H 
ATOM     14  C5  RTL d   1      14.254  -2.811 -15.201  0.00  0.00    -0.077 C 
ATOM     15  H5  RTL d   1      13.004  -3.843 -16.656  0.00  0.00     0.039 H 
ATOM     16  H6  RTL d   1      14.369  -2.920 -17.373  0.00  0.00     0.039 H 
BRANCH   6  17
ATOM     17  C16 RTL d   1      17.254  -4.304 -14.528  0.00  0.00    -0.065 C 
ATOM     18  H16 RTL d   1      17.721  -3.603 -13.821  0.00  0.00     0.028 H 
ATOM     19  H17 RTL d   1      17.299  -3.885 -15.544  0.00  0.00     0.028 H 
ATOM     20  H18 RTL d   1      17.793  -5.263 -14.503  0.00  0.00     0.028 H 
ENDBRANCH   6  17
BRANCH   6  21
ATOM     21  C17 RTL d   1      15.676  -5.233 -12.792  0.00  0.00    -0.065 C 
ATOM     22  H19 RTL d   1      14.614  -5.377 -12.542  0.00  0.00     0.028 H 
ATOM     23  H20 RTL d   1      16.156  -4.620 -12.015  0.00  0.00     0.028 H 
ATOM     24  H21 RTL d   1      16.176  -6.211 -12.848  0.00  0.00     0.028 H 
ENDBRANCH   6  21
BRANCH  14  25
ATOM     25  C18 RTL d   1      13.454  -1.508 -15.180  0.00  0.00    -0.054 C 
ATOM     26  H22 RTL d   1      13.612  -0.997 -14.219  0.00  0.00     0.033 H 
ATOM     27  H23 RTL d   1      12.384  -1.732 -15.305  0.00  0.00     0.033 H 
ATOM     28  H24 RTL d   1      13.791  -0.858 -16.001  0.00  0.00     0.033 H 
ENDBRANCH  14  25
ENDBRANCH   1   5
BRANCH   2  29
ATOM     29  C9  RTL d   1      16.381  -1.097 -11.090  0.00  0.00    -0.062 C 
ATOM     30  C10 RTL d   1      17.498  -1.185 -10.357  0.00  0.00    -0.077 C 
ATOM     31  H9  RTL d   1      18.235  -1.934 -10.642  0.00  0.00     0.084 H 
BRANCH  30  32
ATOM     32  C11 RTL d   1      17.805  -0.312  -9.157  0.00  0.00    -0.082 C 
ATOM     33  C12 RTL d   1      18.953  -0.525  -8.499  0.00  0.00    -0.077 C 
ATOM     34  H11 RTL d   1      19.677  -1.223  -8.916  0.00  0.00     0.084 H 
ATOM     35  H10 RTL d   1      17.113   0.466  -8.838  0.00  0.00     0.083 H 
BRANCH  33  36
ATOM     36  C13 RTL d   1      19.275   0.170  -7.199  0.00  0.00    -0.064 C 
ATOM     37  C14 RTL d   1      20.237  -0.427  -6.500  0.00  0.00    -0.075 C 
ATOM     38  H12 RTL d   1      20.792  -1.218  -7.002  0.00  0.00     0.081 H 
BRANCH  37  39
ATOM     39  C15 RTL d   1      20.629  -0.113  -5.086  0.00  0.00     0.032 C 
ATOM     40  H13 RTL d   1      20.065   0.742  -4.684  0.00  0.00     0.080 H 
ATOM     41  H14 RTL d   1      21.707   0.082  -4.992  0.00  0.00     0.080 H 
BRANCH  39  42
ATOM     42  O1  RTL d   1      20.254  -1.339  -4.463  0.00  0.00    -0.397 OA
ATOM     43  H15 RTL d   1      20.447  -1.293  -3.534  0.00  0.00     0.209 HD
ENDBRANCH  39  42
ENDBRANCH  37  39
BRANCH  36  44
ATOM     44  C20 RTL d   1      18.453   1.336  -6.727  0.00  0.00    -0.051 C 
ATOM     45  H28 RTL d   1      17.736   1.620  -7.511  0.00  0.00     0.033 H 
ATOM     46  H29 RTL d   1      19.115   2.187  -6.510  0.00  0.00     0.033 H 
ATOM     47  H30 RTL d   1      17.907   1.054  -5.815  0.00  0.00     0.033 H 
ENDBRANCH  36  44
ENDBRANCH  33  36
ENDBRANCH  30  32
BRANCH  29  48
ATOM     48  C19 RTL d   1      15.332  -0.009 -10.895  0.00  0.00    -0.051 C 
ATOM     49  H25 RTL d   1      14.514  -0.155 -11.616  0.00  0.00     0.033 H 
ATOM     50  H26 RTL d   1      15.792   0.977 -11.056  0.00  0.00     0.033 H 
ATOM     51  H27 RTL d   1      14.932  -0.064  -9.872  0.00  0.00     0.033 H 
ENDBRANCH  29  48
ENDBRANCH   2  29
TORSDOF 11
