REMARK  7 active torsions:
REMARK  status: ('A' for Active; 'I' for Inactive)
REMARK    1  A    between atoms: C12_2  and  C11_1 
REMARK    2  A    between atoms: N4_6  and  N5_21 
REMARK    3  A    between atoms: C18_8  and  C19_9 
REMARK       I    between atoms: N5_21  and  C18_8 
REMARK    4  A    between atoms: C19_9  and  C20_10 
REMARK    5  A    between atoms: C19_9  and  N6_20 
REMARK    6  A    between atoms: C20_10  and  C21_11 
REMARK    7  A    between atoms: C17_22  and  C16_23 
ROOT
ATOM      1  C19 61P d   1      28.637   5.082  59.120  0.00  0.00     0.181 C 
ATOM      2  H7  61P d   1      28.381   4.513  58.214  0.00  0.00     0.099 H 
ENDROOT
BRANCH   1   3
ATOM      3  C18 61P d   1      27.940   6.440  59.064  0.00  0.00     0.268 C 
ATOM      4  O1  61P d   1      28.018   7.226  60.008  0.00  0.00    -0.269 OA
ATOM      5  N5  61P d   1      27.247   6.686  57.931  0.00  0.00    -0.246 N 
ATOM      6  H19 61P d   1      27.205   5.992  57.212  0.00  0.00     0.192 HD
BRANCH   5   7
ATOM      7  N4  61P d   1      26.597   7.891  57.763  0.00  0.00    -0.184 NA
ATOM      8  C17 61P d   1      25.878   7.961  56.709  0.00  0.00     0.032 C 
ATOM      9  H20 61P d   1      25.827   7.096  56.050  0.00  0.00     0.118 H 
BRANCH   8  10
ATOM     10  C16 61P d   1      25.122   9.161  56.357  0.00  0.00    -0.017 A 
ATOM     11  C15 61P d   1      24.334   9.169  55.208  0.00  0.00    -0.072 A 
ATOM     12  C14 61P d   1      23.597  10.288  54.865  0.00  0.00    -0.082 A 
ATOM     13  H6  61P d   1      24.298   8.289  54.576  0.00  0.00     0.084 H 
ATOM     14  C13 61P d   1      23.639  11.419  55.661  0.00  0.00    -0.077 A 
ATOM     15  H5  61P d   1      22.985  10.279  53.970  0.00  0.00     0.083 H 
ATOM     16  C12 61P d   1      24.429  11.451  56.807  0.00  0.00    -0.061 A 
ATOM     17  H4  61P d   1      23.051  12.289  55.390  0.00  0.00     0.084 H 
ATOM     18  C29 61P d   1      25.168  10.313  57.148  0.00  0.00    -0.066 A 
ATOM     19  H21 61P d   1      25.785  10.325  58.039  0.00  0.00     0.085 H 
BRANCH  16  20
ATOM     20  C11 61P d   1      24.497  12.664  57.627  0.00  0.00    -0.051 C 
ATOM     21  H1  61P d   1      23.848  13.438  57.192  0.00  0.00     0.033 H 
ATOM     22  H2  61P d   1      25.534  13.030  57.656  0.00  0.00     0.033 H 
ATOM     23  H3  61P d   1      24.160  12.435  58.649  0.00  0.00     0.033 H 
ENDBRANCH  16  20
ENDBRANCH   8  10
ENDBRANCH   5   7
ENDBRANCH   1   3
BRANCH   1  24
ATOM     24  C20 61P d   1      28.170   4.275  60.339  0.00  0.00    -0.004 C 
ATOM     25  H8  61P d   1      28.488   4.810  61.246  0.00  0.00     0.044 H 
ATOM     26  H9  61P d   1      28.657   3.289  60.305  0.00  0.00     0.044 H 
BRANCH  24  27
ATOM     27  C21 61P d   1      26.683   4.060  60.418  0.00  0.00    -0.028 A 
ATOM     28  C28 61P d   1      25.970   2.823  60.234  0.00  0.00    -0.002 A 
ATOM     29  C27 61P d   1      26.347   1.520  59.924  0.00  0.00    -0.070 A 
ATOM     30  C23 61P d   1      24.606   3.097  60.443  0.00  0.00     0.042 A 
ATOM     31  C26 61P d   1      25.383   0.526  59.828  0.00  0.00    -0.082 A 
ATOM     32  H10 61P d   1      27.391   1.282  59.758  0.00  0.00     0.084 H 
ATOM     33  C25 61P d   1      24.040   0.815  60.034  0.00  0.00    -0.081 A 
ATOM     34  H11 61P d   1      25.682  -0.488  59.589  0.00  0.00     0.083 H 
ATOM     35  C24 61P d   1      23.635   2.104  60.342  0.00  0.00    -0.056 A 
ATOM     36  H12 61P d   1      23.302   0.025  59.953  0.00  0.00     0.083 H 
ATOM     37  H13 61P d   1      22.587   2.334  60.501  0.00  0.00     0.086 H 
ATOM     38  N7  61P d   1      24.493   4.434  60.736  0.00  0.00    -0.365 N 
ATOM     39  C22 61P d   1      25.740   5.001  60.718  0.00  0.00    -0.015 A 
ATOM     40  H14 61P d   1      23.613   4.930  60.937  0.00  0.00     0.165 HD
ATOM     41  H15 61P d   1      25.949   6.051  60.915  0.00  0.00     0.112 H 
ENDBRANCH  24  27
ENDBRANCH   1  24
BRANCH   1  42
ATOM     42  N6  61P d   1      30.114   5.314  59.139  0.00  0.00    -0.066 N 
ATOM     43  H16 61P d   1      30.381   5.845  58.325  0.00  0.00     0.275 HD
ATOM     44  H17 61P d   1      30.593   4.427  59.134  0.00  0.00     0.275 HD
ATOM     45  H18 61P d   1      30.363   5.826  59.971  0.00  0.00     0.275 HD
ENDBRANCH   1  42
TORSDOF 7
