REMARK  1 active torsions:
REMARK  status: ('A' for Active; 'I' for Inactive)
REMARK    1  A    between atoms: C7_19  and  C6_20 
ROOT
ATOM      1  C10 60R d   1      -4.067 -20.552  -8.595  0.00  0.00    -0.067 A 
ATOM      2  C13 60R d   1      -1.746 -18.983  -7.933  0.00  0.00    -0.013 A 
ATOM      3  C14 60R d   1      -1.601 -20.310  -8.256  0.00  0.00     0.083 A 
ATOM      4  C15 60R d   1       0.035 -21.949  -8.976  0.00  0.00     0.051 C 
ATOM      5  C16 60R d   1      -0.349 -23.084  -8.106  0.00  0.00    -0.023 A 
ATOM      6  C17 60R d   1      -1.789 -23.419  -8.070  0.00  0.00    -0.017 A 
ATOM      7  C18 60R d   1      -2.173 -24.475  -7.266  0.00  0.00    -0.072 A 
ATOM      8  C19 60R d   1      -1.184 -25.137  -6.526  0.00  0.00    -0.082 A 
ATOM      9  F   60R d   1      -3.189 -17.177  -7.668  0.00  0.00    -0.206 F 
ATOM     10  C12 60R d   1      -3.040 -18.462  -7.936  0.00  0.00     0.119 A 
ATOM     11  C11 60R d   1      -4.181 -19.205  -8.258  0.00  0.00    -0.045 A 
ATOM     12  C9  60R d   1      -2.804 -21.146  -8.585  0.00  0.00     0.009 A 
ATOM     13  O3  60R d   1      -0.340 -20.785  -8.244  0.00  0.00    -0.346 OA
ATOM     14  C21 60R d   1       0.584 -23.750  -7.362  0.00  0.00    -0.074 A 
ATOM     15  C20 60R d   1       0.149 -24.800  -6.557  0.00  0.00    -0.082 A 
ATOM     16  C8  60R d   1      -2.721 -22.588  -8.921  0.00  0.00    -0.011 C 
ATOM     17  C7  60R d   1      -3.429 -22.995  -9.995  0.00  0.00    -0.061 C 
ATOM     18  H1  60R d   1      -4.945 -21.129  -8.861  0.00  0.00     0.085 H 
ATOM     19  H2  60R d   1      -0.890 -18.366  -7.686  0.00  0.00     0.092 H 
ATOM     20  H3  60R d   1      -0.505 -21.995  -9.933  0.00  0.00     0.082 H 
ATOM     21  H4  60R d   1       1.119 -21.955  -9.165  0.00  0.00     0.082 H 
ATOM     22  H5  60R d   1      -3.211 -24.783  -7.209  0.00  0.00     0.084 H 
ATOM     23  H6  60R d   1      -1.487 -25.963  -5.892  0.00  0.00     0.083 H 
ATOM     24  H9  60R d   1      -5.156 -18.732  -8.245  0.00  0.00     0.088 H 
ATOM     25  H10 60R d   1       1.631 -23.470  -7.397  0.00  0.00     0.084 H 
ATOM     26  H11 60R d   1       0.862 -25.352  -5.955  0.00  0.00     0.083 H 
ATOM     27  H12 60R d   1      -3.970 -22.223 -10.540  0.00  0.00     0.086 H 
ENDROOT
BRANCH  17  28
ATOM     28  C6  60R d   1      -3.552 -24.376 -10.514  0.00  0.00    -0.033 A 
ATOM     29  C22 60R d   1      -2.503 -25.312 -10.534  0.00  0.00    -0.070 A 
ATOM     30  C23 60R d   1      -2.746 -26.616 -11.015  0.00  0.00    -0.048 A 
ATOM     31  H7  60R d   1      -1.516 -25.034 -10.183  0.00  0.00     0.084 H 
ATOM     32  C3  60R d   1      -4.038 -26.979 -11.457  0.00  0.00     0.096 A 
ATOM     33  H8  60R d   1      -1.940 -27.340 -11.046  0.00  0.00     0.087 H 
ATOM     34  C4  60R d   1      -5.143 -25.977 -11.434  0.00  0.00     0.069 A 
ATOM     35  O2  60R d   1      -4.376 -28.221 -11.953  0.00  0.00    -0.340 OA
ATOM     36  C5  60R d   1      -4.852 -24.704 -10.957  0.00  0.00    -0.044 A 
ATOM     37  N   60R d   1      -6.371 -26.326 -11.906  0.00  0.00    -0.323 N 
ATOM     38  H13 60R d   1      -5.633 -23.953 -10.925  0.00  0.00     0.088 H 
ATOM     39  C1  60R d   1      -6.748 -27.614 -12.042  0.00  0.00     0.246 C 
ATOM     40  H14 60R d   1      -7.015 -25.604 -12.160  0.00  0.00     0.169 HD
ATOM     41  O1  60R d   1      -7.903 -27.949 -12.352  0.00  0.00    -0.271 OA
ATOM     42  C2  60R d   1      -5.716 -28.701 -11.780  0.00  0.00     0.100 C 
ATOM     43  H15 60R d   1      -5.889 -29.532 -12.480  0.00  0.00     0.089 H 
ATOM     44  H16 60R d   1      -5.834 -29.061 -10.747  0.00  0.00     0.089 H 
ENDBRANCH  17  28
TORSDOF 1
