REMARK  10 active torsions:
REMARK  status: ('A' for Active; 'I' for Inactive)
REMARK    1  A    between atoms: N13_14  and  C14_1 
REMARK    2  A    between atoms: C6_3  and  C31_31 
REMARK    3  A    between atoms: C10_7  and  N13_14 
REMARK    4  A    between atoms: C2_11  and  C3_9 
REMARK    5  A    between atoms: C2_11  and  C1_10 
REMARK    6  A    between atoms: C2_11  and  N4_12 
REMARK    7  A    between atoms: C18_18  and  C20_20 
REMARK    8  A    between atoms: N23_23  and  S25_25 
REMARK    9  A    between atoms: S25_25  and  C28_28 
REMARK       I    between atoms: C31_31  and  N33_33 
REMARK   10  A    between atoms: N33_33  and  C34_34 
ROOT
ATOM      1  C5  60D d   1     -51.420  -0.361 -19.242  0.00  0.00    -0.003 A 
ATOM      2  C6  60D d   1     -52.221   0.608 -18.702  0.00  0.00     0.061 A 
ATOM      3  C7  60D d   1     -53.107   1.058 -19.798  0.00  0.00     0.025 A 
ATOM      4  C8  60D d   1     -52.722   0.323 -20.952  0.00  0.00     0.051 A 
ATOM      5  C9  60D d   1     -53.401   0.576 -22.155  0.00  0.00    -0.012 A 
ATOM      6  C10 60D d   1     -54.451   1.503 -22.158  0.00  0.00     0.131 A 
ATOM      7  C12 60D d   1     -54.131   2.003 -19.905  0.00  0.00     0.018 A 
ATOM      8  N4  60D d   1     -51.689  -0.514 -20.578  0.00  0.00    -0.351 N 
ATOM      9  N11 60D d   1     -54.753   2.195 -21.059  0.00  0.00    -0.242 NA
ATOM     10  H1  60D d   1     -50.674  -0.930 -18.689  0.00  0.00     0.113 H 
ATOM     11  H2  60D d   1     -53.117   0.062 -23.066  0.00  0.00     0.092 H 
ATOM     12  H3  60D d   1     -54.419   2.584 -19.036  0.00  0.00     0.116 H 
ENDROOT
BRANCH   6  13
ATOM     13  N13 60D d   1     -55.199   1.818 -23.304  0.00  0.00    -0.326 N 
ATOM     14  H11 60D d   1     -55.650   2.744 -23.310  0.00  0.00     0.169 HD
BRANCH  13  15
ATOM     15  C14 60D d   1     -55.404   1.034 -24.427  0.00  0.00     0.132 A 
ATOM     16  C15 60D d   1     -56.630   1.143 -25.101  0.00  0.00    -0.022 A 
ATOM     17  C16 60D d   1     -56.815   0.376 -26.247  0.00  0.00     0.008 A 
ATOM     18  H12 60D d   1     -57.409   1.804 -24.740  0.00  0.00     0.091 H 
ATOM     19  N17 60D d   1     -55.840  -0.438 -26.654  0.00  0.00    -0.240 NA
ATOM     20  H13 60D d   1     -57.743   0.439 -26.804  0.00  0.00     0.115 H 
ATOM     21  C18 60D d   1     -54.673  -0.516 -26.010  0.00  0.00     0.164 A 
ATOM     22  N19 60D d   1     -54.453   0.219 -24.916  0.00  0.00    -0.211 NA
BRANCH  21  23
ATOM     23  C20 60D d   1     -53.635  -1.467 -26.473  0.00  0.00     0.049 A 
ATOM     24  C21 60D d   1     -53.488  -2.031 -27.758  0.00  0.00     0.038 A 
ATOM     25  N22 60D d   1     -52.471  -2.849 -27.727  0.00  0.00    -0.170 NA
ATOM     26  H14 60D d   1     -54.114  -1.821 -28.624  0.00  0.00     0.119 H 
ATOM     27  N23 60D d   1     -51.929  -2.852 -26.432  0.00  0.00    -0.169 N 
ATOM     28  C24 60D d   1     -52.667  -2.011 -25.683  0.00  0.00     0.031 A 
ATOM     29  H15 60D d   1     -52.516  -1.801 -24.625  0.00  0.00     0.117 H 
BRANCH  27  30
ATOM     30  S25 60D d   1     -50.659  -3.789 -25.872  0.00  0.00     0.255 S 
ATOM     31  O26 60D d   1     -49.876  -4.033 -27.038  0.00  0.00    -0.203 OA
ATOM     32  O27 60D d   1     -50.133  -3.077 -24.750  0.00  0.00    -0.203 OA
BRANCH  30  33
ATOM     33  C28 60D d   1     -51.456  -5.336 -25.326  0.00  0.00     0.065 A 
ATOM     34  C29 60D d   1     -50.549  -6.507 -24.938  0.00  0.00    -0.046 A 
ATOM     35  C30 60D d   1     -51.334  -5.757 -23.862  0.00  0.00    -0.046 A 
ATOM     36  H17 60D d   1     -49.456  -6.399 -24.997  0.00  0.00     0.035 H 
ATOM     37  H18 60D d   1     -50.831  -7.535 -25.209  0.00  0.00     0.035 H 
ATOM     38  H19 60D d   1     -52.181  -6.246 -23.358  0.00  0.00     0.035 H 
ATOM     39  H20 60D d   1     -50.805  -5.110 -23.146  0.00  0.00     0.035 H 
ATOM     40  H16 60D d   1     -52.391  -5.503 -25.881  0.00  0.00     0.067 H 
ENDBRANCH  30  33
ENDBRANCH  27  30
ENDBRANCH  21  23
ENDBRANCH  13  15
ENDBRANCH   6  13
BRANCH   8  41
ATOM     41  C2  60D d   1     -51.037  -1.450 -21.516  0.00  0.00     0.009 C 
ATOM     42  H10 60D d   1     -51.206  -1.058 -22.530  0.00  0.00     0.072 H 
BRANCH  41  43
ATOM     43  C3  60D d   1     -51.714  -2.822 -21.432  0.00  0.00    -0.057 C 
ATOM     44  H4  60D d   1     -51.225  -3.515 -22.132  0.00  0.00     0.030 H 
ATOM     45  H5  60D d   1     -52.777  -2.723 -21.696  0.00  0.00     0.030 H 
ATOM     46  H6  60D d   1     -51.626  -3.212 -20.407  0.00  0.00     0.030 H 
ENDBRANCH  41  43
BRANCH  41  47
ATOM     47  C1  60D d   1     -49.520  -1.566 -21.338  0.00  0.00    -0.057 C 
ATOM     48  H7  60D d   1     -49.066  -0.566 -21.403  0.00  0.00     0.030 H 
ATOM     49  H8  60D d   1     -49.106  -2.209 -22.128  0.00  0.00     0.030 H 
ATOM     50  H9  60D d   1     -49.299  -2.006 -20.354  0.00  0.00     0.030 H 
ENDBRANCH  41  47
ENDBRANCH   8  41
BRANCH   2  51
ATOM     51  C31 60D d   1     -52.256   1.083 -17.304  0.00  0.00     0.254 C 
ATOM     52  O32 60D d   1     -52.854   2.113 -17.015  0.00  0.00    -0.268 OA
ATOM     53  N33 60D d   1     -51.607   0.382 -16.346  0.00  0.00    -0.352 N 
ATOM     54  H21 60D d   1     -51.089  -0.433 -16.606  0.00  0.00     0.163 HD
BRANCH  53  55
ATOM     55  C34 60D d   1     -51.643   0.784 -14.940  0.00  0.00     0.016 C 
ATOM     56  C35 60D d   1     -52.749  -0.072 -14.286  0.00  0.00    -0.026 C 
ATOM     57  C36 60D d   1     -52.793   0.186 -12.775  0.00  0.00     0.021 C 
ATOM     58  H23 60D d   1     -52.540  -1.137 -14.467  0.00  0.00     0.039 H 
ATOM     59  H24 60D d   1     -53.721   0.191 -14.728  0.00  0.00     0.039 H 
ATOM     60  O37 60D d   1     -51.493  -0.120 -12.250  0.00  0.00    -0.391 OA
ATOM     61  H25 60D d   1     -53.550  -0.459 -12.305  0.00  0.00     0.074 H 
ATOM     62  H26 60D d   1     -53.038   1.240 -12.581  0.00  0.00     0.074 H 
ATOM     63  C38 60D d   1     -50.407   0.681 -12.764  0.00  0.00     0.021 C 
ATOM     64  C39 60D d   1     -50.280   0.512 -14.289  0.00  0.00    -0.026 C 
ATOM     65  H27 60D d   1     -49.468   0.365 -12.286  0.00  0.00     0.074 H 
ATOM     66  H28 60D d   1     -50.598   1.739 -12.533  0.00  0.00     0.074 H 
ATOM     67  H29 60D d   1     -49.537   1.224 -14.678  0.00  0.00     0.039 H 
ATOM     68  H30 60D d   1     -49.960  -0.515 -14.520  0.00  0.00     0.039 H 
ATOM     69  H22 60D d   1     -51.886   1.853 -14.851  0.00  0.00     0.072 H 
ENDBRANCH  53  55
ENDBRANCH   2  51
TORSDOF 10
