REMARK  17 active torsions:
REMARK  status: ('A' for Active; 'I' for Inactive)
REMARK    1  A    between atoms: C5_2  and  C4_1 
REMARK    2  A    between atoms: C4_1  and  N2_11 
REMARK    3  A    between atoms: C6_3  and  C5_2 
REMARK    4  A    between atoms: N7_13  and  C6_3 
REMARK    5  A    between atoms: N7_13  and  C8_4 
REMARK    6  A    between atoms: C8_4  and  C9_14 
REMARK    7  A    between atoms: C9_14  and  C10_5 
REMARK    8  A    between atoms: C10_5  and  N11_15 
REMARK    9  A    between atoms: C10_5  and  C12_16 
REMARK   10  A    between atoms: C15_6  and  N7_13 
REMARK   11  A    between atoms: C16_19  and  C15_6 
REMARK   12  A    between atoms: C21_7  and  O22_24 
REMARK   13  A    between atoms: N2_11  and  C1_10 
REMARK   14  A    between atoms: N2_11  and  C3_12 
REMARK   15  A    between atoms: C18_21  and  N23_25 
REMARK   16  A    between atoms: C19_22  and  O20_23 
REMARK   17  A    between atoms: C27_27  and  N28_28 
ROOT
ATOM      1  N7  62X d   1      12.416 -13.274 -20.161  0.00  0.00    -0.068 N 
ATOM      2  H21 62X d   1      12.147 -14.232 -20.000  0.00  0.00     0.280 HD
ENDROOT
BRANCH   1   3
ATOM      3  C6  62X d   1      12.356 -12.653 -18.852  0.00  0.00     0.085 C 
ATOM      4  H5  62X d   1      11.303 -12.611 -18.537  0.00  0.00     0.076 H 
ATOM      5  H6  62X d   1      12.925 -13.276 -18.147  0.00  0.00     0.076 H 
BRANCH   3   6
ATOM      6  C5  62X d   1      12.929 -11.232 -18.812  0.00  0.00    -0.020 C 
ATOM      7  H3  62X d   1      13.975 -11.281 -19.149  0.00  0.00     0.037 H 
ATOM      8  H4  62X d   1      12.347 -10.614 -19.512  0.00  0.00     0.037 H 
BRANCH   6   9
ATOM      9  C4  62X d   1      12.909 -10.547 -17.461  0.00  0.00     0.084 C 
ATOM     10  H1  62X d   1      13.737 -10.970 -16.873  0.00  0.00     0.076 H 
ATOM     11  H2  62X d   1      11.952 -10.804 -16.984  0.00  0.00     0.076 H 
BRANCH   9  12
ATOM     12  N2  62X d   1      13.039  -9.109 -17.401  0.00  0.00    -0.079 N 
ATOM     13  H17 62X d   1      12.214  -8.684 -17.796  0.00  0.00     0.278 HD
BRANCH  12  14
ATOM     14  C1  62X d   1      13.178  -8.695 -16.001  0.00  0.00     0.066 C 
ATOM     15  H14 62X d   1      13.277  -7.601 -15.950  0.00  0.00     0.068 H 
ATOM     16  H15 62X d   1      14.073  -9.165 -15.567  0.00  0.00     0.068 H 
ATOM     17  H16 62X d   1      12.288  -9.009 -15.436  0.00  0.00     0.068 H 
ENDBRANCH  12  14
BRANCH  12  18
ATOM     18  C3  62X d   1      14.222  -8.668 -18.162  0.00  0.00     0.066 C 
ATOM     19  H18 62X d   1      14.119  -8.978 -19.212  0.00  0.00     0.068 H 
ATOM     20  H19 62X d   1      15.126  -9.125 -17.732  0.00  0.00     0.068 H 
ATOM     21  H20 62X d   1      14.304  -7.572 -18.110  0.00  0.00     0.068 H 
ENDBRANCH  12  18
ENDBRANCH   9  12
ENDBRANCH   6   9
ENDBRANCH   3   6
ENDBRANCH   1   3
BRANCH   1  22
ATOM     22  C8  62X d   1      11.429 -12.763 -21.141  0.00  0.00     0.086 C 
ATOM     23  H7  62X d   1      11.960 -12.616 -22.093  0.00  0.00     0.076 H 
ATOM     24  H8  62X d   1      11.071 -11.792 -20.767  0.00  0.00     0.076 H 
BRANCH  22  25
ATOM     25  C9  62X d   1      10.210 -13.607 -21.434  0.00  0.00    -0.006 C 
ATOM     26  H22 62X d   1       9.629 -13.095 -22.216  0.00  0.00     0.039 H 
ATOM     27  H23 62X d   1       9.613 -13.664 -20.512  0.00  0.00     0.039 H 
BRANCH  25  28
ATOM     28  C10 62X d   1      10.471 -15.044 -21.911  0.00  0.00     0.184 C 
ATOM     29  H9  62X d   1      11.483 -15.344 -21.603  0.00  0.00     0.101 H 
BRANCH  28  30
ATOM     30  N11 62X d   1      10.379 -15.099 -23.325  0.00  0.00    -0.065 N 
ATOM     31  H24 62X d   1      10.550 -16.042 -23.636  0.00  0.00     0.275 HD
ATOM     32  H25 62X d   1      11.065 -14.481 -23.731  0.00  0.00     0.275 HD
ATOM     33  H26 62X d   1       9.457 -14.812 -23.613  0.00  0.00     0.275 HD
ENDBRANCH  28  30
BRANCH  28  34
ATOM     34  C12 62X d   1       9.454 -16.015 -21.294  0.00  0.00     0.204 C 
ATOM     35  O13 62X d   1       8.909 -16.892 -22.019  0.00  0.00    -0.646 OA
ATOM     36  O14 62X d   1       9.164 -15.949 -20.061  0.00  0.00    -0.646 OA
ENDBRANCH  28  34
ENDBRANCH  25  28
ENDBRANCH  22  25
ENDBRANCH   1  22
BRANCH   1  37
ATOM     37  C15 62X d   1      13.791 -13.349 -20.723  0.00  0.00     0.110 C 
ATOM     38  H10 62X d   1      14.493 -13.346 -19.876  0.00  0.00     0.080 H 
ATOM     39  H11 62X d   1      13.947 -12.446 -21.332  0.00  0.00     0.080 H 
BRANCH  37  40
ATOM     40  C16 62X d   1      14.135 -14.555 -21.597  0.00  0.00     0.091 C 
ATOM     41  C21 62X d   1      15.633 -14.638 -21.872  0.00  0.00     0.091 C 
ATOM     42  C19 62X d   1      15.646 -15.369 -23.215  0.00  0.00     0.105 C 
ATOM     43  H12 62X d   1      16.089 -13.640 -21.951  0.00  0.00     0.091 H 
ATOM     44  C18 62X d   1      14.372 -14.860 -23.892  0.00  0.00     0.139 C 
ATOM     45  H29 62X d   1      16.545 -15.126 -23.801  0.00  0.00     0.093 H 
ATOM     46  O17 62X d   1      13.491 -14.454 -22.858  0.00  0.00    -0.354 OA
ATOM     47  H28 62X d   1      13.918 -15.655 -24.501  0.00  0.00     0.122 H 
ATOM     48  H27 62X d   1      13.805 -15.470 -21.084  0.00  0.00     0.090 H 
BRANCH  41  49
ATOM     49  O22 62X d   1      16.287 -15.379 -20.867  0.00  0.00    -0.390 OA
ATOM     50  H31 62X d   1      17.191 -15.524 -21.120  0.00  0.00     0.210 HD
ENDBRANCH  41  49
BRANCH  42  51
ATOM     51  O20 62X d   1      15.555 -16.754 -23.017  0.00  0.00    -0.388 OA
ATOM     52  H30 62X d   1      16.348 -17.065 -22.597  0.00  0.00     0.210 HD
ENDBRANCH  42  51
BRANCH  44  53
ATOM     53  N23 62X d   1      14.666 -13.712 -24.716  0.00  0.00    -0.294 N 
ATOM     54  C24 62X d   1      14.387 -12.400 -24.434  0.00  0.00     0.071 A 
ATOM     55  N25 62X d   1      14.776 -11.548 -25.393  0.00  0.00    -0.236 NA
ATOM     56  H13 62X d   1      13.895 -12.080 -23.517  0.00  0.00     0.144 H 
ATOM     57  C26 62X d   1      15.338 -12.366 -26.347  0.00  0.00     0.149 A 
ATOM     58  C27 62X d   1      15.941 -12.107 -27.613  0.00  0.00     0.155 A 
ATOM     59  C32 62X d   1      15.280 -13.700 -25.950  0.00  0.00     0.167 A 
ATOM     60  N29 62X d   1      16.408 -13.160 -28.325  0.00  0.00    -0.222 NA
ATOM     61  C30 62X d   1      16.284 -14.406 -27.814  0.00  0.00     0.091 A 
ATOM     62  N31 62X d   1      15.742 -14.781 -26.648  0.00  0.00    -0.222 NA
ATOM     63  H34 62X d   1      16.675 -15.208 -28.430  0.00  0.00     0.146 H 
BRANCH  58  64
ATOM     64  N28 62X d   1      16.039 -10.857 -28.074  0.00  0.00    -0.382 N 
ATOM     65  H32 62X d   1      16.476 -10.678 -28.989  0.00  0.00     0.157 HD
ATOM     66  H33 62X d   1      15.678 -10.072 -27.514  0.00  0.00     0.157 HD
ENDBRANCH  58  64
ENDBRANCH  44  53
ENDBRANCH  37  40
ENDBRANCH   1  37
TORSDOF 17
