REMARK  2 active torsions:
REMARK  status: ('A' for Active; 'I' for Inactive)
REMARK    1  A    between atoms: C02_2  and  C07_7 
REMARK    2  A    between atoms: C03_3  and  C06_6 
ROOT
ATOM      1  S01 60P d   1     -16.288   3.291 -11.504  0.00  0.00    -0.095 SA
ATOM      2  C02 60P d   1     -17.163   2.165 -12.447  0.00  0.00     0.087 A 
ATOM      3  C03 60P d   1     -17.170   2.659 -13.747  0.00  0.00    -0.038 A 
ATOM      4  C04 60P d   1     -16.513   3.875 -13.937  0.00  0.00    -0.069 A 
ATOM      5  C05 60P d   1     -15.931   4.370 -12.793  0.00  0.00    -0.043 A 
ATOM      6  H1  60P d   1     -16.465   4.384 -14.899  0.00  0.00     0.085 H 
ATOM      7  H2  60P d   1     -15.346   5.286 -12.717  0.00  0.00     0.095 H 
ENDROOT
BRANCH   3   8
ATOM      8  C06 60P d   1     -17.846   1.970 -14.880  0.00  0.00    -0.050 C 
ATOM      9  H3  60P d   1     -18.300   1.034 -14.522  0.00  0.00     0.033 H 
ATOM     10  H4  60P d   1     -17.108   1.743 -15.664  0.00  0.00     0.033 H 
ATOM     11  H5  60P d   1     -18.630   2.623 -15.291  0.00  0.00     0.033 H 
ENDBRANCH   3   8
BRANCH   2  12
ATOM     12  C07 60P d   1     -17.742   0.902 -11.878  0.00  0.00     0.217 C 
ATOM     13  O08 60P d   1     -18.553   0.188 -12.547  0.00  0.00    -0.643 OA
ATOM     14  O09 60P d   1     -17.361   0.521 -10.728  0.00  0.00    -0.643 OA
ENDBRANCH   2  12
TORSDOF 2
