REMARK  9 active torsions:
REMARK  status: ('A' for Active; 'I' for Inactive)
REMARK    1  A    between atoms: C1_1  and  O1_7 
REMARK    2  A    between atoms: C2_2  and  O2_8 
REMARK    3  A    between atoms: C3_3  and  O3_9 
REMARK    4  A    between atoms: C4_4  and  O4_10 
REMARK    5  A    between atoms: C5_5  and  O5_11 
REMARK    6  A    between atoms: C6_6  and  O6_12 
REMARK    7  A    between atoms: O1_7  and  P1_13 
REMARK    8  A    between atoms: O4_10  and  P4_17 
REMARK    9  A    between atoms: O5_11  and  P5_21 
ROOT
ATOM      1  C1  I3P d   1      19.154  11.180 125.963  0.00  0.00     0.106 C 
ATOM      2  C2  I3P d   1      19.272   9.672 125.825  0.00  0.00     0.090 C 
ATOM      3  C3  I3P d   1      17.944   9.013 125.449  0.00  0.00     0.091 C 
ATOM      4  C4  I3P d   1      16.960   9.836 124.617  0.00  0.00     0.106 C 
ATOM      5  C5  I3P d   1      17.282  11.295 124.309  0.00  0.00     0.106 C 
ATOM      6  C6  I3P d   1      18.713  11.736 124.645  0.00  0.00     0.091 C 
ATOM      7  H1  I3P d   1      18.410  11.414 126.739  0.00  0.00     0.092 H 
ATOM      8  H2  I3P d   1      19.616   9.255 126.783  0.00  0.00     0.091 H 
ATOM      9  H3  I3P d   1      17.435   8.755 126.390  0.00  0.00     0.091 H 
ATOM     10  H4  I3P d   1      16.858   9.325 123.648  0.00  0.00     0.092 H 
ATOM     11  H5  I3P d   1      16.594  11.921 124.896  0.00  0.00     0.092 H 
ATOM     12  H6  I3P d   1      19.390  11.374 123.857  0.00  0.00     0.091 H 
ENDROOT
BRANCH   1  13
ATOM     13  O1  I3P d   1      20.407  11.800 126.307  0.00  0.00    -0.272 OA
BRANCH  13  14
ATOM     14  P1  I3P d   1      21.507  11.044 127.202  0.00  0.00     0.422 P 
ATOM     15  O11 I3P d   1      22.148   9.963 126.406  0.00  0.00    -0.617 OA
ATOM     16  O12 I3P d   1      22.570  12.041 127.606  0.00  0.00    -0.617 OA
ATOM     17  O13 I3P d   1      20.862  10.462 128.474  0.00  0.00    -0.617 OA
ENDBRANCH  13  14
ENDBRANCH   1  13
BRANCH   2  18
ATOM     18  O2  I3P d   1      20.207   9.386 124.827  0.00  0.00    -0.390 OA
ATOM     19  H7  I3P d   1      21.038   9.790 125.048  0.00  0.00     0.210 HD
ENDBRANCH   2  18
BRANCH   6  20
ATOM     20  O6  I3P d   1      18.779  13.157 124.708  0.00  0.00    -0.390 OA
ATOM     21  H9  I3P d   1      18.527  13.522 123.868  0.00  0.00     0.210 HD
ENDBRANCH   6  20
BRANCH   3  22
ATOM     22  O3  I3P d   1      18.226   7.814 124.732  0.00  0.00    -0.390 OA
ATOM     23  H8  I3P d   1      18.608   8.032 123.890  0.00  0.00     0.210 HD
ENDBRANCH   3  22
BRANCH   5  24
ATOM     24  O5  I3P d   1      17.052  11.520 122.939  0.00  0.00    -0.272 OA
BRANCH  24  25
ATOM     25  P5  I3P d   1      16.693  12.970 122.441  0.00  0.00     0.422 P 
ATOM     26  O51 I3P d   1      16.155  12.900 121.059  0.00  0.00    -0.617 OA
ATOM     27  O52 I3P d   1      15.647  13.571 123.345  0.00  0.00    -0.617 OA
ATOM     28  O53 I3P d   1      17.920  13.844 122.446  0.00  0.00    -0.617 OA
ENDBRANCH  24  25
ENDBRANCH   5  24
BRANCH   4  29
ATOM     29  O4  I3P d   1      15.694   9.802 125.305  0.00  0.00    -0.272 OA
BRANCH  29  30
ATOM     30  P4  I3P d   1      14.487   8.992 124.621  0.00  0.00     0.422 P 
ATOM     31  O41 I3P d   1      14.995   8.287 123.386  0.00  0.00    -0.617 OA
ATOM     32  O42 I3P d   1      13.381   9.976 124.235  0.00  0.00    -0.617 OA
ATOM     33  O43 I3P d   1      13.928   7.954 125.623  0.00  0.00    -0.617 OA
ENDBRANCH  29  30
ENDBRANCH   4  29
TORSDOF 9
