REMARK  2 active torsions:
REMARK  status: ('A' for Active; 'I' for Inactive)
REMARK    1  A    between atoms: CAL_14  and  CAO_15 
REMARK    2  A    between atoms: CAO_15  and  CAP_16 
ROOT
ATOM      1  CAG 64C d   1      21.428  30.094  10.556  0.00  0.00     0.054 A 
ATOM      2  CAD 64C d   1      20.843  28.838  10.485  0.00  0.00    -0.003 A 
ATOM      3  CAC 64C d   1      21.318  27.686  11.221  0.00  0.00    -0.071 A 
ATOM      4  CAB 64C d   1      20.686  26.433  11.130  0.00  0.00    -0.082 A 
ATOM      5  CAA 64C d   1      19.553  26.285  10.310  0.00  0.00    -0.082 A 
ATOM      6  CAF 64C d   1      19.059  27.370   9.592  0.00  0.00    -0.066 A 
ATOM      7  CAE 64C d   1      19.673  28.650   9.702  0.00  0.00     0.051 A 
ATOM      8  CAJ 64C d   1      19.182  29.779   8.963  0.00  0.00     0.300 A 
ATOM      9  OAK 64C d   1      18.178  29.738   8.271  0.00  0.00    -0.259 OA
ATOM     10  OAI 64C d   1      19.785  30.989   9.030  0.00  0.00    -0.253 OA
ATOM     11  CAH 64C d   1      20.866  31.135   9.814  0.00  0.00     0.205 A 
ATOM     12  NAN 64C d   1      21.561  32.227   9.952  0.00  0.00    -0.148 NA
ATOM     13  NAM 64C d   1      22.626  31.966  10.829  0.00  0.00    -0.279 N 
ATOM     14  CAL 64C d   1      22.543  30.671  11.153  0.00  0.00     0.043 A 
ATOM     15  H1  64C d   1      22.186  27.792  11.861  0.00  0.00     0.084 H 
ATOM     16  H2  64C d   1      21.070  25.587  11.688  0.00  0.00     0.083 H 
ATOM     17  H3  64C d   1      19.062  25.321  10.237  0.00  0.00     0.083 H 
ATOM     18  H4  64C d   1      18.200  27.240   8.944  0.00  0.00     0.085 H 
ATOM     19  H5  64C d   1      23.332  32.639  11.158  0.00  0.00     0.189 HD
ENDROOT
BRANCH  14  20
ATOM     20  CAO 64C d   1      23.563  30.054  12.141  0.00  0.00    -0.028 C 
ATOM     21  H6  64C d   1      24.154  29.280  11.630  0.00  0.00     0.041 H 
ATOM     22  H7  64C d   1      23.031  29.605  12.993  0.00  0.00     0.041 H 
BRANCH  20  23
ATOM     23  CAP 64C d   1      24.482  31.160  12.635  0.00  0.00    -0.071 C 
ATOM     24  H8  64C d   1      25.215  30.740  13.339  0.00  0.00     0.028 H 
ATOM     25  H9  64C d   1      23.886  31.932  13.143  0.00  0.00     0.028 H 
ATOM     26  H10 64C d   1      25.010  31.608  11.780  0.00  0.00     0.028 H 
ENDBRANCH  20  23
ENDBRANCH  14  20
TORSDOF 2
