REMARK  3 active torsions:
REMARK  status: ('A' for Active; 'I' for Inactive)
REMARK    1  A    between atoms: CAL_14  and  CAO_15 
REMARK    2  A    between atoms: CAO_15  and  CAP_16 
REMARK    3  A    between atoms: CAP_16  and  CAQ_17 
ROOT
ATOM      1  CAG 64E d   1      14.850  -9.544  -7.727  0.00  0.00     0.054 A 
ATOM      2  CAD 64E d   1      14.290  -9.595  -9.009  0.00  0.00    -0.003 A 
ATOM      3  CAC 64E d   1      14.533  -8.622  -9.992  0.00  0.00    -0.071 A 
ATOM      4  CAB 64E d   1      13.936  -8.657 -11.267  0.00  0.00    -0.082 A 
ATOM      5  CAA 64E d   1      13.049  -9.678 -11.562  0.00  0.00    -0.082 A 
ATOM      6  CAF 64E d   1      12.771 -10.658 -10.601  0.00  0.00    -0.066 A 
ATOM      7  CAE 64E d   1      13.390 -10.634  -9.330  0.00  0.00     0.051 A 
ATOM      8  CAJ 64E d   1      13.111 -11.647  -8.391  0.00  0.00     0.300 A 
ATOM      9  OAK 64E d   1      12.356 -12.601  -8.607  0.00  0.00    -0.259 OA
ATOM     10  OAI 64E d   1      13.678 -11.582  -7.145  0.00  0.00    -0.255 OA
ATOM     11  CAH 64E d   1      14.530 -10.504  -6.830  0.00  0.00     0.181 A 
ATOM     12  NAN 64E d   1      15.196 -10.288  -5.685  0.00  0.00    -0.256 N 
ATOM     13  NAM 64E d   1      15.856  -9.261  -5.805  0.00  0.00    -0.176 NA
ATOM     14  CAL 64E d   1      15.714  -8.768  -7.027  0.00  0.00     0.070 A 
ATOM     15  H1  64E d   1      15.210  -7.808  -9.759  0.00  0.00     0.084 H 
ATOM     16  H2  64E d   1      14.167  -7.897 -12.005  0.00  0.00     0.083 H 
ATOM     17  H3  64E d   1      12.571  -9.719 -12.534  0.00  0.00     0.083 H 
ATOM     18  H4  64E d   1      12.068 -11.449 -10.836  0.00  0.00     0.085 H 
ATOM     19  H5  64E d   1      15.159 -10.885  -4.846  0.00  0.00     0.191 HD
ENDROOT
BRANCH  14  20
ATOM     20  CAO 64E d   1      16.406  -7.492  -7.460  0.00  0.00    -0.022 C 
ATOM     21  H6  64E d   1      15.660  -6.733  -7.739  0.00  0.00     0.042 H 
ATOM     22  H7  64E d   1      17.065  -7.691  -8.318  0.00  0.00     0.042 H 
BRANCH  20  23
ATOM     23  CAP 64E d   1      17.224  -7.009  -6.275  0.00  0.00    -0.063 C 
ATOM     24  H8  64E d   1      17.969  -7.774  -6.012  0.00  0.00     0.033 H 
ATOM     25  H9  64E d   1      16.556  -6.838  -5.418  0.00  0.00     0.033 H 
BRANCH  23  26
ATOM     26  CAQ 64E d   1      17.950  -5.688  -6.629  0.00  0.00    -0.076 C 
ATOM     27  H10 64E d   1      18.538  -5.349  -5.763  0.00  0.00     0.027 H 
ATOM     28  H11 64E d   1      17.207  -4.920  -6.891  0.00  0.00     0.027 H 
ATOM     29  H12 64E d   1      18.620  -5.856  -7.485  0.00  0.00     0.027 H 
ENDBRANCH  23  26
ENDBRANCH  20  23
ENDBRANCH  14  20
TORSDOF 3
