REMARK  4 active torsions:
REMARK  status: ('A' for Active; 'I' for Inactive)
REMARK    1  A    between atoms: CAL_14  and  CAO_15 
REMARK    2  A    between atoms: CAO_15  and  CAP_16 
REMARK    3  A    between atoms: CAP_16  and  CAQ_17 
REMARK    4  A    between atoms: CAQ_17  and  CAR_18 
ROOT
ATOM      1  CAG 64F d   1      14.872  -9.303  -7.614  0.00  0.00     0.054 A 
ATOM      2  CAD 64F d   1      14.378  -9.352  -8.897  0.00  0.00    -0.003 A 
ATOM      3  CAC 64F d   1      14.635  -8.389  -9.922  0.00  0.00    -0.071 A 
ATOM      4  CAB 64F d   1      14.096  -8.472 -11.209  0.00  0.00    -0.082 A 
ATOM      5  CAA 64F d   1      13.206  -9.509 -11.531  0.00  0.00    -0.082 A 
ATOM      6  CAF 64F d   1      12.926 -10.443 -10.538  0.00  0.00    -0.066 A 
ATOM      7  CAE 64F d   1      13.463 -10.399  -9.244  0.00  0.00     0.051 A 
ATOM      8  CAJ 64F d   1      13.166 -11.378  -8.287  0.00  0.00     0.300 A 
ATOM      9  OAK 64F d   1      12.394 -12.335  -8.476  0.00  0.00    -0.259 OA
ATOM     10  OAI 64F d   1      13.658 -11.293  -7.077  0.00  0.00    -0.255 OA
ATOM     11  CAH 64F d   1      14.486 -10.260  -6.725  0.00  0.00     0.181 A 
ATOM     12  NAN 64F d   1      15.092 -10.081  -5.576  0.00  0.00    -0.256 N 
ATOM     13  NAM 64F d   1      15.810  -9.021  -5.653  0.00  0.00    -0.176 NA
ATOM     14  CAL 64F d   1      15.714  -8.524  -6.862  0.00  0.00     0.070 A 
ATOM     15  H1  64F d   1      15.282  -7.551  -9.689  0.00  0.00     0.084 H 
ATOM     16  H2  64F d   1      14.365  -7.736 -11.958  0.00  0.00     0.083 H 
ATOM     17  H3  64F d   1      12.755  -9.579 -12.514  0.00  0.00     0.083 H 
ATOM     18  H4  64F d   1      12.250 -11.255 -10.780  0.00  0.00     0.085 H 
ATOM     19  H5  64F d   1      15.006 -10.690  -4.750  0.00  0.00     0.191 HD
ENDROOT
BRANCH  14  20
ATOM     20  CAO 64F d   1      16.494  -7.279  -7.251  0.00  0.00    -0.022 C 
ATOM     21  H6  64F d   1      15.811  -6.519  -7.657  0.00  0.00     0.042 H 
ATOM     22  H7  64F d   1      17.253  -7.532  -8.006  0.00  0.00     0.042 H 
BRANCH  20  23
ATOM     23  CAP 64F d   1      17.175  -6.747  -5.980  0.00  0.00    -0.060 C 
ATOM     24  H8  64F d   1      17.768  -7.548  -5.514  0.00  0.00     0.033 H 
ATOM     25  H9  64F d   1      16.412  -6.395  -5.270  0.00  0.00     0.033 H 
BRANCH  23  26
ATOM     26  CAQ 64F d   1      18.092  -5.586  -6.371  0.00  0.00    -0.068 C 
ATOM     27  H10 64F d   1      17.512  -4.822  -6.910  0.00  0.00     0.032 H 
ATOM     28  H11 64F d   1      18.902  -5.956  -7.017  0.00  0.00     0.032 H 
BRANCH  26  29
ATOM     29  CAR 64F d   1      18.689  -4.975  -5.091  0.00  0.00    -0.077 C 
ATOM     30  H12 64F d   1      19.351  -4.138  -5.358  0.00  0.00     0.027 H 
ATOM     31  H13 64F d   1      19.266  -5.742  -4.553  0.00  0.00     0.027 H 
ATOM     32  H14 64F d   1      17.877  -4.608  -4.446  0.00  0.00     0.027 H 
ENDBRANCH  26  29
ENDBRANCH  23  26
ENDBRANCH  20  23
ENDBRANCH  14  20
TORSDOF 4
