REMARK  6 active torsions:
REMARK  status: ('A' for Active; 'I' for Inactive)
REMARK    1  A    between atoms: C2'_10  and  O2'_11 
REMARK    2  A    between atoms: C1'_12  and  N9_13 
REMARK    3  A    between atoms: C2_20  and  N2_21 
REMARK    4  A    between atoms: C2A_33  and  O2A_34 
REMARK    5  A    between atoms: C1A_35  and  N91_36 
REMARK    6  A    between atoms: C21_43  and  N21_44 
ROOT
ATOM      1  P1  C2E d   1      -1.270 -15.464  -9.930  0.00  0.00     0.408 P 
ATOM      2  O2P C2E d   1      -2.107 -14.327 -10.463  0.00  0.00    -0.624 OA
ATOM      3  O1P C2E d   1      -1.939 -16.190  -8.782  0.00  0.00    -0.624 OA
ATOM      4  O5' C2E d   1      -0.977 -16.453 -11.127  0.00  0.00    -0.287 OA
ATOM      5  C5' C2E d   1      -0.116 -17.557 -11.088  0.00  0.00     0.058 C 
ATOM      6  C4' C2E d   1       0.173 -18.146 -12.391  0.00  0.00     0.090 C 
ATOM      7  O4' C2E d   1      -0.989 -18.643 -12.982  0.00  0.00    -0.353 OA
ATOM      8  C3' C2E d   1       0.719 -17.131 -13.357  0.00  0.00     0.106 C 
ATOM      9  O3' C2E d   1       2.126 -17.153 -13.337  0.00  0.00    -0.279 OA
ATOM     10  C2' C2E d   1       0.146 -17.474 -14.582  0.00  0.00     0.106 C 
ATOM     11  C1' C2E d   1      -1.132 -18.167 -14.288  0.00  0.00     0.140 C 
ATOM     12  P11 C2E d   1       2.972 -15.812 -13.488  0.00  0.00     0.408 P 
ATOM     13  O21 C2E d   1       4.448 -16.142 -13.635  0.00  0.00    -0.624 OA
ATOM     14  O11 C2E d   1       2.511 -15.130 -14.743  0.00  0.00    -0.624 OA
ATOM     15  O5A C2E d   1       2.680 -14.813 -12.325  0.00  0.00    -0.287 OA
ATOM     16  C5A C2E d   1       2.990 -15.123 -10.976  0.00  0.00     0.058 C 
ATOM     17  C4A C2E d   1       2.372 -14.287  -9.979  0.00  0.00     0.090 C 
ATOM     18  O4A C2E d   1       2.924 -12.927 -10.051  0.00  0.00    -0.353 OA
ATOM     19  C3A C2E d   1       0.919 -14.107 -10.191  0.00  0.00     0.106 C 
ATOM     20  O3A C2E d   1       0.118 -14.942  -9.379  0.00  0.00    -0.279 OA
ATOM     21  C2A C2E d   1       0.645 -12.684  -9.909  0.00  0.00     0.106 C 
ATOM     22  C1A C2E d   1       1.908 -11.968 -10.229  0.00  0.00     0.140 C 
ATOM     23  H1  C2E d   1      -0.578 -18.330 -10.456  0.00  0.00     0.079 H 
ATOM     24  H2  C2E d   1       0.835 -17.235 -10.638  0.00  0.00     0.079 H 
ATOM     25  H3  C2E d   1       0.902 -18.959 -12.256  0.00  0.00     0.090 H 
ATOM     26  H4  C2E d   1       0.389 -16.121 -13.073  0.00  0.00     0.092 H 
ATOM     27  H5  C2E d   1      -0.051 -16.565 -15.169  0.00  0.00     0.093 H 
ATOM     28  H7  C2E d   1      -1.306 -18.986 -15.001  0.00  0.00     0.122 H 
ATOM     29  H12 C2E d   1       4.080 -15.043 -10.854  0.00  0.00     0.079 H 
ATOM     30  H13 C2E d   1       2.675 -16.160 -10.788  0.00  0.00     0.079 H 
ATOM     31  H14 C2E d   1       2.554 -14.725  -8.987  0.00  0.00     0.090 H 
ATOM     32  H15 C2E d   1       0.681 -14.326 -11.242  0.00  0.00     0.092 H 
ATOM     33  H16 C2E d   1      -0.178 -12.332 -10.548  0.00  0.00     0.093 H 
ATOM     34  H18 C2E d   1       2.024 -11.136  -9.518  0.00  0.00     0.122 H 
ENDROOT
BRANCH  11  35
ATOM     35  N9  C2E d   1      -2.235 -17.256 -14.299  0.00  0.00    -0.293 N 
ATOM     36  C8  C2E d   1      -2.513 -16.032 -13.859  0.00  0.00     0.071 A 
ATOM     37  N7  C2E d   1      -3.790 -15.796 -14.185  0.00  0.00    -0.235 NA
ATOM     38  H8  C2E d   1      -1.837 -15.356 -13.338  0.00  0.00     0.144 H 
ATOM     39  C5  C2E d   1      -4.301 -16.888 -14.828  0.00  0.00     0.159 A 
ATOM     40  C6  C2E d   1      -5.571 -17.148 -15.356  0.00  0.00     0.226 A 
ATOM     41  C4  C2E d   1      -3.289 -17.870 -14.912  0.00  0.00     0.185 A 
ATOM     42  O6  C2E d   1      -6.548 -16.222 -15.287  0.00  0.00    -0.169 OA
ATOM     43  N1  C2E d   1      -5.802 -18.327 -15.946  0.00  0.00    -0.164 N 
ATOM     44  C2  C2E d   1      -4.832 -19.243 -16.010  0.00  0.00     0.702 A 
ATOM     45  H9  C2E d   1      -6.701 -18.522 -16.339  0.00  0.00     0.186 HD
ATOM     46  N3  C2E d   1      -3.592 -19.043 -15.512  0.00  0.00    -0.044 NA
BRANCH  44  47
ATOM     47  N2  C2E d   1      -5.142 -20.482 -16.653  0.00  0.00    -0.233 N 
ATOM     48  H10 C2E d   1      -4.425 -21.218 -16.726  0.00  0.00     0.174 HD
ATOM     49  H11 C2E d   1      -6.082 -20.639 -17.043  0.00  0.00     0.174 HD
ENDBRANCH  44  47
ENDBRANCH  11  35
BRANCH  10  50
ATOM     50  O2' C2E d   1       1.034 -18.334 -15.328  0.00  0.00    -0.388 OA
ATOM     51  H6  C2E d   1       1.854 -17.881 -15.485  0.00  0.00     0.210 HD
ENDBRANCH  10  50
BRANCH  21  52
ATOM     52  O2A C2E d   1       0.337 -12.429  -8.597  0.00  0.00    -0.388 OA
ATOM     53  H17 C2E d   1       0.173 -11.500  -8.486  0.00  0.00     0.210 HD
ENDBRANCH  21  52
BRANCH  22  54
ATOM     54  N91 C2E d   1       2.085 -11.442 -11.576  0.00  0.00    -0.293 N 
ATOM     55  C81 C2E d   1       1.557 -11.882 -12.735  0.00  0.00     0.071 A 
ATOM     56  N71 C2E d   1       2.015 -11.131 -13.752  0.00  0.00    -0.235 NA
ATOM     57  H19 C2E d   1       0.866 -12.718 -12.833  0.00  0.00     0.144 H 
ATOM     58  C51 C2E d   1       2.857 -10.201 -13.241  0.00  0.00     0.159 A 
ATOM     59  C61 C2E d   1       3.636  -9.164 -13.766  0.00  0.00     0.226 A 
ATOM     60  C41 C2E d   1       2.898 -10.410 -11.869  0.00  0.00     0.185 A 
ATOM     61  O61 C2E d   1       3.672  -8.888 -15.122  0.00  0.00    -0.169 OA
ATOM     62  N11 C2E d   1       4.370  -8.416 -12.944  0.00  0.00    -0.164 N 
ATOM     63  C21 C2E d   1       4.377  -8.642 -11.634  0.00  0.00     0.702 A 
ATOM     64  H20 C2E d   1       4.925  -7.673 -13.318  0.00  0.00     0.186 HD
ATOM     65  N31 C2E d   1       3.659  -9.625 -11.077  0.00  0.00    -0.044 NA
BRANCH  63  66
ATOM     66  N21 C2E d   1       5.182  -7.791 -10.853  0.00  0.00    -0.233 N 
ATOM     67  H21 C2E d   1       5.227  -7.919  -9.832  0.00  0.00     0.174 HD
ATOM     68  H22 C2E d   1       5.726  -7.041 -11.303  0.00  0.00     0.174 HD
ENDBRANCH  63  66
ENDBRANCH  22  54
TORSDOF 6
