REMARK  6 active torsions:
REMARK  status: ('A' for Active; 'I' for Inactive)
REMARK    1  A    between atoms: C1_1  and  C20_6 
REMARK    2  A    between atoms: C13_10  and  C14_3 
REMARK    3  A    between atoms: N10_19  and  C17_4 
REMARK    4  A    between atoms: C3_16  and  C24_7 
REMARK    5  A    between atoms: C25_26  and  C26_9 
REMARK    6  A    between atoms: C7_14  and  C13_10 
ROOT
ATOM      1  C11 66J d   1      22.227   9.898  23.770  0.00  0.00     0.683 C 
ATOM      2  C13 66J d   1      21.343  10.348  21.452  0.00  0.00     0.093 C 
ATOM      3  C8  66J d   1      20.542  11.534  21.952  0.00  0.00     0.075 C 
ATOM      4  S9  66J d   1      21.484  12.512  23.088  0.00  0.00     0.248 S 
ATOM      5  N10 66J d   1      22.366  11.310  23.960  0.00  0.00    -0.113 N 
ATOM      6  N12 66J d   1      21.571   9.507  22.623  0.00  0.00    -0.211 N 
ATOM      7  N15 66J d   1      22.711   9.074  24.639  0.00  0.00    -0.234 N 
ATOM      8  O16 66J d   1      20.556  13.142  24.011  0.00  0.00    -0.205 OA
ATOM      9  O18 66J d   1      22.453  13.301  22.358  0.00  0.00    -0.205 OA
ATOM     10  H14 66J d   1      19.637  11.168  22.459  0.00  0.00     0.063 H 
ATOM     11  H15 66J d   1      20.254  12.159  21.094  0.00  0.00     0.063 H 
ATOM     12  H16 66J d   1      21.212   8.542  22.589  0.00  0.00     0.179 HD
ATOM     13  H17 66J d   1      23.191   9.432  25.477  0.00  0.00     0.174 HD
ATOM     14  H18 66J d   1      22.617   8.059  24.494  0.00  0.00     0.174 HD
ENDROOT
BRANCH   2  15
ATOM     15  C14 66J d   1      20.422   9.537  20.559  0.00  0.00    -0.047 C 
ATOM     16  H1  66J d   1      19.523   9.250  21.124  0.00  0.00     0.031 H 
ATOM     17  H2  66J d   1      20.945   8.631  20.218  0.00  0.00     0.031 H 
ATOM     18  H3  66J d   1      20.130  10.142  19.688  0.00  0.00     0.031 H 
ENDBRANCH   2  15
BRANCH   2  19
ATOM     19  C7  66J d   1      22.574  10.743  20.686  0.00  0.00     0.034 A 
ATOM     20  C22 66J d   1      22.741  11.628  19.631  0.00  0.00     0.051 A 
ATOM     21  C21 66J d   1      24.099  11.714  19.215  0.00  0.00    -0.043 A 
ATOM     22 CL23 66J d   1      21.495  12.572  18.905  0.00  0.00    -0.083 Cl
ATOM     23  C20 66J d   1      24.977  10.901  19.903  0.00  0.00     0.018 A 
ATOM     24  H7  66J d   1      24.422  12.374  18.411  0.00  0.00     0.088 H 
ATOM     25  S19 66J d   1      24.096  10.052  21.101  0.00  0.00    -0.090 SA
BRANCH  23  26
ATOM     26  C1  66J d   1      26.416  10.778  19.825  0.00  0.00    -0.000 A 
ATOM     27  C2  66J d   1      27.130  10.183  20.845  0.00  0.00    -0.051 A 
ATOM     28  C3  66J d   1      28.505  10.142  20.811  0.00  0.00     0.036 A 
ATOM     29  H11 66J d   1      26.602   9.743  21.683  0.00  0.00     0.087 H 
ATOM     30  C4  66J d   1      29.148  10.741  19.748  0.00  0.00     0.020 A 
ATOM     31  N5  66J d   1      28.494  11.333  18.732  0.00  0.00    -0.271 NA
ATOM     32  H12 66J d   1      30.232  10.735  19.730  0.00  0.00     0.117 H 
ATOM     33  C6  66J d   1      27.154  11.329  18.793  0.00  0.00     0.013 A 
ATOM     34  H13 66J d   1      26.611  11.790  17.976  0.00  0.00     0.116 H 
BRANCH  28  35
ATOM     35  C24 66J d   1      29.218   9.531  21.884  0.00  0.00    -0.066 C 
ATOM     36  C25 66J d   1      29.799   9.005  22.794  0.00  0.00    -0.105 C 
BRANCH  36  37
ATOM     37  C26 66J d   1      30.538   8.347  23.864  0.00  0.00    -0.021 C 
ATOM     38  H8  66J d   1      30.058   8.565  24.829  0.00  0.00     0.044 H 
ATOM     39  H9  66J d   1      31.573   8.719  23.877  0.00  0.00     0.044 H 
ATOM     40  H10 66J d   1      30.541   7.260  23.693  0.00  0.00     0.044 H 
ENDBRANCH  36  37
ENDBRANCH  28  35
ENDBRANCH  23  26
ENDBRANCH   2  19
BRANCH   5  41
ATOM     41  C17 66J d   1      23.259  11.886  24.990  0.00  0.00     0.013 C 
ATOM     42  H4  66J d   1      23.791  11.075  25.509  0.00  0.00     0.059 H 
ATOM     43  H5  66J d   1      22.661  12.456  25.716  0.00  0.00     0.059 H 
ATOM     44  H6  66J d   1      23.989  12.555  24.510  0.00  0.00     0.059 H 
ENDBRANCH   5  41
TORSDOF 6
