REMARK  10 active torsions:
REMARK  status: ('A' for Active; 'I' for Inactive)
REMARK    1  A    between atoms: NBN_3  and  CAB_4 
REMARK    2  A    between atoms: NBO_7  and  CAZ_8 
REMARK    3  A    between atoms: CAZ_8  and  CBJ_9 
REMARK    4  A    between atoms: CBL_10  and  CBQ_11 
REMARK    5  A    between atoms: CBI_18  and  CBD_19 
REMARK       I    between atoms: CBD_19  and  NBB_21 
REMARK    6  A    between atoms: NBB_21  and  CBG_22 
REMARK    7  A    between atoms: CBF_26  and  CAA_27 
REMARK    8  A    between atoms: CBK_28  and  OBC_29 
REMARK    9  A    between atoms: OBC_29  and  CBM_30 
REMARK       I    between atoms: NBP_35  and  CBE_36 
REMARK   10  A    between atoms: CBE_36  and  CBH_38 
ROOT
ATOM      1  CBG 66K d   1      -6.955 -29.859 -15.027  0.00  0.00     0.037 A 
ATOM      2  CAP 66K d   1      -5.711 -29.980 -15.634  0.00  0.00    -0.025 A 
ATOM      3  CAL 66K d   1      -7.586 -31.048 -14.740  0.00  0.00    -0.057 A 
ATOM      4  CAK 66K d   1      -6.995 -32.252 -15.012  0.00  0.00    -0.072 A 
ATOM      5  CBF 66K d   1      -5.774 -32.352 -15.582  0.00  0.00    -0.029 A 
ATOM      6  CBK 66K d   1      -5.112 -31.209 -15.894  0.00  0.00     0.077 A 
ATOM      7  H20 66K d   1      -5.183 -29.077 -15.918  0.00  0.00     0.091 H 
ATOM      8  H21 66K d   1      -8.572 -31.030 -14.289  0.00  0.00     0.086 H 
ATOM      9  H22 66K d   1      -7.528 -33.162 -14.760  0.00  0.00     0.084 H 
ENDROOT
BRANCH   1  10
ATOM     10  NBB 66K d   1      -7.642 -28.740 -14.743  0.00  0.00    -0.323 N 
ATOM     11  CBD 66K d   1      -7.556 -27.628 -15.493  0.00  0.00     0.256 C 
ATOM     12  OAC 66K d   1      -6.704 -27.527 -16.322  0.00  0.00    -0.267 OA
ATOM     13  H19 66K d   1      -8.241 -28.734 -13.942  0.00  0.00     0.169 HD
BRANCH  11  14
ATOM     14  CBI 66K d   1      -8.396 -26.528 -15.185  0.00  0.00     0.033 A 
ATOM     15  CAQ 66K d   1      -8.586 -25.447 -16.057  0.00  0.00    -0.052 A 
ATOM     16  CBL 66K d   1      -9.403 -24.361 -15.784  0.00  0.00     0.056 A 
ATOM     17  H16 66K d   1      -8.061 -25.461 -17.005  0.00  0.00     0.086 H 
ATOM     18  CBJ 66K d   1     -10.074 -24.298 -14.574  0.00  0.00    -0.017 A 
ATOM     19  CAN 66K d   1      -9.907 -25.359 -13.702  0.00  0.00    -0.073 A 
ATOM     20  CAM 66K d   1      -9.086 -26.432 -14.001  0.00  0.00    -0.067 A 
ATOM     21  H17 66K d   1     -10.435 -25.349 -12.756  0.00  0.00     0.084 H 
ATOM     22  H18 66K d   1      -8.983 -27.228 -13.272  0.00  0.00     0.085 H 
BRANCH  16  23
ATOM     23  CBQ 66K d   1      -9.556 -23.298 -16.728  0.00  0.00     0.418 C 
ATOM     24  FAF 66K d   1      -9.001 -23.663 -17.878  0.00  0.00    -0.166 F 
ATOM     25  FAG 66K d   1      -8.959 -22.200 -16.276  0.00  0.00    -0.166 F 
ATOM     26  FAE 66K d   1     -10.849 -23.053 -16.917  0.00  0.00    -0.166 F 
ENDBRANCH  16  23
BRANCH  18  27
ATOM     27  CAZ 66K d   1     -10.885 -23.212 -14.226  0.00  0.00     0.108 C 
ATOM     28  H14 66K d   1     -10.601 -22.360 -14.861  0.00  0.00     0.083 H 
ATOM     29  H15 66K d   1     -11.930 -23.489 -14.430  0.00  0.00     0.083 H 
BRANCH  27  30
ATOM     30  NBO 66K d   1     -10.796 -22.784 -12.827  0.00  0.00    -0.064 N 
ATOM     31  CAX 66K d   1      -9.513 -22.414 -12.356  0.00  0.00     0.106 C 
ATOM     32  CAV 66K d   1      -9.502 -22.052 -10.882  0.00  0.00     0.105 C 
ATOM     33  H1  66K d   1      -8.825 -23.258 -12.515  0.00  0.00     0.078 H 
ATOM     34  H2  66K d   1      -9.166 -21.544 -12.933  0.00  0.00     0.078 H 
ATOM     35  NBN 66K d   1     -10.510 -21.051 -10.603  0.00  0.00    -0.072 N 
ATOM     36  H3  66K d   1      -8.512 -21.655 -10.613  0.00  0.00     0.078 H 
ATOM     37  H4  66K d   1      -9.710 -22.953 -10.286  0.00  0.00     0.078 H 
ATOM     38  CAW 66K d   1     -11.804 -21.493 -11.037  0.00  0.00     0.105 C 
ATOM     39  H5  66K d   1     -10.280 -20.225 -11.132  0.00  0.00     0.279 HD
ATOM     40  CAY 66K d   1     -11.799 -21.795 -12.500  0.00  0.00     0.106 C 
ATOM     41  H9  66K d   1     -12.542 -20.703 -10.835  0.00  0.00     0.078 H 
ATOM     42  H10 66K d   1     -12.079 -22.402 -10.482  0.00  0.00     0.078 H 
ATOM     43  H11 66K d   1     -11.586 -20.870 -13.056  0.00  0.00     0.078 H 
ATOM     44  H12 66K d   1     -12.788 -22.178 -12.791  0.00  0.00     0.078 H 
ATOM     45  H13 66K d   1     -11.038 -23.604 -12.293  0.00  0.00     0.280 HD
BRANCH  35  46
ATOM     46  CAB 66K d   1     -10.489 -20.687  -9.187  0.00  0.00     0.066 C 
ATOM     47  H6  66K d   1     -11.260 -19.927  -8.992  0.00  0.00     0.068 H 
ATOM     48  H7  66K d   1      -9.500 -20.281  -8.927  0.00  0.00     0.068 H 
ATOM     49  H8  66K d   1     -10.691 -21.579  -8.576  0.00  0.00     0.068 H 
ENDBRANCH  35  46
ENDBRANCH  27  30
ENDBRANCH  18  27
ENDBRANCH  11  14
ENDBRANCH   1  10
BRANCH   6  50
ATOM     50  OBC 66K d   1      -3.925 -31.431 -16.424  0.00  0.00    -0.345 OA
BRANCH  50  51
ATOM     51  CBM 66K d   1      -3.246 -30.372 -17.068  0.00  0.00     0.048 C 
ATOM     52  CAS 66K d   1      -3.840 -30.039 -18.398  0.00  0.00    -0.025 C 
ATOM     53  CAU 66K d   1      -3.640 -31.125 -19.426  0.00  0.00     0.000 C 
ATOM     54  H27 66K d   1      -3.371 -29.116 -18.769  0.00  0.00     0.039 H 
ATOM     55  H28 66K d   1      -4.920 -29.875 -18.268  0.00  0.00     0.039 H 
ATOM     56  NBP 66K d   1      -2.284 -31.505 -19.532  0.00  0.00    -0.348 N 
ATOM     57  H29 66K d   1      -3.984 -30.757 -20.404  0.00  0.00     0.064 H 
ATOM     58  H30 66K d   1      -4.234 -32.004 -19.135  0.00  0.00     0.064 H 
ATOM     59  CAT 66K d   1      -1.621 -31.757 -18.277  0.00  0.00     0.000 C 
ATOM     60  CBE 66K d   1      -1.681 -31.638 -20.723  0.00  0.00     0.255 C 
ATOM     61  CAR 66K d   1      -1.839 -30.691 -17.240  0.00  0.00    -0.025 C 
ATOM     62  H33 66K d   1      -1.994 -32.711 -17.875  0.00  0.00     0.064 H 
ATOM     63  H34 66K d   1      -0.541 -31.837 -18.468  0.00  0.00     0.064 H 
ATOM     64  H31 66K d   1      -1.436 -31.044 -16.279  0.00  0.00     0.039 H 
ATOM     65  H32 66K d   1      -1.305 -29.781 -17.550  0.00  0.00     0.039 H 
ATOM     66  OAD 66K d   1      -2.295 -31.481 -21.744  0.00  0.00    -0.267 OA
ATOM     67  H26 66K d   1      -3.325 -29.482 -16.426  0.00  0.00     0.084 H 
BRANCH  60  68
ATOM     68  CBH 66K d   1      -0.312 -31.867 -20.833  0.00  0.00     0.049 A 
ATOM     69  CAJ 66K d   1       0.593 -31.086 -20.163  0.00  0.00    -0.065 A 
ATOM     70  CAH 66K d   1       1.932 -31.218 -20.235  0.00  0.00    -0.065 A 
ATOM     71  H35 66K d   1       0.201 -30.301 -19.526  0.00  0.00     0.085 H 
ATOM     72  CAI 66K d   1       2.468 -32.162 -21.042  0.00  0.00     0.002 A 
ATOM     73  H36 66K d   1       2.576 -30.572 -19.650  0.00  0.00     0.085 H 
ATOM     74  NBA 66K d   1       1.581 -32.929 -21.757  0.00  0.00    -0.272 NA
ATOM     75  H37 66K d   1       3.540 -32.305 -21.120  0.00  0.00     0.114 H 
ATOM     76  CAO 66K d   1       0.236 -32.785 -21.675  0.00  0.00     0.017 A 
ATOM     77  H38 66K d   1      -0.409 -33.407 -22.285  0.00  0.00     0.116 H 
ENDBRANCH  60  68
ENDBRANCH  50  51
ENDBRANCH   6  50
BRANCH   5  78
ATOM     78  CAA 66K d   1      -5.217 -33.551 -15.859  0.00  0.00    -0.049 C 
ATOM     79  H23 66K d   1      -5.896 -34.354 -15.537  0.00  0.00     0.033 H 
ATOM     80  H24 66K d   1      -4.260 -33.643 -15.324  0.00  0.00     0.033 H 
ATOM     81  H25 66K d   1      -5.041 -33.632 -16.942  0.00  0.00     0.033 H 
ENDBRANCH   5  78
TORSDOF 10
