REMARK  9 active torsions:
REMARK  status: ('A' for Active; 'I' for Inactive)
REMARK    1  A    between atoms: N1_8  and  C1'_9 
REMARK    2  A    between atoms: C3'_11  and  O3'_12 
REMARK    3  A    between atoms: C4'_14  and  C5'_15 
REMARK    4  A    between atoms: C5'_15  and  O5'_16 
REMARK    5  A    between atoms: O5'_16  and  PA_17 
REMARK    6  A    between atoms: PA_17  and  N3A_20 
REMARK    7  A    between atoms: N3A_20  and  PB_21 
REMARK    8  A    between atoms: PB_21  and  O3B_24 
REMARK    9  A    between atoms: O3B_24  and  PG_25 
ROOT
ATOM      1  C1' DUP d   1      28.395-184.348  27.312  0.00  0.00     0.116 C 
ATOM      2  C2' DUP d   1      27.785-183.426  26.576  0.00  0.00     0.002 C 
ATOM      3  C3' DUP d   1      28.040-183.860  25.037  0.00  0.00     0.066 C 
ATOM      4  O4' DUP d   1      29.531-184.958  26.382  0.00  0.00    -0.356 OA
ATOM      5  C4' DUP d   1      29.340-184.277  25.030  0.00  0.00     0.087 C 
ATOM      6  H4  DUP d   1      27.665-185.123  27.587  0.00  0.00     0.118 H 
ATOM      7  H5  DUP d   1      28.215-182.433  26.771  0.00  0.00     0.043 H 
ATOM      8  H6  DUP d   1      26.707-183.409  26.797  0.00  0.00     0.043 H 
ATOM      9  H7  DUP d   1      27.880-183.019  24.346  0.00  0.00     0.087 H 
ATOM     10  H9  DUP d   1      29.539-184.964  24.194  0.00  0.00     0.090 H 
ENDROOT
BRANCH   5  11
ATOM     11  C5' DUP d   1      30.263-183.072  24.970  0.00  0.00     0.057 C 
ATOM     12  H10 DUP d   1      29.830-182.246  25.553  0.00  0.00     0.079 H 
ATOM     13  H11 DUP d   1      30.389-182.756  23.924  0.00  0.00     0.079 H 
BRANCH  11  14
ATOM     14  O5' DUP d   1      31.501-183.422  25.504  0.00  0.00    -0.293 OA
BRANCH  14  15
ATOM     15  PA  DUP d   1      32.863-182.953  24.705  0.00  0.00     0.368 P 
ATOM     16  O1A DUP d   1      32.855-181.455  24.502  0.00  0.00    -0.629 OA
ATOM     17  O2A DUP d   1      34.055-183.401  25.515  0.00  0.00    -0.629 OA
BRANCH  15  18
ATOM     18  N3A DUP d   1      32.925-183.846  23.254  0.00  0.00    -0.225 N 
ATOM     19  H12 DUP d   1      33.305-184.770  23.305  0.00  0.00     0.178 HD
BRANCH  18  20
ATOM     20  PB  DUP d   1      32.401-183.311  21.727  0.00  0.00     0.379 P 
ATOM     21  O1B DUP d   1      31.589-184.414  21.088  0.00  0.00    -0.629 OA
ATOM     22  O2B DUP d   1      31.554-182.064  21.797  0.00  0.00    -0.629 OA
BRANCH  20  23
ATOM     23  O3B DUP d   1      33.755-183.042  20.841  0.00  0.00    -0.178 OA
BRANCH  23  24
ATOM     24  PG  DUP d   1      34.565-181.612  20.883  0.00  0.00     0.431 P 
ATOM     25  O2G DUP d   1      34.292-180.880  19.588  0.00  0.00    -0.616 OA
ATOM     26  O1G DUP d   1      36.051-181.835  21.053  0.00  0.00    -0.616 OA
ATOM     27  O3G DUP d   1      34.007-180.762  21.991  0.00  0.00    -0.616 OA
ENDBRANCH  23  24
ENDBRANCH  20  23
ENDBRANCH  18  20
ENDBRANCH  15  18
ENDBRANCH  14  15
ENDBRANCH  11  14
ENDBRANCH   5  11
BRANCH   3  28
ATOM     28  O3' DUP d   1      27.187-184.946  24.705  0.00  0.00    -0.393 OA
ATOM     29  H8  DUP d   1      27.337-185.200  23.802  0.00  0.00     0.210 HD
ENDBRANCH   3  28
BRANCH   1  30
ATOM     30  N1  DUP d   1      29.034-183.867  28.524  0.00  0.00    -0.282 N 
ATOM     31  C6  DUP d   1      30.362-183.813  28.598  0.00  0.00    -0.008 A 
ATOM     32  C5  DUP d   1      30.973-183.407  29.750  0.00  0.00    -0.002 A 
ATOM     33  H2  DUP d   1      30.964-184.094  27.735  0.00  0.00     0.112 H 
ATOM     34  C4  DUP d   1      30.230-183.056  30.832  0.00  0.00     0.250 A 
ATOM     35  H1  DUP d   1      32.060-183.364  29.802  0.00  0.00     0.094 H 
ATOM     36  O4  DUP d   1      30.754-182.688  31.851  0.00  0.00    -0.268 OA
ATOM     37  N3  DUP d   1      28.906-183.126  30.748  0.00  0.00    -0.275 N 
ATOM     38  C2  DUP d   1      28.298-183.538  29.611  0.00  0.00     0.331 A 
ATOM     39  H3  DUP d   1      28.349-182.870  31.538  0.00  0.00     0.173 HD
ATOM     40  O2  DUP d   1      27.114-183.598  29.575  0.00  0.00    -0.246 OA
ENDBRANCH   1  30
TORSDOF 9
