REMARK  6 active torsions:
REMARK  status: ('A' for Active; 'I' for Inactive)
REMARK    1  A    between atoms: C2_1  and  N12_9 
REMARK    2  A    between atoms: C5_4  and  O8_7 
REMARK    3  A    between atoms: C14_11  and  C17_14 
REMARK    4  A    between atoms: C23_20  and  O27_24 
REMARK    5  A    between atoms: O27_24  and  C28_25 
REMARK    6  A    between atoms: C32_29  and  C34_31 
ROOT
ATOM      1  C17 65V d   1      -9.105  -4.320  -3.704  0.00  0.00     0.089 A 
ATOM      2  C18 65V d   1      -8.151  -5.126  -3.098  0.00  0.00    -0.052 A 
ATOM      3  C19 65V d   1      -7.144  -4.529  -2.356  0.00  0.00    -0.066 A 
ATOM      4  C20 65V d   1      -7.145  -3.137  -2.232  0.00  0.00     0.027 A 
ATOM      5  C21 65V d   1      -8.155  -2.378  -2.860  0.00  0.00     0.070 A 
ATOM      6  N22 65V d   1      -9.120  -2.984  -3.596  0.00  0.00    -0.246 NA
ATOM      7  C23 65V d   1      -6.164  -2.470  -1.495  0.00  0.00     0.088 A 
ATOM      8  C24 65V d   1      -6.183  -1.080  -1.397  0.00  0.00    -0.049 A 
ATOM      9  C25 65V d   1      -7.178  -0.341  -2.036  0.00  0.00    -0.078 A 
ATOM     10  C26 65V d   1      -8.165  -0.988  -2.761  0.00  0.00    -0.054 A 
ATOM     11  H6  65V d   1      -8.193  -6.204  -3.203  0.00  0.00     0.087 H 
ATOM     12  H7  65V d   1      -6.374  -5.128  -1.883  0.00  0.00     0.085 H 
ATOM     13  H8  65V d   1      -5.420  -0.570  -0.821  0.00  0.00     0.087 H 
ATOM     14  H9  65V d   1      -7.179   0.741  -1.965  0.00  0.00     0.083 H 
ATOM     15  H10 65V d   1      -8.944  -0.414  -3.250  0.00  0.00     0.087 H 
ENDROOT
BRANCH   1  16
ATOM     16  C14 65V d   1     -10.168  -4.918  -4.518  0.00  0.00     0.120 A 
ATOM     17  C13 65V d   1     -10.321  -6.191  -4.991  0.00  0.00     0.032 A 
ATOM     18  N12 65V d   1     -11.435  -6.173  -5.705  0.00  0.00    -0.247 N 
ATOM     19  H5  65V d   1      -9.664  -7.042  -4.817  0.00  0.00     0.118 H 
ATOM     20  N16 65V d   1     -12.086  -4.966  -5.752  0.00  0.00     0.010 NA
ATOM     21  N15 65V d   1     -11.207  -4.199  -5.008  0.00  0.00    -0.156 NA
BRANCH  18  22
ATOM     22  C2  65V d   1     -12.017  -7.284  -6.353  0.00  0.00     0.057 A 
ATOM     23  C3  65V d   1     -13.381  -7.367  -6.546  0.00  0.00    -0.015 A 
ATOM     24  C4  65V d   1     -13.908  -8.466  -7.176  0.00  0.00     0.151 A 
ATOM     25  H1  65V d   1     -14.031  -6.570  -6.203  0.00  0.00     0.091 H 
ATOM     26  C5  65V d   1     -13.154  -9.509  -7.647  0.00  0.00     0.104 A 
ATOM     27  F10 65V d   1     -15.229  -8.543  -7.328  0.00  0.00    -0.203 F 
ATOM     28  C6  65V d   1     -11.788  -9.423  -7.459  0.00  0.00    -0.046 A 
ATOM     29  C7  65V d   1     -11.222  -8.326  -6.812  0.00  0.00    -0.053 A 
ATOM     30  H2  65V d   1     -11.148 -10.220  -7.820  0.00  0.00     0.087 H 
ATOM     31  H3  65V d   1     -10.149  -8.286  -6.665  0.00  0.00     0.087 H 
BRANCH  26  32
ATOM     32  O8  65V d   1     -13.732 -10.599  -8.256  0.00  0.00    -0.358 OA
ATOM     33  H4  65V d   1     -14.673 -10.477  -8.294  0.00  0.00     0.217 HD
ENDBRANCH  26  32
ENDBRANCH  18  22
ENDBRANCH   1  16
BRANCH   7  34
ATOM     34  O27 65V d   1      -5.213  -3.276  -0.919  0.00  0.00    -0.310 OA
BRANCH  34  35
ATOM     35  C28 65V d   1      -4.131  -2.700  -0.287  0.00  0.00     0.077 A 
ATOM     36  C29 65V d   1      -2.981  -2.281  -0.966  0.00  0.00    -0.050 A 
ATOM     37  C30 65V d   1      -1.917  -1.715  -0.264  0.00  0.00    -0.079 A 
ATOM     38  H11 65V d   1      -2.917  -2.397  -2.042  0.00  0.00     0.087 H 
ATOM     39  C31 65V d   1      -2.008  -1.563   1.119  0.00  0.00    -0.066 A 
ATOM     40  H12 65V d   1      -1.025  -1.395  -0.790  0.00  0.00     0.083 H 
ATOM     41  C32 65V d   1      -3.167  -1.976   1.792  0.00  0.00     0.043 A 
ATOM     42  H13 65V d   1      -1.185  -1.127   1.673  0.00  0.00     0.085 H 
ATOM     43  C33 65V d   1      -4.218  -2.546   1.086  0.00  0.00    -0.034 A 
ATOM     44  H14 65V d   1      -5.109  -2.871   1.611  0.00  0.00     0.089 H 
BRANCH  41  45
ATOM     45  C34 65V d   1      -3.307  -1.851   3.279  0.00  0.00     0.209 C 
ATOM     46  O35 65V d   1      -2.308  -1.495   3.945  0.00  0.00    -0.644 OA
ATOM     47  O36 65V d   1      -4.406  -2.126   3.815  0.00  0.00    -0.644 OA
ENDBRANCH  41  45
ENDBRANCH  34  35
ENDBRANCH   7  34
TORSDOF 6
