REMARK  4 active torsions:
REMARK  status: ('A' for Active; 'I' for Inactive)
REMARK    1  A    between atoms: N8_1  and  C1_13 
REMARK    2  A    between atoms: C22_9  and  O25_12 
REMARK    3  A    between atoms: C4_16  and  O7_19 
REMARK    4  A    between atoms: O7_19  and  C8_20 
ROOT
ATOM      1  N8  NVS d   1      32.375 -27.559 -24.534  0.00  0.00    -0.289 N 
ATOM      2  C9  NVS d   1      31.448 -27.401 -23.556  0.00  0.00     0.373 C 
ATOM      3  O10 NVS d   1      31.461 -28.308 -22.524  0.00  0.00    -0.260 OA
ATOM      4  C11 NVS d   1      32.573 -29.069 -22.271  0.00  0.00     0.091 A 
ATOM      5  C12 NVS d   1      33.507 -29.289 -23.245  0.00  0.00    -0.006 A 
ATOM      6  C13 NVS d   1      33.308 -28.680 -24.626  0.00  0.00     0.031 C 
ATOM      7  O14 NVS d   1      30.580 -26.536 -23.571  0.00  0.00    -0.237 OA
ATOM      8  C21 NVS d   1      32.725 -29.628 -21.000  0.00  0.00    -0.018 A 
ATOM      9  C22 NVS d   1      33.831 -30.418 -20.706  0.00  0.00     0.068 A 
ATOM     10  C23 NVS d   1      34.776 -30.663 -21.696  0.00  0.00    -0.050 A 
ATOM     11  C24 NVS d   1      34.609 -30.095 -22.956  0.00  0.00    -0.070 A 
ATOM     12  H1  NVS d   1      34.274 -28.322 -25.012  0.00  0.00     0.072 H 
ATOM     13  H2  NVS d   1      32.900 -29.441 -25.307  0.00  0.00     0.072 H 
ATOM     14  H3  NVS d   1      31.976 -29.445 -20.238  0.00  0.00     0.092 H 
ATOM     15  H4  NVS d   1      35.635 -31.291 -21.489  0.00  0.00     0.087 H 
ATOM     16  H5  NVS d   1      35.348 -30.282 -23.726  0.00  0.00     0.084 H 
ENDROOT
BRANCH   1  17
ATOM     17  C1  NVS d   1      32.395 -26.601 -25.557  0.00  0.00     0.040 A 
ATOM     18  C2  NVS d   1      31.287 -26.446 -26.386  0.00  0.00    -0.054 A 
ATOM     19  C3  NVS d   1      31.294 -25.502 -27.407  0.00  0.00    -0.049 A 
ATOM     20  H7  NVS d   1      30.411 -27.067 -26.234  0.00  0.00     0.087 H 
ATOM     21  C4  NVS d   1      32.413 -24.706 -27.613  0.00  0.00     0.068 A 
ATOM     22  H8  NVS d   1      30.424 -25.387 -28.044  0.00  0.00     0.087 H 
ATOM     23  C5  NVS d   1      33.511 -24.848 -26.774  0.00  0.00    -0.049 A 
ATOM     24  C6  NVS d   1      33.501 -25.800 -25.749  0.00  0.00    -0.054 A 
ATOM     25  H9  NVS d   1      34.381 -24.217 -26.914  0.00  0.00     0.087 H 
ATOM     26  H10 NVS d   1      34.365 -25.908 -25.104  0.00  0.00     0.087 H 
BRANCH  21  27
ATOM     27  O7  NVS d   1      32.380 -23.775 -28.621  0.00  0.00    -0.356 OA
BRANCH  27  28
ATOM     28  C8  NVS d   1      33.607 -23.270 -29.124  0.00  0.00     0.010 C 
ATOM     29  H11 NVS d   1      33.404 -22.540 -29.921  0.00  0.00     0.066 H 
ATOM     30  H12 NVS d   1      34.206 -24.099 -29.530  0.00  0.00     0.066 H 
ATOM     31  H13 NVS d   1      34.163 -22.780 -28.311  0.00  0.00     0.066 H 
ENDBRANCH  27  28
ENDBRANCH  21  27
ENDBRANCH   1  17
BRANCH   9  32
ATOM     32  O25 NVS d   1      33.961 -30.926 -19.442  0.00  0.00    -0.361 OA
ATOM     33  H6  NVS d   1      33.221 -30.651 -18.914  0.00  0.00     0.217 HD
ENDBRANCH   9  32
TORSDOF 4
