REMARK  9 active torsions:
REMARK  status: ('A' for Active; 'I' for Inactive)
REMARK    1  A    between atoms: N1_8  and  C1'_9 
REMARK    2  A    between atoms: C3'_11  and  O3'_12 
REMARK    3  A    between atoms: C4'_14  and  C5'_15 
REMARK    4  A    between atoms: C5'_15  and  O5'_16 
REMARK    5  A    between atoms: O5'_16  and  PA_17 
REMARK    6  A    between atoms: PA_17  and  N3A_20 
REMARK    7  A    between atoms: N3A_20  and  PB_21 
REMARK    8  A    between atoms: PB_21  and  O3B_24 
REMARK    9  A    between atoms: O3B_24  and  PG_25 
ROOT
ATOM      1  C1' DUP d   1      13.804   8.040 -29.723  0.00  0.00     0.116 C 
ATOM      2  C2' DUP d   1      13.077   9.095 -29.353  0.00  0.00     0.002 C 
ATOM      3  C3' DUP d   1      11.540   8.645 -29.557  0.00  0.00     0.066 C 
ATOM      4  O4' DUP d   1      12.872   7.120 -30.632  0.00  0.00    -0.356 OA
ATOM      5  C4' DUP d   1      11.591   7.921 -30.731  0.00  0.00     0.087 C 
ATOM      6  H4  DUP d   1      14.090   7.481 -28.820  0.00  0.00     0.118 H 
ATOM      7  H5  DUP d   1      13.311   9.965 -29.984  0.00  0.00     0.043 H 
ATOM      8  H6  DUP d   1      13.269   9.345 -28.299  0.00  0.00     0.043 H 
ATOM      9  H7  DUP d   1      10.872   9.512 -29.666  0.00  0.00     0.087 H 
ATOM     10  H9  DUP d   1      10.705   7.280 -30.852  0.00  0.00     0.090 H 
ENDROOT
BRANCH   5  11
ATOM     11  C5' DUP d   1      11.755   8.863 -31.912  0.00  0.00     0.057 C 
ATOM     12  H10 DUP d   1      12.551   9.589 -31.689  0.00  0.00     0.079 H 
ATOM     13  H11 DUP d   1      10.809   9.398 -32.084  0.00  0.00     0.079 H 
BRANCH  11  14
ATOM     14  O5' DUP d   1      12.095   8.144 -33.065  0.00  0.00    -0.293 OA
BRANCH  14  15
ATOM     15  PA  DUP d   1      11.379   8.581 -34.486  0.00  0.00     0.368 P 
ATOM     16  O1A DUP d   1      12.054   7.889 -35.649  0.00  0.00    -0.629 OA
ATOM     17  O2A DUP d   1      11.411  10.064 -34.673  0.00  0.00    -0.629 OA
BRANCH  15  18
ATOM     18  N3A DUP d   1       9.745   8.170 -34.521  0.00  0.00    -0.225 N 
ATOM     19  H12 DUP d   1       9.164   8.614 -35.204  0.00  0.00     0.178 HD
BRANCH  18  20
ATOM     20  PB  DUP d   1       9.027   7.054 -33.473  0.00  0.00     0.379 P 
ATOM     21  O1B DUP d   1       9.915   5.913 -33.034  0.00  0.00    -0.629 OA
ATOM     22  O2B DUP d   1       8.550   7.808 -32.251  0.00  0.00    -0.629 OA
BRANCH  20  23
ATOM     23  O3B DUP d   1       7.824   6.457 -34.413  0.00  0.00    -0.178 OA
BRANCH  23  24
ATOM     24  PG  DUP d   1       6.217   6.550 -34.074  0.00  0.00     0.431 P 
ATOM     25  O2G DUP d   1       5.460   5.791 -35.129  0.00  0.00    -0.616 OA
ATOM     26  O1G DUP d   1       5.846   8.009 -34.120  0.00  0.00    -0.616 OA
ATOM     27  O3G DUP d   1       6.071   5.915 -32.716  0.00  0.00    -0.616 OA
ENDBRANCH  23  24
ENDBRANCH  20  23
ENDBRANCH  18  20
ENDBRANCH  15  18
ENDBRANCH  14  15
ENDBRANCH  11  14
ENDBRANCH   5  11
BRANCH   3  28
ATOM     28  O3' DUP d   1      11.142   7.876 -28.418  0.00  0.00    -0.393 OA
ATOM     29  H8  DUP d   1      10.238   7.603 -28.522  0.00  0.00     0.210 HD
ENDBRANCH   3  28
BRANCH   1  30
ATOM     30  N1  DUP d   1      15.026   8.389 -30.436  0.00  0.00    -0.282 N 
ATOM     31  C6  DUP d   1      15.137   8.372 -31.760  0.00  0.00    -0.008 A 
ATOM     32  C5  DUP d   1      16.328   8.688 -32.357  0.00  0.00    -0.002 A 
ATOM     33  H2  DUP d   1      14.277   8.106 -32.373  0.00  0.00     0.112 H 
ATOM     34  C4  DUP d   1      17.409   9.014 -31.591  0.00  0.00     0.250 A 
ATOM     35  H1  DUP d   1      16.412   8.679 -33.443  0.00  0.00     0.094 H 
ATOM     36  O4  DUP d   1      18.444   9.305 -32.114  0.00  0.00    -0.268 OA
ATOM     37  N3  DUP d   1      17.295   9.017 -30.274  0.00  0.00    -0.275 N 
ATOM     38  C2  DUP d   1      16.100   8.712 -29.691  0.00  0.00     0.331 A 
ATOM     39  H3  DUP d   1      18.085   9.243 -29.705  0.00  0.00     0.173 HD
ATOM     40  O2  DUP d   1      15.955   8.703 -28.511  0.00  0.00    -0.246 OA
ENDBRANCH   1  30
TORSDOF 9
