REMARK  1 active torsions:
REMARK  status: ('A' for Active; 'I' for Inactive)
REMARK    1  A    between atoms: C_1  and  C1_2 
ROOT
ATOM      1  C1  MBN d   1      -5.981   4.963 -28.427  0.00  0.00    -0.062 A 
ATOM      2  C2  MBN d   1      -5.704   5.670 -29.564  0.00  0.00    -0.077 A 
ATOM      3  C3  MBN d   1      -6.339   5.413 -30.776  0.00  0.00    -0.083 A 
ATOM      4  C4  MBN d   1      -7.304   4.378 -30.835  0.00  0.00    -0.083 A 
ATOM      5  C5  MBN d   1      -7.554   3.669 -29.609  0.00  0.00    -0.083 A 
ATOM      6  C6  MBN d   1      -6.902   3.952 -28.415  0.00  0.00    -0.077 A 
ATOM      7  H4  MBN d   1      -4.963   6.460 -29.520  0.00  0.00     0.084 H 
ATOM      8  H5  MBN d   1      -6.099   5.995 -31.659  0.00  0.00     0.083 H 
ATOM      9  H6  MBN d   1      -7.825   4.134 -31.753  0.00  0.00     0.083 H 
ATOM     10  H7  MBN d   1      -8.289   2.873 -29.617  0.00  0.00     0.083 H 
ATOM     11  H8  MBN d   1      -7.115   3.394 -27.510  0.00  0.00     0.084 H 
ENDROOT
BRANCH   1  12
ATOM     12  C   MBN d   1      -5.313   5.267 -27.146  0.00  0.00    -0.051 C 
ATOM     13  H1  MBN d   1      -4.601   6.093 -27.291  0.00  0.00     0.033 H 
ATOM     14  H2  MBN d   1      -4.773   4.376 -26.793  0.00  0.00     0.033 H 
ATOM     15  H3  MBN d   1      -6.067   5.559 -26.400  0.00  0.00     0.033 H 
ENDBRANCH   1  12
TORSDOF 1
