REMARK  2 active torsions:
REMARK  status: ('A' for Active; 'I' for Inactive)
REMARK    1  A    between atoms: C10_1  and  C11_2 
REMARK    2  A    between atoms: C8_19  and  N18_23 
ROOT
ATOM      1  C10 65X d   1     -13.328   7.303  -9.834  0.00  0.00     0.005 A 
ATOM      2  C17 65X d   1     -13.752   8.837  -7.971  0.00  0.00     0.184 A 
ATOM      3  C1  65X d   1     -13.330   4.441 -12.220  0.00  0.00     0.035 A 
ATOM      4  C2  65X d   1     -14.257   3.598 -11.640  0.00  0.00    -0.060 A 
ATOM      5  C3  65X d   1     -14.872   3.966 -10.483  0.00  0.00    -0.053 A 
ATOM      6  C4  65X d   1     -14.570   5.199  -9.863  0.00  0.00     0.070 A 
ATOM      7  C5  65X d   1     -13.617   6.056 -10.473  0.00  0.00     0.006 A 
ATOM      8  C6  65X d   1     -12.999   5.643 -11.671  0.00  0.00    -0.049 A 
ATOM      9  N7  65X d   1     -15.219   5.516  -8.701  0.00  0.00    -0.230 NA
ATOM     10  C8  65X d   1     -14.920   6.665  -8.149  0.00  0.00     0.141 A 
ATOM     11  C9  65X d   1     -13.986   7.596  -8.661  0.00  0.00     0.071 A 
ATOM     12 CL   65X d   1     -12.563   3.952 -13.702  0.00  0.00    -0.084 Cl
ATOM     13  N25 65X d   1     -14.618   9.854  -7.925  0.00  0.00    -0.108 NA
ATOM     14  N26 65X d   1     -14.087  10.847  -7.184  0.00  0.00    -0.023 NA
ATOM     15  N27 65X d   1     -12.926  10.428  -6.795  0.00  0.00    -0.046 NA
ATOM     16  N28 65X d   1     -12.686   9.174  -7.262  0.00  0.00    -0.239 N 
ATOM     17  H14 65X d   1     -14.494   2.647 -12.104  0.00  0.00     0.086 H 
ATOM     18  H15 65X d   1     -15.603   3.305 -10.031  0.00  0.00     0.087 H 
ATOM     19  H16 65X d   1     -12.264   6.278 -12.153  0.00  0.00     0.087 H 
ATOM     20  H19 65X d   1     -11.845   8.602  -7.098  0.00  0.00     0.192 HD
ENDROOT
BRANCH  10  21
ATOM     21  N18 65X d   1     -15.552   6.974  -6.997  0.00  0.00    -0.365 N 
ATOM     22  C20 65X d   1     -14.923   6.682  -5.708  0.00  0.00    -0.004 C 
ATOM     23  C21 65X d   1     -15.294   7.731  -4.692  0.00  0.00    -0.050 C 
ATOM     24  H4  65X d   1     -15.263   5.698  -5.354  0.00  0.00     0.064 H 
ATOM     25  H5  65X d   1     -13.830   6.669  -5.833  0.00  0.00     0.064 H 
ATOM     26  C22 65X d   1     -16.800   7.857  -4.572  0.00  0.00    -0.062 C 
ATOM     27  H6  65X d   1     -14.875   8.699  -5.004  0.00  0.00     0.035 H 
ATOM     28  H7  65X d   1     -14.877   7.449  -3.714  0.00  0.00     0.035 H 
ATOM     29  C23 65X d   1     -17.437   8.085  -5.924  0.00  0.00    -0.050 C 
ATOM     30  H8  65X d   1     -17.038   8.706  -3.915  0.00  0.00     0.033 H 
ATOM     31  H9  65X d   1     -17.204   6.932  -4.136  0.00  0.00     0.033 H 
ATOM     32  C24 65X d   1     -17.011   7.023  -6.901  0.00  0.00    -0.004 C 
ATOM     33  H10 65X d   1     -17.130   9.070  -6.306  0.00  0.00     0.035 H 
ATOM     34  H11 65X d   1     -18.531   8.058  -5.816  0.00  0.00     0.035 H 
ATOM     35  H12 65X d   1     -17.432   7.252  -7.891  0.00  0.00     0.064 H 
ATOM     36  H13 65X d   1     -17.385   6.046  -6.560  0.00  0.00     0.064 H 
ENDBRANCH  10  21
BRANCH   1  37
ATOM     37  C11 65X d   1     -12.329   8.241 -10.429  0.00  0.00    -0.024 A 
ATOM     38  C16 65X d   1     -12.712   9.199 -11.365  0.00  0.00    -0.072 A 
ATOM     39  C15 65X d   1     -11.782  10.070 -11.907  0.00  0.00    -0.082 A 
ATOM     40  H3  65X d   1     -13.749   9.263 -11.672  0.00  0.00     0.084 H 
ATOM     41  C14 65X d   1     -10.461  10.002 -11.522  0.00  0.00    -0.083 A 
ATOM     42  H2  65X d   1     -12.095  10.808 -12.637  0.00  0.00     0.083 H 
ATOM     43  C13 65X d   1     -10.065   9.063 -10.594  0.00  0.00    -0.082 A 
ATOM     44  H18 65X d   1      -9.735  10.685 -11.948  0.00  0.00     0.083 H 
ATOM     45  C12 65X d   1     -10.990   8.191 -10.046  0.00  0.00    -0.072 A 
ATOM     46  H1  65X d   1      -9.025   9.007 -10.292  0.00  0.00     0.083 H 
ATOM     47  H17 65X d   1     -10.669   7.462  -9.311  0.00  0.00     0.084 H 
ENDBRANCH   1  37
TORSDOF 2
