REMARK  8 active torsions:
REMARK  status: ('A' for Active; 'I' for Inactive)
REMARK    1  A    between atoms: C15_4  and  C17_5 
REMARK    2  A    between atoms: C17_5  and  C22_7 
REMARK    3  A    between atoms: C17_5  and  C23_8 
REMARK    4  A    between atoms: C14_22  and  C19_6 
REMARK    5  A    between atoms: C24_9  and  C25_10 
REMARK    6  A    between atoms: C24_9  and  C26_11 
REMARK    7  A    between atoms: C4_15  and  C24_9 
REMARK    8  A    between atoms: C7_18  and  C6_17 
ROOT
ATOM      1  C10 65Y d   1      15.295  -4.054 -24.009  0.00  0.00    -0.049 A 
ATOM      2  C11 65Y d   1      12.563  -4.107 -24.540  0.00  0.00    -0.053 A 
ATOM      3  C13 65Y d   1      14.430  -4.086 -22.941  0.00  0.00     0.006 A 
ATOM      4  C15 65Y d   1      12.527  -4.234 -20.904  0.00  0.00     0.056 A 
ATOM      5  C7  65Y d   1      14.849  -4.125 -21.586  0.00  0.00     0.006 A 
ATOM      6  C8  65Y d   1      13.455  -4.055 -25.571  0.00  0.00    -0.060 A 
ATOM      7  C9  65Y d   1      14.803  -4.030 -25.281  0.00  0.00     0.035 A 
ATOM      8  C12 65Y d   1      13.031  -4.103 -23.219  0.00  0.00     0.068 A 
ATOM      9  C14 65Y d   1      13.887  -4.188 -20.586  0.00  0.00     0.077 A 
ATOM     10  N16 65Y d   1      12.114  -4.159 -22.200  0.00  0.00    -0.251 NA
ATOM     11 CL1  65Y d   1      15.958  -4.015 -26.594  0.00  0.00    -0.084 Cl
ATOM     12  H1  65Y d   1      16.366  -4.048 -23.841  0.00  0.00     0.087 H 
ATOM     13  H2  65Y d   1      11.499  -4.151 -24.741  0.00  0.00     0.087 H 
ATOM     14  H21 65Y d   1      13.111  -4.034 -26.599  0.00  0.00     0.086 H 
ENDROOT
BRANCH   5  15
ATOM     15  C6  65Y d   1      16.262  -4.126 -21.285  0.00  0.00    -0.023 A 
ATOM     16  C1  65Y d   1      17.024  -5.294 -21.441  0.00  0.00    -0.072 A 
ATOM     17  C2  65Y d   1      18.359  -5.333 -21.193  0.00  0.00    -0.082 A 
ATOM     18  H17 65Y d   1      16.529  -6.199 -21.772  0.00  0.00     0.084 H 
ATOM     19  C3  65Y d   1      19.027  -4.248 -20.755  0.00  0.00    -0.076 A 
ATOM     20  H18 65Y d   1      18.900  -6.259 -21.351  0.00  0.00     0.083 H 
ATOM     21  C4  65Y d   1      18.338  -3.039 -20.560  0.00  0.00    -0.054 A 
ATOM     22  H19 65Y d   1      20.091  -4.307 -20.554  0.00  0.00     0.084 H 
ATOM     23  C5  65Y d   1      16.978  -2.983 -20.823  0.00  0.00    -0.066 A 
ATOM     24  H20 65Y d   1      16.447  -2.050 -20.674  0.00  0.00     0.085 H 
BRANCH  21  25
ATOM     25  C24 65Y d   1      19.102  -1.847 -20.047  0.00  0.00    -0.036 C 
ATOM     26  H10 65Y d   1      20.075  -1.815 -20.559  0.00  0.00     0.046 H 
BRANCH  25  27
ATOM     27  C25 65Y d   1      18.383  -0.536 -20.292  0.00  0.00    -0.069 C 
ATOM     28  H11 65Y d   1      18.988   0.293 -19.897  0.00  0.00     0.028 H 
ATOM     29  H12 65Y d   1      17.407  -0.552 -19.784  0.00  0.00     0.028 H 
ATOM     30  H13 65Y d   1      18.232  -0.397 -21.373  0.00  0.00     0.028 H 
ENDBRANCH  25  27
BRANCH  25  31
ATOM     31  C26 65Y d   1      19.325  -1.981 -18.577  0.00  0.00    -0.069 C 
ATOM     32  H14 65Y d   1      19.847  -2.927 -18.370  0.00  0.00     0.028 H 
ATOM     33  H15 65Y d   1      18.356  -1.976 -18.057  0.00  0.00     0.028 H 
ATOM     34  H16 65Y d   1      19.937  -1.139 -18.221  0.00  0.00     0.028 H 
ENDBRANCH  25  31
ENDBRANCH  21  25
ENDBRANCH   5  15
BRANCH   9  35
ATOM     35  C19 65Y d   1      14.371  -4.213 -19.189  0.00  0.00     0.212 C 
ATOM     36  O20 65Y d   1      14.516  -3.115 -18.592  0.00  0.00    -0.644 OA
ATOM     37  O21 65Y d   1      14.692  -5.288 -18.646  0.00  0.00    -0.644 OA
ENDBRANCH   9  35
BRANCH   4  38
ATOM     38  C17 65Y d   1      11.485  -4.358 -19.842  0.00  0.00    -0.018 C 
ATOM     39  H3  65Y d   1      11.994  -4.349 -18.867  0.00  0.00     0.048 H 
BRANCH  38  40
ATOM     40  C22 65Y d   1      10.477  -3.276 -19.818  0.00  0.00    -0.068 C 
ATOM     41  H4  65Y d   1       9.760  -3.461 -19.004  0.00  0.00     0.028 H 
ATOM     42  H5  65Y d   1       9.943  -3.251 -20.779  0.00  0.00     0.028 H 
ATOM     43  H6  65Y d   1      10.979  -2.311 -19.653  0.00  0.00     0.028 H 
ENDBRANCH  38  40
BRANCH  38  44
ATOM     44  C23 65Y d   1      10.824  -5.698 -20.033  0.00  0.00    -0.068 C 
ATOM     45  H7  65Y d   1      11.591  -6.486 -20.048  0.00  0.00     0.028 H 
ATOM     46  H8  65Y d   1      10.274  -5.703 -20.986  0.00  0.00     0.028 H 
ATOM     47  H9  65Y d   1      10.124  -5.883 -19.205  0.00  0.00     0.028 H 
ENDBRANCH  38  44
ENDBRANCH   4  38
TORSDOF 8
