REMARK  3 active torsions:
REMARK  status: ('A' for Active; 'I' for Inactive)
REMARK    1  A    between atoms: C14_14  and  N1_1 
REMARK    2  A    between atoms: C15_15  and  C19_19 
REMARK    3  A    between atoms: C22_22  and  C16_16 
ROOT
ATOM      1  C7  65Z d   1       3.921  -6.812 -23.113  0.00  0.00     0.036 A 
ATOM      2  C8  65Z d   1       5.178  -7.453 -23.264  0.00  0.00    -0.039 A 
ATOM      3  C9  65Z d   1       5.828  -7.909 -22.147  0.00  0.00     0.065 A 
ATOM      4  C10 65Z d   1       3.375  -6.608 -21.884  0.00  0.00    -0.049 A 
ATOM      5  C11 65Z d   1       4.054  -7.050 -20.721  0.00  0.00     0.008 A 
ATOM      6  C12 65Z d   1       5.316  -7.699 -20.860  0.00  0.00     0.091 A 
ATOM      7  N13 65Z d   1       6.008  -8.215 -19.811  0.00  0.00    -0.233 NA
ATOM      8  C14 65Z d   1       5.547  -8.066 -18.587  0.00  0.00     0.124 A 
ATOM      9  C15 65Z d   1       4.274  -7.407 -18.334  0.00  0.00     0.093 A 
ATOM     10  C16 65Z d   1       3.571  -6.886 -19.410  0.00  0.00     0.007 A 
ATOM     11 CL1  65Z d   1       7.312  -8.750 -22.347  0.00  0.00    -0.082 Cl
ATOM     12 CL2  65Z d   1       3.080  -6.325 -24.532  0.00  0.00    -0.084 Cl
ATOM     13  H11 65Z d   1       5.617  -7.580 -24.247  0.00  0.00     0.088 H 
ATOM     14  H12 65Z d   1       2.418  -6.106 -21.794  0.00  0.00     0.087 H 
ENDROOT
BRANCH   8  15
ATOM     15  N1  65Z d   1       6.298  -8.576 -17.505  0.00  0.00    -0.267 NA
ATOM     16  C2  65Z d   1       7.678  -8.984 -17.866  0.00  0.00    -0.015 C 
ATOM     17  C3  65Z d   1       8.490  -9.171 -16.612  0.00  0.00    -0.054 C 
ATOM     18  H1  65Z d   1       8.140  -8.204 -18.489  0.00  0.00     0.056 H 
ATOM     19  H2  65Z d   1       7.646  -9.930 -18.427  0.00  0.00     0.056 H 
ATOM     20  C4  65Z d   1       7.870 -10.036 -15.611  0.00  0.00    -0.063 C 
ATOM     21  H3  65Z d   1       8.653  -8.182 -16.158  0.00  0.00     0.034 H 
ATOM     22  H4  65Z d   1       9.459  -9.610 -16.892  0.00  0.00     0.034 H 
ATOM     23  C5  65Z d   1       6.425  -9.781 -15.428  0.00  0.00    -0.054 C 
ATOM     24  H5  65Z d   1       8.377  -9.874 -14.648  0.00  0.00     0.033 H 
ATOM     25  H6  65Z d   1       8.002 -11.082 -15.924  0.00  0.00     0.033 H 
ATOM     26  C6  65Z d   1       5.702  -9.645 -16.704  0.00  0.00    -0.015 C 
ATOM     27  H7  65Z d   1       6.303  -8.851 -14.854  0.00  0.00     0.034 H 
ATOM     28  H8  65Z d   1       5.989 -10.619 -14.865  0.00  0.00     0.034 H 
ATOM     29  H9  65Z d   1       5.761 -10.593 -17.259  0.00  0.00     0.056 H 
ATOM     30  H10 65Z d   1       4.648  -9.404 -16.502  0.00  0.00     0.056 H 
ENDBRANCH   8  15
BRANCH   9  31
ATOM     31  C19 65Z d   1       3.885  -7.112 -16.957  0.00  0.00     0.213 C 
ATOM     32  O20 65Z d   1       2.985  -7.878 -16.360  0.00  0.00    -0.644 OA
ATOM     33  O21 65Z d   1       4.271  -6.101 -16.418  0.00  0.00    -0.644 OA
ENDBRANCH   9  31
BRANCH  10  34
ATOM     34  C22 65Z d   1       2.331  -6.125 -19.179  0.00  0.00    -0.024 A 
ATOM     35  C23 65Z d   1       2.329  -4.735 -19.436  0.00  0.00    -0.072 A 
ATOM     36  C26 65Z d   1       1.184  -3.981 -19.226  0.00  0.00    -0.082 A 
ATOM     37  H13 65Z d   1       3.230  -4.254 -19.800  0.00  0.00     0.084 H 
ATOM     38  C24 65Z d   1       0.025  -4.570 -18.699  0.00  0.00    -0.083 A 
ATOM     39  H16 65Z d   1       1.185  -2.925 -19.472  0.00  0.00     0.083 H 
ATOM     40  C25 65Z d   1      -0.004  -5.951 -18.449  0.00  0.00    -0.082 A 
ATOM     41  H14 65Z d   1      -0.846  -3.961 -18.485  0.00  0.00     0.083 H 
ATOM     42  C27 65Z d   1       1.173  -6.714 -18.650  0.00  0.00    -0.072 A 
ATOM     43  H15 65Z d   1      -0.915  -6.428 -18.107  0.00  0.00     0.083 H 
ATOM     44  H17 65Z d   1       1.179  -7.767 -18.392  0.00  0.00     0.084 H 
ENDBRANCH  10  34
TORSDOF 3
