REMARK  3 active torsions:
REMARK  status: ('A' for Active; 'I' for Inactive)
REMARK    1  A    between atoms: C5_1  and  C16_19 
REMARK    2  A    between atoms: C1_8  and  C7_3 
REMARK    3  A    between atoms: C2_9  and  C9_12 
ROOT
ATOM      1  C5  5M8 d   1     -14.758  48.469 -40.670  0.00  0.00     0.049 A 
ATOM      2  C6  5M8 d   1     -13.099  48.338 -39.039  0.00  0.00     0.068 A 
ATOM      3  C8  5M8 d   1     -11.429  50.124 -38.692  0.00  0.00    -0.049 A 
ATOM      4  C1  5M8 d   1     -14.287  49.774 -41.083  0.00  0.00     0.077 A 
ATOM      5  C2  5M8 d   1     -13.196  50.337 -40.469  0.00  0.00     0.006 A 
ATOM      6  C3  5M8 d   1     -12.563  49.620 -39.392  0.00  0.00     0.006 A 
ATOM      7  N4  5M8 d   1     -14.185  47.783 -39.685  0.00  0.00    -0.252 NA
ATOM      8  C11 5M8 d   1     -12.481  47.598 -37.982  0.00  0.00    -0.053 A 
ATOM      9  C12 5M8 d   1     -10.860  49.379 -37.678  0.00  0.00     0.035 A 
ATOM     10  C14 5M8 d   1     -11.388  48.109 -37.322  0.00  0.00    -0.060 A 
ATOM     11 CL1  5M8 d   1      -9.504  49.944 -36.820  0.00  0.00    -0.084 Cl
ATOM     12  H1  5M8 d   1     -11.014  51.090 -38.955  0.00  0.00     0.087 H 
ATOM     13  H5  5M8 d   1     -12.877  46.629 -37.700  0.00  0.00     0.087 H 
ATOM     14  H6  5M8 d   1     -10.926  47.539 -36.524  0.00  0.00     0.086 H 
ENDROOT
BRANCH   5  15
ATOM     15  C9  5M8 d   1     -12.704  51.656 -40.870  0.00  0.00    -0.024 A 
ATOM     16  C17 5M8 d   1     -13.100  52.784 -40.121  0.00  0.00    -0.072 A 
ATOM     17  C20 5M8 d   1     -12.633  54.047 -40.486  0.00  0.00    -0.082 A 
ATOM     18  H2  5M8 d   1     -13.761  52.670 -39.270  0.00  0.00     0.084 H 
ATOM     19  C21 5M8 d   1     -11.784  54.188 -41.596  0.00  0.00    -0.083 A 
ATOM     20  H3  5M8 d   1     -12.925  54.919 -39.913  0.00  0.00     0.083 H 
ATOM     21  C19 5M8 d   1     -11.391  53.068 -42.340  0.00  0.00    -0.082 A 
ATOM     22  H4  5M8 d   1     -11.430  55.172 -41.880  0.00  0.00     0.083 H 
ATOM     23  C18 5M8 d   1     -11.854  51.798 -41.983  0.00  0.00    -0.072 A 
ATOM     24  H11 5M8 d   1     -10.729  53.186 -43.191  0.00  0.00     0.083 H 
ATOM     25  H10 5M8 d   1     -11.560  50.928 -42.560  0.00  0.00     0.084 H 
ENDBRANCH   5  15
BRANCH   4  26
ATOM     26  C7  5M8 d   1     -14.990  50.431 -42.198  0.00  0.00     0.212 C 
ATOM     27  O10 5M8 d   1     -14.753  50.302 -43.404  0.00  0.00    -0.644 OA
ATOM     28  O13 5M8 d   1     -16.036  51.255 -41.866  0.00  0.00    -0.644 OA
ENDBRANCH   4  26
BRANCH   1  29
ATOM     29  C16 5M8 d   1     -15.948  47.915 -41.400  0.00  0.00    -0.034 C 
ATOM     30  H7  5M8 d   1     -16.201  46.925 -40.991  0.00  0.00     0.035 H 
ATOM     31  H8  5M8 d   1     -15.710  47.820 -42.470  0.00  0.00     0.035 H 
ATOM     32  H9  5M8 d   1     -16.804  48.594 -41.273  0.00  0.00     0.035 H 
ENDBRANCH   1  29
TORSDOF 3
