REMARK  7 active torsions:
REMARK  status: ('A' for Active; 'I' for Inactive)
REMARK    1  A    between atoms: N_24  and  C1_1 
REMARK    2  A    between atoms: N1_2  and  C11_15 
REMARK    3  A    between atoms: C3_6  and  C2_4 
REMARK       I    between atoms: C2_4  and  N_24 
REMARK    4  A    between atoms: C9_12  and  C5_8 
REMARK    5  A    between atoms: C11_15  and  C12_16 
REMARK    6  A    between atoms: C12_16  and  C13_17 
REMARK    7  A    between atoms: N_24  and  C_25 
ROOT
ATOM      1  N1  67C d   1     -10.289  18.852   5.467  0.00  0.00    -0.345 N 
ATOM      2  O1  67C d   1     -12.046  20.352   5.533  0.00  0.00    -0.266 OA
ATOM      3  N2  67C d   1     -10.166  22.499   6.416  0.00  0.00    -0.361 N 
ATOM      4  C9  67C d   1      -8.043  19.480   6.249  0.00  0.00     0.015 A 
ATOM      5  C10 67C d   1      -8.998  18.550   5.717  0.00  0.00     0.009 A 
ATOM      6  C15 67C d   1     -10.870  20.160   5.640  0.00  0.00     0.271 A 
ATOM      7  C16 67C d   1      -9.883  21.141   6.122  0.00  0.00     0.107 A 
ATOM      8  C19 67C d   1      -8.985  22.928   6.827  0.00  0.00    -0.022 A 
ATOM      9  C18 67C d   1      -7.867  22.082   6.907  0.00  0.00    -0.059 A 
ATOM     10  C17 67C d   1      -8.537  20.875   6.406  0.00  0.00    -0.014 A 
ATOM     11  H4  67C d   1     -11.054  23.014   6.332  0.00  0.00     0.165 HD
ATOM     12  H9  67C d   1      -8.321  19.231   7.284  0.00  0.00     0.057 H 
ATOM     13  H10 67C d   1      -8.580  18.210   4.758  0.00  0.00     0.066 H 
ATOM     14  H11 67C d   1      -9.021  17.709   6.425  0.00  0.00     0.066 H 
ATOM     15  H19 67C d   1      -8.875  23.973   7.113  0.00  0.00     0.111 H 
ATOM     16  H20 67C d   1      -6.843  22.261   7.232  0.00  0.00     0.086 H 
ENDROOT
BRANCH   4  17
ATOM     17  C5  67C d   1      -6.647  19.087   6.519  0.00  0.00    -0.047 A 
ATOM     18  C4  67C d   1      -6.430  17.811   7.125  0.00  0.00    -0.061 A 
ATOM     19  C3  67C d   1      -5.130  17.396   7.453  0.00  0.00     0.032 A 
ATOM     20  H5  67C d   1      -7.273  17.161   7.332  0.00  0.00     0.085 H 
ATOM     21  C8  67C d   1      -4.023  18.225   7.258  0.00  0.00    -0.068 A 
ATOM     22  C7  67C d   1      -4.270  19.504   6.734  0.00  0.00    -0.081 A 
ATOM     23  H8  67C d   1      -3.019  17.896   7.500  0.00  0.00     0.085 H 
ATOM     24  C6  67C d   1      -5.541  19.904   6.343  0.00  0.00    -0.076 A 
ATOM     25  H7  67C d   1      -3.445  20.199   6.632  0.00  0.00     0.083 H 
ATOM     26  H6  67C d   1      -5.672  20.880   5.889  0.00  0.00     0.084 H 
BRANCH  19  27
ATOM     27  C2  67C d   1      -4.924  16.060   8.147  0.00  0.00     0.253 C 
ATOM     28  O   67C d   1      -5.459  15.975   9.315  0.00  0.00    -0.267 OA
ATOM     29  N   67C d   1      -4.421  15.059   7.550  0.00  0.00    -0.357 N 
BRANCH  29  30
ATOM     30  C1  67C d   1      -4.391  13.715   8.187  0.00  0.00    -0.016 C 
ATOM     31  H1  67C d   1      -3.916  12.996   7.504  0.00  0.00     0.056 H 
ATOM     32  H2  67C d   1      -5.419  13.389   8.405  0.00  0.00     0.056 H 
ATOM     33  H3  67C d   1      -3.816  13.766   9.124  0.00  0.00     0.056 H 
ENDBRANCH  29  30
BRANCH  29  34
ATOM     34  C   67C d   1      -3.997  15.075   6.129  0.00  0.00    -0.016 C 
ATOM     35  H21 67C d   1      -4.050  16.103   5.742  0.00  0.00     0.056 H 
ATOM     36  H22 67C d   1      -4.663  14.427   5.540  0.00  0.00     0.056 H 
ATOM     37  H23 67C d   1      -2.963  14.707   6.051  0.00  0.00     0.056 H 
ENDBRANCH  29  34
ENDBRANCH  19  27
ENDBRANCH   4  17
BRANCH   1  38
ATOM     38  C11 67C d   1     -11.158  17.764   4.914  0.00  0.00     0.001 C 
ATOM     39  H12 67C d   1     -10.632  17.218   4.117  0.00  0.00     0.064 H 
ATOM     40  H13 67C d   1     -12.094  18.183   4.516  0.00  0.00     0.064 H 
BRANCH  38  41
ATOM     41  C12 67C d   1     -11.455  16.808   6.140  0.00  0.00    -0.036 C 
ATOM     42  H14 67C d   1     -11.977  17.363   6.933  0.00  0.00     0.041 H 
ATOM     43  H15 67C d   1     -10.513  16.401   6.537  0.00  0.00     0.041 H 
BRANCH  41  44
ATOM     44  C13 67C d   1     -12.325  15.693   5.635  0.00  0.00    -0.110 C 
ATOM     45  C14 67C d   1     -11.935  14.424   5.627  0.00  0.00    -0.125 C 
ATOM     46  H17 67C d   1     -12.603  13.651   5.250  0.00  0.00     0.066 H 
ATOM     47  H18 67C d   1     -10.947  14.156   5.997  0.00  0.00     0.066 H 
ATOM     48  H16 67C d   1     -13.318  15.936   5.259  0.00  0.00     0.075 H 
ENDBRANCH  41  44
ENDBRANCH  38  41
ENDBRANCH   1  38
TORSDOF 7
