REMARK  5 active torsions:
REMARK  status: ('A' for Active; 'I' for Inactive)
REMARK    1  A    between atoms: C3_19  and  C2_2 
REMARK       I    between atoms: C2_2  and  N_21 
REMARK    2  A    between atoms: N_21  and  C1_3 
REMARK    3  A    between atoms: C9_6  and  C7_18 
REMARK    4  A    between atoms: N1_12  and  C11_9 
REMARK    5  A    between atoms: N_21  and  C_22 
ROOT
ATOM      1  C4  67B d   1       7.959  -7.582  -3.246  0.00  0.00    -0.068 A 
ATOM      2  C5  67B d   1       7.689  -8.156  -4.476  0.00  0.00    -0.081 A 
ATOM      3  C8  67B d   1       5.619  -7.675  -2.764  0.00  0.00    -0.057 A 
ATOM      4  C6  67B d   1       6.428  -8.480  -4.860  0.00  0.00    -0.072 A 
ATOM      5  C7  67B d   1       5.360  -8.258  -4.017  0.00  0.00    -0.023 A 
ATOM      6  C3  67B d   1       6.897  -7.402  -2.359  0.00  0.00     0.033 A 
ATOM      7  H1  67B d   1       8.966  -7.281  -2.979  0.00  0.00     0.085 H 
ATOM      8  H5  67B d   1       8.511  -8.353  -5.155  0.00  0.00     0.083 H 
ATOM      9  H6  67B d   1       4.790  -7.437  -2.107  0.00  0.00     0.086 H 
ATOM     10  H7  67B d   1       6.259  -8.917  -5.838  0.00  0.00     0.084 H 
ENDROOT
BRANCH   5  11
ATOM     11  C9  67B d   1       3.935  -8.542  -4.425  0.00  0.00     0.003 A 
ATOM     12  C10 67B d   1       3.000  -8.915  -3.481  0.00  0.00    -0.006 A 
ATOM     13  N1  67B d   1       1.714  -9.174  -3.766  0.00  0.00    -0.326 N 
ATOM     14  H8  67B d   1       3.324  -9.004  -2.445  0.00  0.00     0.113 H 
ATOM     15  C12 67B d   1       1.164  -9.090  -5.006  0.00  0.00     0.274 A 
ATOM     16  O1  67B d   1      -0.022  -9.304  -5.227  0.00  0.00    -0.265 OA
ATOM     17  C13 67B d   1       2.114  -8.746  -6.048  0.00  0.00     0.112 A 
ATOM     18  N2  67B d   1       1.878  -8.553  -7.362  0.00  0.00    -0.361 N 
ATOM     19  C14 67B d   1       3.448  -8.444  -5.750  0.00  0.00     0.010 A 
ATOM     20  C16 67B d   1       3.069  -8.134  -7.934  0.00  0.00    -0.021 A 
ATOM     21  H12 67B d   1       0.981  -8.691  -7.849  0.00  0.00     0.165 HD
ATOM     22  C15 67B d   1       4.074  -8.044  -6.994  0.00  0.00    -0.055 A 
ATOM     23  H13 67B d   1       3.195  -7.905  -8.991  0.00  0.00     0.111 H 
ATOM     24  H14 67B d   1       5.108  -7.740  -7.152  0.00  0.00     0.087 H 
BRANCH  13  25
ATOM     25  C11 67B d   1       0.795  -9.479  -2.669  0.00  0.00    -0.011 C 
ATOM     26  H9  67B d   1       1.354  -9.520  -1.723  0.00  0.00     0.057 H 
ATOM     27  H10 67B d   1       0.314 -10.451  -2.853  0.00  0.00     0.057 H 
ATOM     28  H11 67B d   1       0.026  -8.695  -2.606  0.00  0.00     0.057 H 
ENDBRANCH  13  25
ENDBRANCH   5  11
BRANCH   6  29
ATOM     29  C2  67B d   1       7.078  -6.768  -1.021  0.00  0.00     0.253 C 
ATOM     30  O   67B d   1       6.600  -5.577  -0.873  0.00  0.00    -0.267 OA
ATOM     31  N   67B d   1       7.684  -7.370  -0.015  0.00  0.00    -0.357 N 
BRANCH  31  32
ATOM     32  C1  67B d   1       8.123  -8.785  -0.065  0.00  0.00    -0.016 C 
ATOM     33  H2  67B d   1       8.600  -9.055   0.889  0.00  0.00     0.056 H 
ATOM     34  H3  67B d   1       8.844  -8.916  -0.885  0.00  0.00     0.056 H 
ATOM     35  H4  67B d   1       7.251  -9.434  -0.235  0.00  0.00     0.056 H 
ENDBRANCH  31  32
BRANCH  31  36
ATOM     36  C   67B d   1       7.769  -6.724   1.269  0.00  0.00    -0.016 C 
ATOM     37  H15 67B d   1       7.418  -5.685   1.181  0.00  0.00     0.056 H 
ATOM     38  H16 67B d   1       8.813  -6.730   1.614  0.00  0.00     0.056 H 
ATOM     39  H17 67B d   1       7.140  -7.263   1.993  0.00  0.00     0.056 H 
ENDBRANCH  31  36
ENDBRANCH   6  29
TORSDOF 5
