REMARK  10 active torsions:
REMARK  status: ('A' for Active; 'I' for Inactive)
REMARK    1  A    between atoms: S_1  and  N_2 
REMARK    2  A    between atoms: O5'_25  and  S_1 
REMARK       I    between atoms: N_2  and  C9_10 
REMARK    3  A    between atoms: C9_10  and  C10_12 
REMARK    4  A    between atoms: C10_12  and  C11_11 
REMARK    5  A    between atoms: C11_11  and  C19_30 
REMARK    6  A    between atoms: C1'_17  and  N9_16 
REMARK    7  A    between atoms: C2'_19  and  O2'_20 
REMARK    8  A    between atoms: C3'_21  and  O3'_22 
REMARK    9  A    between atoms: C5'_24  and  C4'_23 
REMARK   10  A    between atoms: C5'_24  and  O5'_25 
ROOT
ATOM      1  C5' 67D d   1     -29.960   4.174 -26.235  0.00  0.00     0.066 C 
ATOM      2  H16 67D d   1     -29.693   3.109 -26.306  0.00  0.00     0.080 H 
ATOM      3  H17 67D d   1     -30.949   4.336 -26.689  0.00  0.00     0.080 H 
ENDROOT
BRANCH   1   4
ATOM      4  C4' 67D d   1     -28.934   4.996 -26.967  0.00  0.00     0.090 C 
ATOM      5  O4' 67D d   1     -28.781   4.505 -28.320  0.00  0.00    -0.353 OA
ATOM      6  C1' 67D d   1     -28.471   5.597 -29.136  0.00  0.00     0.139 C 
ATOM      7  C2' 67D d   1     -29.346   6.728 -28.608  0.00  0.00     0.105 C 
ATOM      8  H10 67D d   1     -27.414   5.877 -29.017  0.00  0.00     0.122 H 
ATOM      9  C3' 67D d   1     -29.254   6.497 -27.088  0.00  0.00     0.091 C 
ATOM     10  H11 67D d   1     -30.386   6.599 -28.943  0.00  0.00     0.093 H 
ATOM     11  H13 67D d   1     -30.201   6.747 -26.588  0.00  0.00     0.091 H 
ATOM     12  H15 67D d   1     -27.980   4.889 -26.430  0.00  0.00     0.090 H 
BRANCH   6  13
ATOM     13  N9  67D d   1     -28.689   5.223 -30.532  0.00  0.00    -0.294 N 
ATOM     14  C4  67D d   1     -27.671   5.079 -31.369  0.00  0.00     0.167 A 
ATOM     15  C5  67D d   1     -28.299   4.691 -32.610  0.00  0.00     0.150 A 
ATOM     16  N3  67D d   1     -26.314   5.183 -31.346  0.00  0.00    -0.223 NA
ATOM     17  C6  67D d   1     -27.427   4.458 -33.764  0.00  0.00     0.167 A 
ATOM     18  N7  67D d   1     -29.635   4.619 -32.495  0.00  0.00    -0.236 NA
ATOM     19  N1  67D d   1     -26.110   4.586 -33.646  0.00  0.00    -0.298 N 
ATOM     20  N2  67D d   1     -27.854   4.109 -34.989  0.00  0.00    -0.239 NA
ATOM     21  C7  67D d   1     -25.616   4.316 -34.860  0.00  0.00     0.004 A 
ATOM     22  C2  67D d   1     -25.571   4.952 -32.456  0.00  0.00     0.074 A 
ATOM     23  C3  67D d   1     -26.695   4.017 -35.691  0.00  0.00     0.020 A 
ATOM     24  H2  67D d   1     -24.565   4.328 -35.146  0.00  0.00     0.114 H 
ATOM     25  H3  67D d   1     -26.620   3.750 -36.744  0.00  0.00     0.117 H 
ATOM     26  H4  67D d   1     -24.490   5.066 -32.389  0.00  0.00     0.144 H 
ATOM     27  C8  67D d   1     -29.851   4.946 -31.183  0.00  0.00     0.071 A 
ATOM     28  H5  67D d   1     -30.835   4.980 -30.717  0.00  0.00     0.144 H 
ENDBRANCH   6  13
BRANCH   7  29
ATOM     29  O2' 67D d   1     -28.904   7.995 -29.052  0.00  0.00    -0.388 OA
ATOM     30  H12 67D d   1     -28.015   8.143 -28.750  0.00  0.00     0.210 HD
ENDBRANCH   7  29
BRANCH   9  31
ATOM     31  O3' 67D d   1     -28.186   7.267 -26.528  0.00  0.00    -0.390 OA
ATOM     32  H14 67D d   1     -28.343   8.190 -26.692  0.00  0.00     0.210 HD
ENDBRANCH   9  31
ENDBRANCH   1   4
BRANCH   1  33
ATOM     33  O5' 67D d   1     -30.000   4.562 -24.859  0.00  0.00    -0.257 OA
BRANCH  33  34
ATOM     34  S   67D d   1     -30.982   3.947 -23.852  0.00  0.00     0.364 S 
ATOM     35  O2P 67D d   1     -30.233   3.299 -22.822  0.00  0.00    -0.175 OA
ATOM     36  O3P 67D d   1     -31.848   3.009 -24.524  0.00  0.00    -0.175 OA
BRANCH  34  37
ATOM     37  N   67D d   1     -31.790   5.074 -23.071  0.00  0.00    -0.231 N 
ATOM     38  C9  67D d   1     -31.966   6.213 -23.707  0.00  0.00     0.232 C 
ATOM     39  O13 67D d   1     -32.199   6.250 -24.896  0.00  0.00    -0.273 OA
ATOM     40  H1  67D d   1     -32.145   4.925 -22.148  0.00  0.00     0.183 HD
BRANCH  38  41
ATOM     41  C10 67D d   1     -31.825   7.472 -22.901  0.00  0.00     0.014 C 
ATOM     42  H8  67D d   1     -30.779   7.608 -22.588  0.00  0.00     0.047 H 
ATOM     43  H9  67D d   1     -32.471   7.428 -22.012  0.00  0.00     0.047 H 
BRANCH  41  44
ATOM     44  C11 67D d   1     -32.255   8.616 -23.805  0.00  0.00    -0.031 C 
ATOM     45  H6  67D d   1     -32.529   8.203 -24.787  0.00  0.00     0.040 H 
ATOM     46  H7  67D d   1     -31.408   9.308 -23.922  0.00  0.00     0.040 H 
BRANCH  44  47
ATOM     47  C19 67D d   1     -33.435   9.388 -23.261  0.00  0.00    -0.030 A 
ATOM     48  C20 67D d   1     -33.933   9.535 -21.865  0.00  0.00    -0.002 A 
ATOM     49  C21 67D d   1     -35.109  10.424 -21.972  0.00  0.00     0.042 A 
ATOM     50  C39 67D d   1     -33.523   9.042 -20.626  0.00  0.00    -0.070 A 
ATOM     51  N22 67D d   1     -35.260  10.741 -23.271  0.00  0.00    -0.365 N 
ATOM     52  C36 67D d   1     -35.803  10.759 -20.819  0.00  0.00    -0.056 A 
ATOM     53  C23 67D d   1     -34.300  10.154 -24.037  0.00  0.00    -0.016 A 
ATOM     54  H18 67D d   1     -36.006  11.349 -23.638  0.00  0.00     0.165 HD
ATOM     55  H19 67D d   1     -34.219  10.269 -25.117  0.00  0.00     0.112 H 
ATOM     56  C37 67D d   1     -35.369  10.248 -19.603  0.00  0.00    -0.081 A 
ATOM     57  H20 67D d   1     -36.669  11.409 -20.866  0.00  0.00     0.086 H 
ATOM     58  C38 67D d   1     -34.252   9.419 -19.504  0.00  0.00    -0.082 A 
ATOM     59  H21 67D d   1     -35.916  10.502 -18.702  0.00  0.00     0.083 H 
ATOM     60  H22 67D d   1     -33.945   9.060 -18.529  0.00  0.00     0.083 H 
ATOM     61  H23 67D d   1     -32.664   8.386 -20.541  0.00  0.00     0.084 H 
ENDBRANCH  44  47
ENDBRANCH  41  44
ENDBRANCH  38  41
ENDBRANCH  34  37
ENDBRANCH  33  34
ENDBRANCH   1  33
TORSDOF 10
