REMARK  9 active torsions:
REMARK  status: ('A' for Active; 'I' for Inactive)
REMARK    1  A    between atoms: S_1  and  N5'_20 
REMARK    2  A    between atoms: NBB_23  and  S_1 
REMARK    3  A    between atoms: C6_7  and  N6_8 
REMARK    4  A    between atoms: C1'_12  and  N9_11 
REMARK    5  A    between atoms: C2'_13  and  O2'_14 
REMARK    6  A    between atoms: C3'_15  and  O3'_16 
REMARK    7  A    between atoms: C5'_19  and  C4'_17 
REMARK    8  A    between atoms: N5'_20  and  C5'_19 
REMARK    9  A    between atoms: CBB_22  and  CAB_21 
REMARK       I    between atoms: CBB_22  and  NBB_23 
ROOT
ATOM      1  C1' BS5 d   1     -29.034   5.850 -29.084  0.00  0.00     0.139 C 
ATOM      2  C2' BS5 d   1     -29.898   6.951 -28.510  0.00  0.00     0.105 C 
ATOM      3  C3' BS5 d   1     -29.885   6.648 -27.019  0.00  0.00     0.091 C 
ATOM      4  C4' BS5 d   1     -29.571   5.162 -26.966  0.00  0.00     0.084 C 
ATOM      5  O4' BS5 d   1     -29.343   4.710 -28.296  0.00  0.00    -0.354 OA
ATOM      6  H5  BS5 d   1     -27.970   6.113 -28.994  0.00  0.00     0.122 H 
ATOM      7  H6  BS5 d   1     -30.924   6.896 -28.902  0.00  0.00     0.093 H 
ATOM      8  H8  BS5 d   1     -30.871   6.861 -26.581  0.00  0.00     0.091 H 
ATOM      9  H10 BS5 d   1     -28.669   5.001 -26.357  0.00  0.00     0.090 H 
ENDROOT
BRANCH   4  10
ATOM     10  C5' BS5 d   1     -30.719   4.379 -26.371  0.00  0.00     0.031 C 
ATOM     11  H11 BS5 d   1     -30.683   3.328 -26.694  0.00  0.00     0.069 H 
ATOM     12  H12 BS5 d   1     -31.684   4.819 -26.663  0.00  0.00     0.069 H 
BRANCH  10  13
ATOM     13  N5' BS5 d   1     -30.521   4.483 -24.951  0.00  0.00    -0.300 N 
ATOM     14  H13 BS5 d   1     -29.599   4.645 -24.599  0.00  0.00     0.173 HD
BRANCH  13  15
ATOM     15  S   BS5 d   1     -31.727   4.347 -23.925  0.00  0.00     0.321 S 
ATOM     16  OP1 BS5 d   1     -31.099   4.212 -22.641  0.00  0.00    -0.182 OA
ATOM     17  OP2 BS5 d   1     -32.451   3.131 -24.199  0.00  0.00    -0.182 OA
BRANCH  15  18
ATOM     18  NBB BS5 d   1     -32.719   5.628 -24.103  0.00  0.00    -0.238 N 
ATOM     19  CBB BS5 d   1     -32.509   6.926 -23.803  0.00  0.00     0.228 C 
ATOM     20  OCB BS5 d   1     -32.139   7.310 -22.700  0.00  0.00    -0.273 OA
ATOM     21  H17 BS5 d   1     -33.616   5.421 -24.492  0.00  0.00     0.183 HD
BRANCH  19  22
ATOM     22  CAB BS5 d   1     -32.727   7.926 -24.912  0.00  0.00    -0.002 C 
ATOM     23  H14 BS5 d   1     -32.523   8.940 -24.537  0.00  0.00     0.040 H 
ATOM     24  H15 BS5 d   1     -33.769   7.867 -25.260  0.00  0.00     0.040 H 
ATOM     25  H16 BS5 d   1     -32.048   7.701 -25.748  0.00  0.00     0.040 H 
ENDBRANCH  19  22
ENDBRANCH  15  18
ENDBRANCH  13  15
ENDBRANCH  10  13
ENDBRANCH   4  10
BRANCH   3  26
ATOM     26  O3' BS5 d   1     -28.880   7.368 -26.283  0.00  0.00    -0.390 OA
ATOM     27  H9  BS5 d   1     -29.027   8.302 -26.378  0.00  0.00     0.210 HD
ENDBRANCH   3  26
BRANCH   2  28
ATOM     28  O2' BS5 d   1     -29.340   8.221 -28.845  0.00  0.00    -0.388 OA
ATOM     29  H7  BS5 d   1     -28.464   8.286 -28.484  0.00  0.00     0.210 HD
ENDBRANCH   2  28
BRANCH   1  30
ATOM     30  N9  BS5 d   1     -29.351   5.572 -30.498  0.00  0.00    -0.294 N 
ATOM     31  C4  BS5 d   1     -28.430   5.348 -31.428  0.00  0.00     0.167 A 
ATOM     32  N3  BS5 d   1     -27.080   5.314 -31.432  0.00  0.00    -0.222 NA
ATOM     33  C5  BS5 d   1     -29.161   5.113 -32.676  0.00  0.00     0.149 A 
ATOM     34  C2  BS5 d   1     -26.406   5.058 -32.567  0.00  0.00     0.091 A 
ATOM     35  N1  BS5 d   1     -27.007   4.831 -33.752  0.00  0.00    -0.222 NA
ATOM     36  H1  BS5 d   1     -25.323   5.033 -32.527  0.00  0.00     0.146 H 
ATOM     37  C6  BS5 d   1     -28.353   4.841 -33.883  0.00  0.00     0.155 A 
ATOM     38  N7  BS5 d   1     -30.469   5.218 -32.378  0.00  0.00    -0.236 NA
ATOM     39  C8  BS5 d   1     -30.571   5.489 -31.052  0.00  0.00     0.071 A 
ATOM     40  H4  BS5 d   1     -31.509   5.620 -30.514  0.00  0.00     0.144 H 
BRANCH  37  41
ATOM     41  N6  BS5 d   1     -29.012   4.591 -35.192  0.00  0.00    -0.382 N 
ATOM     42  H2  BS5 d   1     -30.040   4.605 -35.262  0.00  0.00     0.157 HD
ATOM     43  H3  BS5 d   1     -28.441   4.404 -36.029  0.00  0.00     0.157 HD
ENDBRANCH  37  41
ENDBRANCH   1  30
TORSDOF 9
