REMARK  2 active torsions:
REMARK  status: ('A' for Active; 'I' for Inactive)
REMARK    1  A    between atoms: C3_3  and  O3_4 
REMARK    2  A    between atoms: C6_7  and  O6_8 
ROOT
ATOM      1  C1  HQE d   1       2.206  99.289  26.093  0.00  0.00    -0.048 A 
ATOM      2  C2  HQE d   1       1.473  99.974  25.135  0.00  0.00    -0.048 A 
ATOM      3  C3  HQE d   1       2.122 100.604  24.085  0.00  0.00     0.065 A 
ATOM      4  C4  HQE d   1       3.503 100.555  23.998  0.00  0.00    -0.048 A 
ATOM      5  C5  HQE d   1       4.236  99.875  24.955  0.00  0.00    -0.048 A 
ATOM      6  C6  HQE d   1       3.588  99.243  26.003  0.00  0.00     0.065 A 
ATOM      7  H1  HQE d   1       1.698  98.790  26.911  0.00  0.00     0.087 H 
ATOM      8  H2  HQE d   1       0.392 100.016  25.208  0.00  0.00     0.087 H 
ATOM      9  H4  HQE d   1       4.011 101.050  23.179  0.00  0.00     0.087 H 
ATOM     10  H5  HQE d   1       5.317  99.837  24.884  0.00  0.00     0.087 H 
ENDROOT
BRANCH   3  11
ATOM     11  O3  HQE d   1       1.384 101.297  23.108  0.00  0.00    -0.361 OA
ATOM     12  H3  HQE d   1       1.979 101.666  22.466  0.00  0.00     0.217 HD
ENDBRANCH   3  11
BRANCH   6  13
ATOM     13  O6  HQE d   1       4.340  98.556  26.971  0.00  0.00    -0.361 OA
ATOM     14  H6  HQE d   1       4.837  97.863  26.552  0.00  0.00     0.217 HD
ENDBRANCH   6  13
TORSDOF 2
