REMARK  13 active torsions:
REMARK  status: ('A' for Active; 'I' for Inactive)
REMARK    1  A    between atoms: C18_1  and  C16_2 
REMARK    2  A    between atoms: C16_2  and  C19_3 
REMARK    3  A    between atoms: C16_2  and  C20_4 
REMARK    4  A    between atoms: C16_2  and  C15_5 
REMARK    5  A    between atoms: C15_5  and  C14_6 
REMARK    6  A    between atoms: C14_6  and  N3_7 
REMARK       I    between atoms: N3_7  and  C13_8 
REMARK    7  A    between atoms: C13_8  and  C12_10 
REMARK    8  A    between atoms: C12_10  and  C17_11 
REMARK    9  A    between atoms: C12_10  and  C11_12 
REMARK   10  A    between atoms: C11_12  and  C4_13 
REMARK   11  A    between atoms: C3_14  and  N2_16 
REMARK   12  A    between atoms: C7_23  and  C10_24 
REMARK   13  A    between atoms: C21_29  and  C25_30 
ROOT
ATOM      1  C11 68M d   1      66.079  46.407   7.931  0.00  0.00    -0.026 C 
ATOM      2  H19 68M d   1      66.236  46.059   6.899  0.00  0.00     0.041 H 
ATOM      3  H20 68M d   1      66.349  45.605   8.634  0.00  0.00     0.041 H 
ENDROOT
BRANCH   1   4
ATOM      4  C12 68M d   1      64.593  46.817   8.135  0.00  0.00     0.024 C 
ATOM      5  H15 68M d   1      64.367  47.573   7.369  0.00  0.00     0.054 H 
BRANCH   4   6
ATOM      6  C13 68M d   1      64.336  47.476   9.503  0.00  0.00     0.221 C 
ATOM      7  N3  68M d   1      64.049  48.772   9.481  0.00  0.00    -0.361 N 
ATOM      8  H14 68M d   1      63.938  49.206   8.587  0.00  0.00     0.162 HD
ATOM      9  O1  68M d   1      64.407  46.836  10.550  0.00  0.00    -0.273 OA
BRANCH   7  10
ATOM     10  C14 68M d   1      63.882  49.617  10.673  0.00  0.00    -0.004 C 
ATOM     11  H12 68M d   1      62.964  50.218  10.595  0.00  0.00     0.064 H 
ATOM     12  H13 68M d   1      63.840  48.999  11.582  0.00  0.00     0.064 H 
BRANCH  10  13
ATOM     13  C15 68M d   1      65.128  50.530  10.694  0.00  0.00    -0.044 C 
ATOM     14  H10 68M d   1      66.017  49.883  10.737  0.00  0.00     0.036 H 
ATOM     15  H11 68M d   1      65.138  51.105   9.756  0.00  0.00     0.036 H 
BRANCH  13  16
ATOM     16  C16 68M d   1      65.221  51.529  11.856  0.00  0.00    -0.050 C 
BRANCH  16  17
ATOM     17  C18 68M d   1      65.444  50.756  13.150  0.00  0.00    -0.070 C 
ATOM     18  H1  68M d   1      65.513  51.461  13.991  0.00  0.00     0.028 H 
ATOM     19  H2  68M d   1      66.379  50.181  13.077  0.00  0.00     0.028 H 
ATOM     20  H3  68M d   1      64.602  50.068  13.316  0.00  0.00     0.028 H 
ENDBRANCH  16  17
BRANCH  16  21
ATOM     21  C19 68M d   1      66.415  52.475  11.632  0.00  0.00    -0.070 C 
ATOM     22  H4  68M d   1      66.266  53.039  10.700  0.00  0.00     0.028 H 
ATOM     23  H5  68M d   1      67.341  51.886  11.560  0.00  0.00     0.028 H 
ATOM     24  H6  68M d   1      66.491  53.176  12.477  0.00  0.00     0.028 H 
ENDBRANCH  16  21
BRANCH  16  25
ATOM     25  C20 68M d   1      63.943  52.356  11.942  0.00  0.00    -0.070 C 
ATOM     26  H7  68M d   1      63.084  51.688  12.102  0.00  0.00     0.028 H 
ATOM     27  H8  68M d   1      63.804  52.914  11.004  0.00  0.00     0.028 H 
ATOM     28  H9  68M d   1      64.019  53.063  12.781  0.00  0.00     0.028 H 
ENDBRANCH  16  25
ENDBRANCH  13  16
ENDBRANCH  10  13
ENDBRANCH   7  10
ENDBRANCH   4   6
BRANCH   4  29
ATOM     29  C17 68M d   1      63.625  45.632   7.901  0.00  0.00    -0.064 C 
ATOM     30  H16 68M d   1      63.829  45.180   6.919  0.00  0.00     0.028 H 
ATOM     31  H17 68M d   1      62.587  45.995   7.928  0.00  0.00     0.028 H 
ATOM     32  H18 68M d   1      63.771  44.878   8.689  0.00  0.00     0.028 H 
ENDBRANCH   4  29
ENDBRANCH   1   4
BRANCH   1  33
ATOM     33  C4  68M d   1      66.924  47.642   8.199  0.00  0.00    -0.011 A 
ATOM     34  C3  68M d   1      66.901  48.766   7.368  0.00  0.00     0.128 A 
ATOM     35  N1  68M d   1      67.614  49.866   7.653  0.00  0.00    -0.231 NA
ATOM     36  C2  68M d   1      68.410  49.929   8.752  0.00  0.00     0.069 A 
ATOM     37  C1  68M d   1      68.480  48.849   9.615  0.00  0.00    -0.006 A 
ATOM     38  C9  68M d   1      69.141  51.079   9.020  0.00  0.00    -0.053 A 
ATOM     39  C5  68M d   1      67.741  47.687   9.324  0.00  0.00    -0.061 A 
ATOM     40  C6  68M d   1      69.329  48.921  10.741  0.00  0.00    -0.059 A 
ATOM     41  H23 68M d   1      67.809  46.825   9.978  0.00  0.00     0.085 H 
ATOM     42  C7  68M d   1      70.046  50.090  11.031  0.00  0.00    -0.006 A 
ATOM     43  H24 68M d   1      69.428  48.059  11.391  0.00  0.00     0.086 H 
ATOM     44  C8  68M d   1      69.969  51.168  10.145  0.00  0.00    -0.069 A 
ATOM     45  H26 68M d   1      70.547  52.067  10.328  0.00  0.00     0.085 H 
ATOM     46  H25 68M d   1      69.069  51.924   8.345  0.00  0.00     0.087 H 
BRANCH  34  47
ATOM     47  N2  68M d   1      66.142  48.732   6.268  0.00  0.00    -0.384 N 
ATOM     48  H21 68M d   1      66.109  49.548   5.640  0.00  0.00     0.157 HD
ATOM     49  H22 68M d   1      65.591  47.890   6.048  0.00  0.00     0.157 HD
ENDBRANCH  34  47
BRANCH  42  50
ATOM     50  C10 68M d   1      70.958  50.169  12.112  0.00  0.00     0.072 A 
ATOM     51  N4  68M d   1      71.960  49.270  12.031  0.00  0.00    -0.260 NA
ATOM     52  C24 68M d   1      72.963  49.189  12.917  0.00  0.00     0.003 A 
ATOM     53  C23 68M d   1      72.965  50.072  13.993  0.00  0.00    -0.065 A 
ATOM     54  H27 68M d   1      73.752  48.455  12.799  0.00  0.00     0.114 H 
ATOM     55  C22 68M d   1      71.959  51.011  14.122  0.00  0.00    -0.074 A 
ATOM     56  H28 68M d   1      73.757  50.023  14.731  0.00  0.00     0.085 H 
ATOM     57  C21 68M d   1      70.931  51.080  13.169  0.00  0.00    -0.032 A 
ATOM     58  H29 68M d   1      71.964  51.696  14.962  0.00  0.00     0.084 H 
BRANCH  57  59
ATOM     59  C25 68M d   1      69.836  52.099  13.353  0.00  0.00    -0.049 C 
ATOM     60  H30 68M d   1      69.118  52.019  12.524  0.00  0.00     0.033 H 
ATOM     61  H31 68M d   1      70.273  53.109  13.363  0.00  0.00     0.033 H 
ATOM     62  H32 68M d   1      69.319  51.913  14.306  0.00  0.00     0.033 H 
ENDBRANCH  57  59
ENDBRANCH  42  50
ENDBRANCH   1  33
TORSDOF 13
