REMARK  3 active torsions:
REMARK  status: ('A' for Active; 'I' for Inactive)
REMARK    1  A    between atoms: C15_6  and  C11_7 
REMARK    2  A    between atoms: C1_25  and  N2_26 
REMARK       I    between atoms: N2_26  and  C20_27 
REMARK    3  A    between atoms: C20_27  and  C21_29 
ROOT
ATOM      1  C11 68L d   1      65.905  51.418  11.285  0.00  0.00     0.069 A 
ATOM      2  C12 68L d   1      66.172  50.427  10.333  0.00  0.00    -0.043 A 
ATOM      3  N1  68L d   1      66.944  52.130  11.776  0.00  0.00    -0.257 NA
ATOM      4  C10 68L d   1      68.202  51.915  11.408  0.00  0.00     0.036 A 
ATOM      5  C7  68L d   1      68.525  50.942  10.470  0.00  0.00     0.102 A 
ATOM      6  O1  68L d   1      69.830  50.784  10.154  0.00  0.00    -0.308 OA
ATOM      7  C8  68L d   1      67.486  50.176   9.926  0.00  0.00     0.015 A 
ATOM      8  C9  68L d   1      67.770  49.116   8.878  0.00  0.00     0.116 C 
ATOM      9  C13 68L d   1      67.384  47.697   9.314  0.00  0.00     0.060 C 
ATOM     10  O2  68L d   1      66.661  47.140   8.185  0.00  0.00    -0.319 OA
ATOM     11  C14 68L d   1      66.347  48.176   7.337  0.00  0.00     0.213 C 
ATOM     12  N3  68L d   1      66.903  49.325   7.687  0.00  0.00    -0.337 N 
ATOM     13  N4  68L d   1      65.533  48.039   6.290  0.00  0.00    -0.365 N 
ATOM     14  C5  68L d   1      69.222  49.190   8.446  0.00  0.00     0.013 A 
ATOM     15  C6  68L d   1      69.614  48.422   7.367  0.00  0.00    -0.045 A 
ATOM     16  C4  68L d   1      70.159  49.994   9.105  0.00  0.00     0.085 A 
ATOM     17  C3  68L d   1      71.472  50.002   8.654  0.00  0.00    -0.048 A 
ATOM     18  C2  68L d   1      71.861  49.217   7.564  0.00  0.00    -0.054 A 
ATOM     19  C1  68L d   1      70.917  48.402   6.919  0.00  0.00     0.035 A 
ATOM     20  H6  68L d   1      65.357  49.852   9.909  0.00  0.00     0.088 H 
ATOM     21  H7  68L d   1      68.993  52.511  11.848  0.00  0.00     0.119 H 
ATOM     22  H8  68L d   1      66.742  47.728  10.207  0.00  0.00     0.080 H 
ATOM     23  H9  68L d   1      68.283  47.101   9.529  0.00  0.00     0.080 H 
ATOM     24  H10 68L d   1      66.758  50.225   7.208  0.00  0.00     0.164 HD
ATOM     25  H11 68L d   1      65.331  48.848   5.686  0.00  0.00     0.159 HD
ATOM     26  H12 68L d   1      65.107  47.124   6.085  0.00  0.00     0.159 HD
ATOM     27  H13 68L d   1      68.874  47.816   6.857  0.00  0.00     0.088 H 
ATOM     28  H14 68L d   1      72.205  50.625   9.153  0.00  0.00     0.087 H 
ATOM     29  H15 68L d   1      72.888  49.238   7.218  0.00  0.00     0.087 H 
ENDROOT
BRANCH  19  30
ATOM     30  N2  68L d   1      71.165  47.638   5.837  0.00  0.00    -0.322 N 
ATOM     31  C20 68L d   1      72.351  47.256   5.344  0.00  0.00     0.274 C 
ATOM     32  O4  68L d   1      73.439  47.454   5.863  0.00  0.00    -0.266 OA
ATOM     33  H16 68L d   1      70.361  47.315   5.338  0.00  0.00     0.169 HD
BRANCH  31  34
ATOM     34  C21 68L d   1      72.232  46.475   4.046  0.00  0.00     0.124 A 
ATOM     35  C25 68L d   1      73.117  45.461   3.686  0.00  0.00    -0.048 A 
ATOM     36  C24 68L d   1      72.927  44.789   2.476  0.00  0.00    -0.058 A 
ATOM     37  H17 68L d   1      73.943  45.197   4.337  0.00  0.00     0.087 H 
ATOM     38  C23 68L d   1      71.849  45.152   1.668  0.00  0.00     0.051 A 
ATOM     39  H18 68L d   1      73.605  44.000   2.171  0.00  0.00     0.086 H 
ATOM     40 CL1  68L d   1      71.519  44.388   0.143  0.00  0.00    -0.083 Cl
ATOM     41  C22 68L d   1      71.006  46.165   2.089  0.00  0.00     0.024 A 
ATOM     42  N5  68L d   1      71.201  46.788   3.238  0.00  0.00    -0.254 NA
ATOM     43  H19 68L d   1      70.169  46.453   1.464  0.00  0.00     0.117 H 
ENDBRANCH  31  34
ENDBRANCH  19  30
BRANCH   1  44
ATOM     44  C15 68L d   1      64.600  51.723  11.731  0.00  0.00     0.014 C 
ATOM     45  C16 68L d   1      64.392  52.744  12.674  0.00  0.00     0.025 C 
ATOM     46  O3  68L d   1      63.114  52.863  13.362  0.00  0.00    -0.358 OA
ATOM     47  H1  68L d   1      65.192  53.451  12.892  0.00  0.00     0.124 H 
ATOM     48  C17 68L d   1      61.998  52.629  12.488  0.00  0.00     0.040 C 
ATOM     49  C18 68L d   1      62.144  51.335  11.679  0.00  0.00    -0.079 C 
ATOM     50  H2  68L d   1      61.915  53.474  11.789  0.00  0.00     0.081 H 
ATOM     51  H3  68L d   1      61.083  52.564  13.095  0.00  0.00     0.081 H 
ATOM     52  C19 68L d   1      63.461  51.079  11.268  0.00  0.00    -0.071 C 
ATOM     53  H4  68L d   1      61.307  50.678  11.446  0.00  0.00     0.080 H 
ATOM     54  H5  68L d   1      63.602  50.304  10.517  0.00  0.00     0.084 H 
ENDBRANCH   1  44
TORSDOF 3
