REMARK  16 active torsions:
REMARK  status: ('A' for Active; 'I' for Inactive)
REMARK    1  A    between atoms: C16_1  and  C15_2 
REMARK    2  A    between atoms: C15_2  and  C17_3 
REMARK    3  A    between atoms: C15_2  and  C18_4 
REMARK    4  A    between atoms: C15_2  and  C14_5 
REMARK    5  A    between atoms: C14_5  and  C13_6 
REMARK    6  A    between atoms: C13_6  and  N2_7 
REMARK       I    between atoms: N2_7  and  C12_8 
REMARK    7  A    between atoms: C12_8  and  C11_10 
REMARK    8  A    between atoms: C11_10  and  C10_11 
REMARK    9  A    between atoms: C10_11  and  C8_12 
REMARK   10  A    between atoms: C7_13  and  N3_15 
REMARK   11  A    between atoms: C1_22  and  C19_23 
REMARK   12  A    between atoms: C20_28  and  C25_29 
REMARK   13  A    between atoms: C26_30  and  C27_31 
REMARK   14  A    between atoms: C27_31  and  C28_32 
REMARK   15  A    between atoms: C28_32  and  N4_35 
REMARK       I    between atoms: N4_35  and  C31_36 
REMARK   16  A    between atoms: C31_36  and  C32_38 
ROOT
ATOM      1  C8  68J d   1      14.652 -41.975   8.681  0.00  0.00    -0.011 A 
ATOM      2  C7  68J d   1      14.529 -40.816   7.901  0.00  0.00     0.128 A 
ATOM      3  N1  68J d   1      15.100 -39.667   8.316  0.00  0.00    -0.231 NA
ATOM      4  C9  68J d   1      15.390 -41.935   9.878  0.00  0.00    -0.061 A 
ATOM      5  C5  68J d   1      15.986 -40.734  10.274  0.00  0.00    -0.006 A 
ATOM      6  C6  68J d   1      16.752 -40.643  11.447  0.00  0.00    -0.060 A 
ATOM      7  C4  68J d   1      15.819 -39.610   9.462  0.00  0.00     0.069 A 
ATOM      8  C3  68J d   1      16.405 -38.395   9.854  0.00  0.00    -0.053 A 
ATOM      9  C2  68J d   1      17.160 -38.317  11.026  0.00  0.00    -0.070 A 
ATOM     10  C1  68J d   1      17.334 -39.434  11.845  0.00  0.00    -0.024 A 
ATOM     11  H21 68J d   1      15.495 -42.826  10.487  0.00  0.00     0.085 H 
ATOM     12  H22 68J d   1      16.896 -41.527  12.057  0.00  0.00     0.086 H 
ATOM     13  H23 68J d   1      16.270 -37.511   9.242  0.00  0.00     0.087 H 
ATOM     14  H24 68J d   1      17.618 -37.375  11.304  0.00  0.00     0.084 H 
ENDROOT
BRANCH  10  15
ATOM     15  C19 68J d   1      18.166 -39.380  12.983  0.00  0.00    -0.007 A 
ATOM     16  C24 68J d   1      17.858 -38.699  14.153  0.00  0.00    -0.071 A 
ATOM     17  C23 68J d   1      18.778 -38.703  15.210  0.00  0.00    -0.082 A 
ATOM     18  H25 68J d   1      16.916 -38.170  14.248  0.00  0.00     0.084 H 
ATOM     19  C22 68J d   1      20.003 -39.360  15.107  0.00  0.00    -0.082 A 
ATOM     20  H26 68J d   1      18.531 -38.183  16.129  0.00  0.00     0.083 H 
ATOM     21  C21 68J d   1      20.334 -40.049  13.947  0.00  0.00    -0.064 A 
ATOM     22  H27 68J d   1      20.701 -39.333  15.936  0.00  0.00     0.083 H 
ATOM     23  C20 68J d   1      19.424 -40.050  12.890  0.00  0.00     0.028 A 
ATOM     24  H28 68J d   1      21.279 -40.574  13.865  0.00  0.00     0.085 H 
BRANCH  23  25
ATOM     25  C25 68J d   1      19.710 -40.702  11.645  0.00  0.00    -0.066 C 
ATOM     26  C26 68J d   1      19.914 -41.239  10.588  0.00  0.00    -0.099 C 
BRANCH  26  27
ATOM     27  C27 68J d   1      20.165 -41.873   9.286  0.00  0.00     0.014 C 
ATOM     28  H29 68J d   1      19.419 -42.661   9.107  0.00  0.00     0.055 H 
ATOM     29  H30 68J d   1      21.173 -42.313   9.275  0.00  0.00     0.055 H 
BRANCH  27  30
ATOM     30  C28 68J d   1      20.053 -40.767   8.164  0.00  0.00     0.043 A 
ATOM     31  C29 68J d   1      20.772 -39.418   8.382  0.00  0.00    -0.038 A 
ATOM     32  C30 68J d   1      19.250 -39.480   8.397  0.00  0.00    -0.038 A 
ATOM     33  H31 68J d   1      21.294 -38.932   7.545  0.00  0.00     0.036 H 
ATOM     34  H32 68J d   1      21.324 -39.234   9.315  0.00  0.00     0.036 H 
ATOM     35  H33 68J d   1      18.705 -39.337   9.342  0.00  0.00     0.036 H 
ATOM     36  H34 68J d   1      18.675 -39.035   7.571  0.00  0.00     0.036 H 
BRANCH  30  37
ATOM     37  N4  68J d   1      19.993 -41.236   6.771  0.00  0.00    -0.347 N 
ATOM     38  C31 68J d   1      21.100 -41.392   6.062  0.00  0.00     0.252 C 
ATOM     39  O2  68J d   1      22.221 -41.230   6.537  0.00  0.00    -0.268 OA
ATOM     40  H35 68J d   1      19.107 -41.439   6.355  0.00  0.00     0.163 HD
BRANCH  38  41
ATOM     41  C32 68J d   1      20.873 -41.882   4.627  0.00  0.00     0.032 A 
ATOM     42  C33 68J d   1      21.697 -42.854   4.089  0.00  0.00    -0.065 A 
ATOM     43  C34 68J d   1      21.488 -43.315   2.796  0.00  0.00    -0.045 A 
ATOM     44  H36 68J d   1      22.511 -43.258   4.680  0.00  0.00     0.085 H 
ATOM     45  C35 68J d   1      20.444 -42.809   2.016  0.00  0.00     0.116 A 
ATOM     46  H37 68J d   1      22.142 -44.076   2.386  0.00  0.00     0.088 H 
ATOM     47  F1  68J d   1      20.263 -43.268   0.744  0.00  0.00    -0.206 F 
ATOM     48  C36 68J d   1      19.620 -41.813   2.544  0.00  0.00    -0.045 A 
ATOM     49  C37 68J d   1      19.834 -41.356   3.849  0.00  0.00    -0.065 A 
ATOM     50  H38 68J d   1      18.818 -41.396   1.946  0.00  0.00     0.088 H 
ATOM     51  H39 68J d   1      19.190 -40.588   4.262  0.00  0.00     0.085 H 
ENDBRANCH  38  41
ENDBRANCH  30  37
ENDBRANCH  27  30
ENDBRANCH  26  27
ENDBRANCH  23  25
ENDBRANCH  10  15
BRANCH   1  52
ATOM     52  C10 68J d   1      13.966 -43.288   8.286  0.00  0.00    -0.029 C 
ATOM     53  H17 68J d   1      14.166 -43.515   7.229  0.00  0.00     0.041 H 
ATOM     54  H18 68J d   1      14.336 -44.111   8.914  0.00  0.00     0.041 H 
BRANCH  52  55
ATOM     55  C11 68J d   1      12.436 -43.089   8.511  0.00  0.00     0.013 C 
ATOM     56  H15 68J d   1      12.069 -42.372   7.762  0.00  0.00     0.047 H 
ATOM     57  H16 68J d   1      11.938 -44.059   8.366  0.00  0.00     0.047 H 
BRANCH  55  58
ATOM     58  C12 68J d   1      12.059 -42.557   9.916  0.00  0.00     0.217 C 
ATOM     59  N2  68J d   1      11.700 -41.280   9.993  0.00  0.00    -0.361 N 
ATOM     60  H14 68J d   1      11.649 -40.742   9.152  0.00  0.00     0.162 HD
ATOM     61  O1  68J d   1      12.117 -43.280  10.904  0.00  0.00    -0.274 OA
BRANCH  59  62
ATOM     62  C13 68J d   1      11.374 -40.629  11.272  0.00  0.00    -0.004 C 
ATOM     63  H12 68J d   1      10.582 -39.880  11.122  0.00  0.00     0.064 H 
ATOM     64  H13 68J d   1      11.035 -41.380  12.001  0.00  0.00     0.064 H 
BRANCH  62  65
ATOM     65  C14 68J d   1      12.656 -39.945  11.779  0.00  0.00    -0.044 C 
ATOM     66  H10 68J d   1      13.447 -40.708  11.823  0.00  0.00     0.036 H 
ATOM     67  H11 68J d   1      12.934 -39.171  11.049  0.00  0.00     0.036 H 
BRANCH  65  68
ATOM     68  C15 68J d   1      12.573 -39.276  13.161  0.00  0.00    -0.050 C 
BRANCH  68  69
ATOM     69  C16 68J d   1      13.970 -39.077  13.703  0.00  0.00    -0.070 C 
ATOM     70  H1  68J d   1      13.915 -38.599  14.692  0.00  0.00     0.028 H 
ATOM     71  H2  68J d   1      14.542 -38.435  13.017  0.00  0.00     0.028 H 
ATOM     72  H3  68J d   1      14.470 -40.052  13.795  0.00  0.00     0.028 H 
ENDBRANCH  68  69
BRANCH  68  73
ATOM     73  C17 68J d   1      11.809 -40.160  14.149  0.00  0.00    -0.070 C 
ATOM     74  H4  68J d   1      10.786 -40.323  13.780  0.00  0.00     0.028 H 
ATOM     75  H5  68J d   1      11.770 -39.665  15.130  0.00  0.00     0.028 H 
ATOM     76  H6  68J d   1      12.322 -41.128  14.247  0.00  0.00     0.028 H 
ENDBRANCH  68  73
BRANCH  68  77
ATOM     77  C18 68J d   1      11.915 -37.920  13.020  0.00  0.00    -0.070 C 
ATOM     78  H7  68J d   1      12.485 -37.308  12.305  0.00  0.00     0.028 H 
ATOM     79  H8  68J d   1      11.896 -37.418  13.999  0.00  0.00     0.028 H 
ATOM     80  H9  68J d   1      10.886 -38.048  12.654  0.00  0.00     0.028 H 
ENDBRANCH  68  77
ENDBRANCH  65  68
ENDBRANCH  62  65
ENDBRANCH  59  62
ENDBRANCH  55  58
ENDBRANCH  52  55
ENDBRANCH   1  52
BRANCH   2  81
ATOM     81  N3  68J d   1      13.831 -40.837   6.733  0.00  0.00    -0.384 N 
ATOM     82  H19 68J d   1      13.747 -39.980   6.168  0.00  0.00     0.157 HD
ATOM     83  H20 68J d   1      13.387 -41.710   6.414  0.00  0.00     0.157 HD
ENDBRANCH   2  81
TORSDOF 16
