REMARK  16 active torsions:
REMARK  status: ('A' for Active; 'I' for Inactive)
REMARK    1  A    between atoms: C16_1  and  C15_2 
REMARK    2  A    between atoms: C15_2  and  C17_3 
REMARK    3  A    between atoms: C15_2  and  C18_4 
REMARK    4  A    between atoms: C15_2  and  C14_5 
REMARK    5  A    between atoms: C14_5  and  C13_6 
REMARK    6  A    between atoms: C13_6  and  N2_7 
REMARK       I    between atoms: N2_7  and  C12_8 
REMARK    7  A    between atoms: C12_8  and  C11_10 
REMARK    8  A    between atoms: C11_10  and  C10_11 
REMARK    9  A    between atoms: C10_11  and  C8_12 
REMARK   10  A    between atoms: C7_13  and  N3_15 
REMARK   11  A    between atoms: C1_22  and  C19_23 
REMARK   12  A    between atoms: C20_28  and  C25_29 
REMARK   13  A    between atoms: C25_29  and  C26_30 
REMARK   14  A    between atoms: C26_30  and  C27_31 
REMARK   15  A    between atoms: C30_36  and  N5_37 
REMARK       I    between atoms: N5_37  and  C32_38 
REMARK   16  A    between atoms: C32_38  and  C33_40 
ROOT
ATOM      1  C8  68K d   1      14.135  41.714  -8.610  0.00  0.00    -0.011 A 
ATOM      2  C7  68K d   1      14.122  40.611  -7.739  0.00  0.00     0.128 A 
ATOM      3  N1  68K d   1      14.857  39.523  -8.027  0.00  0.00    -0.231 NA
ATOM      4  C9  68K d   1      14.933  41.668  -9.760  0.00  0.00    -0.061 A 
ATOM      5  C5  68K d   1      15.677  40.534 -10.047  0.00  0.00    -0.006 A 
ATOM      6  C6  68K d   1      16.489  40.483 -11.191  0.00  0.00    -0.060 A 
ATOM      7  C4  68K d   1      15.607  39.457  -9.158  0.00  0.00     0.069 A 
ATOM      8  C3  68K d   1      16.340  38.307  -9.457  0.00  0.00    -0.053 A 
ATOM      9  C2  68K d   1      17.156  38.277 -10.591  0.00  0.00    -0.070 A 
ATOM     10  C1  68K d   1      17.219  39.336 -11.485  0.00  0.00    -0.025 A 
ATOM     11  H21 68K d   1      14.969  42.521 -10.428  0.00  0.00     0.085 H 
ATOM     12  H22 68K d   1      16.547  41.342 -11.849  0.00  0.00     0.086 H 
ATOM     13  H23 68K d   1      16.276  37.439  -8.811  0.00  0.00     0.087 H 
ATOM     14  H24 68K d   1      17.760  37.397 -10.778  0.00  0.00     0.084 H 
ENDROOT
BRANCH  10  15
ATOM     15  C19 68K d   1      18.087  39.266 -12.602  0.00  0.00    -0.020 A 
ATOM     16  C24 68K d   1      17.827  38.568 -13.787  0.00  0.00    -0.072 A 
ATOM     17  C23 68K d   1      18.780  38.557 -14.831  0.00  0.00    -0.082 A 
ATOM     18  H25 68K d   1      16.891  38.034 -13.905  0.00  0.00     0.084 H 
ATOM     19  C22 68K d   1      20.002  39.231 -14.699  0.00  0.00    -0.082 A 
ATOM     20  H26 68K d   1      18.563  38.020 -15.747  0.00  0.00     0.083 H 
ATOM     21  C21 68K d   1      20.271  39.917 -13.503  0.00  0.00    -0.076 A 
ATOM     22  H27 68K d   1      20.726  39.223 -15.505  0.00  0.00     0.083 H 
ATOM     23  C20 68K d   1      19.323  39.924 -12.454  0.00  0.00    -0.047 A 
ATOM     24  H28 68K d   1      21.211  40.444 -13.384  0.00  0.00     0.084 H 
BRANCH  23  25
ATOM     25  C25 68K d   1      19.720  40.728 -11.178  0.00  0.00    -0.035 C 
ATOM     26  H29 68K d   1      18.827  41.241 -10.792  0.00  0.00     0.040 H 
ATOM     27  H30 68K d   1      20.481  41.473 -11.453  0.00  0.00     0.040 H 
BRANCH  25  28
ATOM     28  C26 68K d   1      20.287  39.831 -10.073  0.00  0.00    -0.021 C 
ATOM     29  H31 68K d   1      21.350  39.648 -10.287  0.00  0.00     0.042 H 
ATOM     30  H32 68K d   1      19.740  38.877 -10.087  0.00  0.00     0.042 H 
BRANCH  28  31
ATOM     31  C27 68K d   1      20.175  40.429  -8.669  0.00  0.00     0.034 A 
ATOM     32  C28 68K d   1      18.932  40.588  -8.070  0.00  0.00    -0.057 A 
ATOM     33  C29 68K d   1      18.848  41.131  -6.792  0.00  0.00    -0.054 A 
ATOM     34  H33 68K d   1      18.032  40.291  -8.596  0.00  0.00     0.086 H 
ATOM     35  C30 68K d   1      20.009  41.485  -6.102  0.00  0.00     0.052 A 
ATOM     36  H34 68K d   1      17.878  41.280  -6.331  0.00  0.00     0.087 H 
ATOM     37  C31 68K d   1      21.238  41.295  -6.756  0.00  0.00     0.028 A 
ATOM     38  N4  68K d   1      21.272  40.774  -7.984  0.00  0.00    -0.263 NA
ATOM     39  H35 68K d   1      22.162  41.573  -6.261  0.00  0.00     0.118 H 
BRANCH  35  40
ATOM     40  N5  68K d   1      19.860  42.004  -4.877  0.00  0.00    -0.322 N 
ATOM     41  C32 68K d   1      20.843  42.409  -4.070  0.00  0.00     0.256 C 
ATOM     42  O2  68K d   1      22.036  42.346  -4.314  0.00  0.00    -0.267 OA
ATOM     43  H36 68K d   1      18.925  42.097  -4.535  0.00  0.00     0.169 HD
BRANCH  41  44
ATOM     44  C33 68K d   1      20.450  42.960  -2.707  0.00  0.00     0.032 A 
ATOM     45  C34 68K d   1      19.304  42.548  -2.044  0.00  0.00    -0.065 A 
ATOM     46  C35 68K d   1      19.007  43.061  -0.785  0.00  0.00    -0.045 A 
ATOM     47  H37 68K d   1      18.640  41.827  -2.506  0.00  0.00     0.085 H 
ATOM     48  C36 68K d   1      19.854  43.992  -0.200  0.00  0.00     0.116 A 
ATOM     49  H38 68K d   1      18.116  42.734  -0.262  0.00  0.00     0.088 H 
ATOM     50  F1  68K d   1      19.564  44.490   1.018  0.00  0.00    -0.206 F 
ATOM     51  C37 68K d   1      21.019  44.401  -0.854  0.00  0.00    -0.045 A 
ATOM     52  C38 68K d   1      21.316  43.878  -2.107  0.00  0.00    -0.065 A 
ATOM     53  H39 68K d   1      21.685  45.119  -0.389  0.00  0.00     0.088 H 
ATOM     54  H40 68K d   1      22.221  44.183  -2.620  0.00  0.00     0.085 H 
ENDBRANCH  41  44
ENDBRANCH  35  40
ENDBRANCH  28  31
ENDBRANCH  25  28
ENDBRANCH  23  25
ENDBRANCH  10  15
BRANCH   1  55
ATOM     55  C10 68K d   1      13.335  43.001  -8.417  0.00  0.00    -0.029 C 
ATOM     56  H17 68K d   1      13.448  43.349  -7.380  0.00  0.00     0.041 H 
ATOM     57  H18 68K d   1      13.712  43.772  -9.105  0.00  0.00     0.041 H 
BRANCH  55  58
ATOM     58  C11 68K d   1      11.846  42.740  -8.709  0.00  0.00     0.013 C 
ATOM     59  H15 68K d   1      11.441  42.114  -7.900  0.00  0.00     0.047 H 
ATOM     60  H16 68K d   1      11.323  43.708  -8.722  0.00  0.00     0.047 H 
BRANCH  58  61
ATOM     61  C12 68K d   1      11.580  42.035 -10.038  0.00  0.00     0.217 C 
ATOM     62  N2  68K d   1      11.327  40.749  -9.960  0.00  0.00    -0.361 N 
ATOM     63  H14 68K d   1      11.275  40.320  -9.058  0.00  0.00     0.162 HD
ATOM     64  O1  68K d   1      11.636  42.623 -11.105  0.00  0.00    -0.274 OA
BRANCH  62  65
ATOM     65  C13 68K d   1      11.120  39.929 -11.143  0.00  0.00    -0.004 C 
ATOM     66  H12 68K d   1      10.237  39.289 -11.001  0.00  0.00     0.064 H 
ATOM     67  H13 68K d   1      10.967  40.575 -12.020  0.00  0.00     0.064 H 
BRANCH  65  68
ATOM     68  C14 68K d   1      12.366  39.055 -11.353  0.00  0.00    -0.044 C 
ATOM     69  H10 68K d   1      13.253  39.704 -11.319  0.00  0.00     0.036 H 
ATOM     70  H11 68K d   1      12.416  38.322 -10.534  0.00  0.00     0.036 H 
BRANCH  68  71
ATOM     71  C15 68K d   1      12.376  38.295 -12.680  0.00  0.00    -0.050 C 
BRANCH  71  72
ATOM     72  C16 68K d   1      13.608  37.388 -12.746  0.00  0.00    -0.070 C 
ATOM     73  H1  68K d   1      13.611  36.843 -13.702  0.00  0.00     0.028 H 
ATOM     74  H2  68K d   1      13.579  36.669 -11.914  0.00  0.00     0.028 H 
ATOM     75  H3  68K d   1      14.519  38.000 -12.670  0.00  0.00     0.028 H 
ENDBRANCH  71  72
BRANCH  71  76
ATOM     76  C17 68K d   1      12.371  39.303 -13.840  0.00  0.00    -0.070 C 
ATOM     77  H4  68K d   1      11.477  39.940 -13.768  0.00  0.00     0.028 H 
ATOM     78  H5  68K d   1      12.359  38.761 -14.797  0.00  0.00     0.028 H 
ATOM     79  H6  68K d   1      13.273  39.930 -13.785  0.00  0.00     0.028 H 
ENDBRANCH  71  76
BRANCH  71  80
ATOM     80  C18 68K d   1      11.160  37.395 -12.742  0.00  0.00    -0.070 C 
ATOM     81  H7  68K d   1      11.187  36.684 -11.903  0.00  0.00     0.028 H 
ATOM     82  H8  68K d   1      11.162  36.841 -13.692  0.00  0.00     0.028 H 
ATOM     83  H9  68K d   1      10.248  38.006 -12.676  0.00  0.00     0.028 H 
ENDBRANCH  71  80
ENDBRANCH  68  71
ENDBRANCH  65  68
ENDBRANCH  62  65
ENDBRANCH  58  61
ENDBRANCH  55  58
ENDBRANCH   1  55
BRANCH   2  84
ATOM     84  N3  68K d   1      13.386  40.633  -6.621  0.00  0.00    -0.384 N 
ATOM     85  H19 68K d   1      13.384  39.819  -5.990  0.00  0.00     0.157 HD
ATOM     86  H20 68K d   1      12.822  41.464  -6.392  0.00  0.00     0.157 HD
ENDBRANCH   2  84
TORSDOF 16
