REMARK  5 active torsions:
REMARK  status: ('A' for Active; 'I' for Inactive)
REMARK    1  A    between atoms: C3_19  and  C2_2 
REMARK       I    between atoms: C2_2  and  N_21 
REMARK    2  A    between atoms: N_21  and  C1_3 
REMARK    3  A    between atoms: C9_6  and  C7_18 
REMARK    4  A    between atoms: N1_12  and  C11_9 
REMARK    5  A    between atoms: N_21  and  C_22 
ROOT
ATOM      1  C4  67B d   1     -12.805   6.071   9.322  0.00  0.00    -0.068 A 
ATOM      2  C5  67B d   1     -13.206   4.774   9.563  0.00  0.00    -0.081 A 
ATOM      3  C8  67B d   1     -14.954   6.887  10.096  0.00  0.00    -0.057 A 
ATOM      4  C6  67B d   1     -14.472   4.518  10.062  0.00  0.00    -0.072 A 
ATOM      5  C7  67B d   1     -15.350   5.572  10.346  0.00  0.00    -0.023 A 
ATOM      6  C3  67B d   1     -13.667   7.131   9.603  0.00  0.00     0.033 A 
ATOM      7  H1  67B d   1     -11.820   6.267   8.914  0.00  0.00     0.085 H 
ATOM      8  H5  67B d   1     -12.528   3.952   9.361  0.00  0.00     0.083 H 
ATOM      9  H6  67B d   1     -15.635   7.710  10.281  0.00  0.00     0.086 H 
ATOM     10  H7  67B d   1     -14.786   3.495  10.234  0.00  0.00     0.084 H 
ENDROOT
BRANCH   5  11
ATOM     11  C9  67B d   1     -16.703   5.248  10.858  0.00  0.00     0.003 A 
ATOM     12  C10 67B d   1     -17.492   4.418  10.121  0.00  0.00    -0.006 A 
ATOM     13  N1  67B d   1     -18.739   4.065  10.534  0.00  0.00    -0.326 N 
ATOM     14  H8  67B d   1     -17.115   4.027   9.177  0.00  0.00     0.113 H 
ATOM     15  C12 67B d   1     -19.292   4.504  11.676  0.00  0.00     0.274 A 
ATOM     16  O1  67B d   1     -20.430   4.136  11.990  0.00  0.00    -0.265 OA
ATOM     17  C13 67B d   1     -18.551   5.385  12.488  0.00  0.00     0.112 A 
ATOM     18  N2  67B d   1     -18.840   6.008  13.679  0.00  0.00    -0.361 N 
ATOM     19  C14 67B d   1     -17.259   5.785  12.109  0.00  0.00     0.010 A 
ATOM     20  C16 67B d   1     -17.766   6.773  14.038  0.00  0.00    -0.021 A 
ATOM     21  H12 67B d   1     -19.717   5.914  14.211  0.00  0.00     0.165 HD
ATOM     22  C15 67B d   1     -16.788   6.660  13.112  0.00  0.00    -0.055 A 
ATOM     23  H13 67B d   1     -17.707   7.384  14.938  0.00  0.00     0.111 H 
ATOM     24  H14 67B d   1     -15.817   7.152  13.135  0.00  0.00     0.087 H 
BRANCH  13  25
ATOM     25  C11 67B d   1     -19.508   3.157   9.678  0.00  0.00    -0.011 C 
ATOM     26  H9  67B d   1     -18.912   2.897   8.791  0.00  0.00     0.057 H 
ATOM     27  H10 67B d   1     -20.439   3.651   9.363  0.00  0.00     0.057 H 
ATOM     28  H11 67B d   1     -19.750   2.242  10.238  0.00  0.00     0.057 H 
ENDBRANCH  13  25
ENDBRANCH   5  11
BRANCH   6  29
ATOM     29  C2  67B d   1     -13.215   8.504   9.304  0.00  0.00     0.253 C 
ATOM     30  O   67B d   1     -12.966   8.773   8.141  0.00  0.00    -0.267 OA
ATOM     31  N   67B d   1     -13.076   9.449  10.256  0.00  0.00    -0.357 N 
BRANCH  31  32
ATOM     32  C1  67B d   1     -12.623  10.787   9.869  0.00  0.00    -0.016 C 
ATOM     33  H2  67B d   1     -12.566  11.427  10.762  0.00  0.00     0.056 H 
ATOM     34  H3  67B d   1     -13.334  11.222   9.151  0.00  0.00     0.056 H 
ATOM     35  H4  67B d   1     -11.629  10.717   9.403  0.00  0.00     0.056 H 
ENDBRANCH  31  32
BRANCH  31  36
ATOM     36  C   67B d   1     -13.344   9.183  11.670  0.00  0.00    -0.016 C 
ATOM     37  H15 67B d   1     -13.673   8.140  11.791  0.00  0.00     0.056 H 
ATOM     38  H16 67B d   1     -14.134   9.860  12.027  0.00  0.00     0.056 H 
ATOM     39  H17 67B d   1     -12.427   9.348  12.255  0.00  0.00     0.056 H 
ENDBRANCH  31  36
ENDBRANCH   6  29
TORSDOF 5
