REMARK  7 active torsions:
REMARK  status: ('A' for Active; 'I' for Inactive)
REMARK    1  A    between atoms: C4_1  and  C3_9 
REMARK    2  A    between atoms: N5_12  and  C4_1 
REMARK    3  A    between atoms: C7_4  and  C16_15 
REMARK    4  A    between atoms: C2_11  and  C1_10 
REMARK    5  A    between atoms: C20_19  and  C22_21 
REMARK       I    between atoms: C22_21  and  N24_23 
REMARK    6  A    between atoms: N24_23  and  C25_24 
REMARK    7  A    between atoms: N24_23  and  C26_25 
ROOT
ATOM      1  C14 69G d   1     -19.104   4.713  11.639  0.00  0.00     0.275 A 
ATOM      2  C6  69G d   1     -17.319   4.693  10.065  0.00  0.00    -0.005 A 
ATOM      3  C7  69G d   1     -16.593   5.624  10.741  0.00  0.00     0.003 A 
ATOM      4  C8  69G d   1     -17.171   6.158  11.986  0.00  0.00     0.010 A 
ATOM      5  C9  69G d   1     -16.753   7.108  12.938  0.00  0.00    -0.055 A 
ATOM      6  C10 69G d   1     -17.721   7.188  13.875  0.00  0.00    -0.021 A 
ATOM      7  C13 69G d   1     -18.429   5.684  12.400  0.00  0.00     0.112 A 
ATOM      8  N5  69G d   1     -18.532   4.244  10.509  0.00  0.00    -0.318 N 
ATOM      9  N11 69G d   1     -18.738   6.337  13.570  0.00  0.00    -0.361 N 
ATOM     10  O15 69G d   1     -20.197   4.291  12.002  0.00  0.00    -0.265 OA
ATOM     11  H3  69G d   1     -16.919   4.290   9.136  0.00  0.00     0.113 H 
ATOM     12  H4  69G d   1     -15.822   7.673  12.921  0.00  0.00     0.087 H 
ATOM     13  H5  69G d   1     -17.692   7.839  14.748  0.00  0.00     0.111 H 
ATOM     14  H11 69G d   1     -19.596   6.204  14.123  0.00  0.00     0.165 HD
ENDROOT
BRANCH   3  15
ATOM     15  C16 69G d   1     -15.280   6.105  10.216  0.00  0.00    -0.023 A 
ATOM     16  C17 69G d   1     -14.373   5.196   9.667  0.00  0.00    -0.072 A 
ATOM     17  C18 69G d   1     -13.156   5.644   9.177  0.00  0.00    -0.081 A 
ATOM     18  H12 69G d   1     -14.620   4.141   9.624  0.00  0.00     0.084 H 
ATOM     19  C19 69G d   1     -12.834   6.987   9.206  0.00  0.00    -0.068 A 
ATOM     20  H13 69G d   1     -12.449   4.932   8.766  0.00  0.00     0.083 H 
ATOM     21  C20 69G d   1     -13.726   7.913   9.749  0.00  0.00     0.033 A 
ATOM     22  H14 69G d   1     -11.884   7.323   8.805  0.00  0.00     0.085 H 
ATOM     23  C21 69G d   1     -14.955   7.462  10.240  0.00  0.00    -0.057 A 
ATOM     24  H15 69G d   1     -15.664   8.175  10.644  0.00  0.00     0.086 H 
BRANCH  21  25
ATOM     25  C22 69G d   1     -13.375   9.357   9.797  0.00  0.00     0.253 C 
ATOM     26  O23 69G d   1     -13.168   9.983   8.776  0.00  0.00    -0.267 OA
ATOM     27  N24 69G d   1     -13.257   9.997  10.981  0.00  0.00    -0.357 N 
BRANCH  27  28
ATOM     28  C25 69G d   1     -12.901  11.417  11.000  0.00  0.00    -0.016 C 
ATOM     29  H16 69G d   1     -12.850  11.768  12.041  0.00  0.00     0.056 H 
ATOM     30  H17 69G d   1     -13.663  11.993  10.455  0.00  0.00     0.056 H 
ATOM     31  H18 69G d   1     -11.922  11.556  10.518  0.00  0.00     0.056 H 
ENDBRANCH  27  28
BRANCH  27  32
ATOM     32  C26 69G d   1     -13.479   9.297  12.250  0.00  0.00    -0.016 C 
ATOM     33  H19 69G d   1     -13.736   8.246  12.049  0.00  0.00     0.056 H 
ATOM     34  H20 69G d   1     -14.305   9.778  12.795  0.00  0.00     0.056 H 
ATOM     35  H21 69G d   1     -12.563   9.341  12.858  0.00  0.00     0.056 H 
ENDBRANCH  27  32
ENDBRANCH  21  25
ENDBRANCH   3  15
BRANCH   8  36
ATOM     36  C4  69G d   1     -19.242   3.235   9.725  0.00  0.00     0.017 C 
ATOM     37  H1  69G d   1     -18.510   2.582   9.227  0.00  0.00     0.071 H 
ATOM     38  H2  69G d   1     -19.874   2.634  10.396  0.00  0.00     0.071 H 
BRANCH  36  39
ATOM     39  C3  69G d   1     -20.112   3.894   8.680  0.00  0.00    -0.090 C 
ATOM     40  C2  69G d   1     -20.253   5.196   8.644  0.00  0.00    -0.109 C 
ATOM     41  H10 69G d   1     -19.735   5.819   9.372  0.00  0.00     0.075 H 
ATOM     42  H6  69G d   1     -20.629   3.278   7.946  0.00  0.00     0.078 H 
BRANCH  40  43
ATOM     43  C1  69G d   1     -21.129   5.834   7.598  0.00  0.00    -0.060 C 
ATOM     44  H7  69G d   1     -21.121   6.926   7.729  0.00  0.00     0.032 H 
ATOM     45  H8  69G d   1     -22.158   5.460   7.704  0.00  0.00     0.032 H 
ATOM     46  H9  69G d   1     -20.748   5.582   6.597  0.00  0.00     0.032 H 
ENDBRANCH  40  43
ENDBRANCH  36  39
ENDBRANCH   8  36
TORSDOF 7
