REMARK  5 active torsions:
REMARK  status: ('A' for Active; 'I' for Inactive)
REMARK    1  A    between atoms: C3_19  and  C2_2 
REMARK       I    between atoms: C2_2  and  N_21 
REMARK    2  A    between atoms: N_21  and  C1_3 
REMARK    3  A    between atoms: C9_6  and  C7_18 
REMARK    4  A    between atoms: N1_12  and  C11_9 
REMARK    5  A    between atoms: N_21  and  C_22 
ROOT
ATOM      1  C4  67B d   1     -14.950  -0.386  10.220  0.00  0.00    -0.068 A 
ATOM      2  C5  67B d   1     -14.707  -1.029  11.423  0.00  0.00    -0.081 A 
ATOM      3  C8  67B d   1     -14.376  -2.433   9.098  0.00  0.00    -0.057 A 
ATOM      4  C6  67B d   1     -14.292  -2.357  11.483  0.00  0.00    -0.072 A 
ATOM      5  C7  67B d   1     -14.131  -3.077  10.300  0.00  0.00    -0.023 A 
ATOM      6  C3  67B d   1     -14.769  -1.094   9.033  0.00  0.00     0.033 A 
ATOM      7  H1  67B d   1     -15.275   0.648  10.202  0.00  0.00     0.085 H 
ATOM      8  H5  67B d   1     -14.844  -0.480  12.348  0.00  0.00     0.083 H 
ATOM      9  H6  67B d   1     -14.258  -2.988   8.175  0.00  0.00     0.086 H 
ATOM     10  H7  67B d   1     -14.096  -2.826  12.440  0.00  0.00     0.084 H 
ENDROOT
BRANCH   5  11
ATOM     11  C9  67B d   1     -13.658  -4.486  10.279  0.00  0.00     0.003 A 
ATOM     12  C10 67B d   1     -12.653  -4.856  11.125  0.00  0.00    -0.006 A 
ATOM     13  N1  67B d   1     -12.134  -6.118  11.137  0.00  0.00    -0.326 N 
ATOM     14  H8  67B d   1     -12.250  -4.117  11.816  0.00  0.00     0.113 H 
ATOM     15  C12 67B d   1     -12.566  -7.089  10.308  0.00  0.00     0.274 A 
ATOM     16  O1  67B d   1     -12.069  -8.220  10.335  0.00  0.00    -0.265 OA
ATOM     17  C13 67B d   1     -13.607  -6.804   9.408  0.00  0.00     0.112 A 
ATOM     18  N2  67B d   1     -14.251  -7.561   8.469  0.00  0.00    -0.361 N 
ATOM     19  C14 67B d   1     -14.176  -5.514   9.366  0.00  0.00     0.010 A 
ATOM     20  C16 67B d   1     -15.190  -6.788   7.853  0.00  0.00    -0.021 A 
ATOM     21  H12 67B d   1     -14.059  -8.551   8.261  0.00  0.00     0.165 HD
ATOM     22  C15 67B d   1     -15.175  -5.542   8.372  0.00  0.00    -0.055 A 
ATOM     23  H13 67B d   1     -15.854  -7.126   7.059  0.00  0.00     0.111 H 
ATOM     24  H14 67B d   1     -15.816  -4.712   8.077  0.00  0.00     0.087 H 
BRANCH  13  25
ATOM     25  C11 67B d   1     -11.034  -6.396  12.071  0.00  0.00    -0.011 C 
ATOM     26  H9  67B d   1     -10.819  -5.494  12.663  0.00  0.00     0.057 H 
ATOM     27  H10 67B d   1     -10.136  -6.686  11.505  0.00  0.00     0.057 H 
ATOM     28  H11 67B d   1     -11.323  -7.216  12.745  0.00  0.00     0.057 H 
ENDBRANCH  13  25
ENDBRANCH   5  11
BRANCH   6  29
ATOM     29  C2  67B d   1     -15.051  -0.456   7.727  0.00  0.00     0.253 C 
ATOM     30  O   67B d   1     -16.109   0.129   7.612  0.00  0.00    -0.267 OA
ATOM     31  N   67B d   1     -14.212  -0.508   6.661  0.00  0.00    -0.357 N 
BRANCH  31  32
ATOM     32  C1  67B d   1     -14.627   0.138   5.413  0.00  0.00    -0.016 C 
ATOM     33  H2  67B d   1     -13.842   0.006   4.654  0.00  0.00     0.056 H 
ATOM     34  H3  67B d   1     -14.788   1.211   5.592  0.00  0.00     0.056 H 
ATOM     35  H4  67B d   1     -15.562  -0.319   5.057  0.00  0.00     0.056 H 
ENDBRANCH  31  32
BRANCH  31  36
ATOM     36  C   67B d   1     -12.892  -1.161   6.673  0.00  0.00    -0.016 C 
ATOM     37  H15 67B d   1     -12.710  -1.602   7.664  0.00  0.00     0.056 H 
ATOM     38  H16 67B d   1     -12.113  -0.416   6.454  0.00  0.00     0.056 H 
ATOM     39  H17 67B d   1     -12.868  -1.953   5.910  0.00  0.00     0.056 H 
ENDBRANCH  31  36
ENDBRANCH   6  29
TORSDOF 5
