REMARK  7 active torsions:
REMARK  status: ('A' for Active; 'I' for Inactive)
REMARK    1  A    between atoms: C4_1  and  C3_9 
REMARK    2  A    between atoms: N5_12  and  C4_1 
REMARK    3  A    between atoms: C7_4  and  C16_15 
REMARK    4  A    between atoms: C2_11  and  C1_10 
REMARK    5  A    between atoms: C20_19  and  C22_21 
REMARK       I    between atoms: C22_21  and  N24_23 
REMARK    6  A    between atoms: N24_23  and  C25_24 
REMARK    7  A    between atoms: N24_23  and  C26_25 
ROOT
ATOM      1  C14 69G d   1     -12.495  -7.124  10.332  0.00  0.00     0.275 A 
ATOM      2  C6  69G d   1     -12.610  -4.909  11.209  0.00  0.00    -0.005 A 
ATOM      3  C7  69G d   1     -13.708  -4.599  10.470  0.00  0.00     0.003 A 
ATOM      4  C8  69G d   1     -14.252  -5.625   9.578  0.00  0.00     0.010 A 
ATOM      5  C9  69G d   1     -15.327  -5.677   8.672  0.00  0.00    -0.055 A 
ATOM      6  C10 69G d   1     -15.332  -6.904   8.115  0.00  0.00    -0.021 A 
ATOM      7  C13 69G d   1     -13.622  -6.877   9.526  0.00  0.00     0.112 A 
ATOM      8  N5  69G d   1     -12.040  -6.151  11.141  0.00  0.00    -0.318 N 
ATOM      9  N11 69G d   1     -14.303  -7.647   8.616  0.00  0.00    -0.361 N 
ATOM     10  O15 69G d   1     -11.931  -8.221  10.284  0.00  0.00    -0.265 OA
ATOM     11  H3  69G d   1     -12.177  -4.156  11.866  0.00  0.00     0.113 H 
ATOM     12  H4  69G d   1     -16.028  -4.871   8.459  0.00  0.00     0.087 H 
ATOM     13  H5  69G d   1     -16.051  -7.251   7.375  0.00  0.00     0.111 H 
ATOM     14  H11 69G d   1     -14.076  -8.618   8.356  0.00  0.00     0.165 HD
ENDROOT
BRANCH   3  15
ATOM     15  C16 69G d   1     -14.253  -3.233  10.527  0.00  0.00    -0.023 A 
ATOM     16  C17 69G d   1     -14.421  -2.559  11.734  0.00  0.00    -0.072 A 
ATOM     17  C18 69G d   1     -14.898  -1.266  11.747  0.00  0.00    -0.081 A 
ATOM     18  H12 69G d   1     -14.176  -3.053  12.667  0.00  0.00     0.084 H 
ATOM     19  C19 69G d   1     -15.193  -0.613  10.563  0.00  0.00    -0.068 A 
ATOM     20  H13 69G d   1     -15.043  -0.756  12.693  0.00  0.00     0.083 H 
ATOM     21  C20 69G d   1     -15.001  -1.271   9.347  0.00  0.00     0.033 A 
ATOM     22  H14 69G d   1     -15.571   0.403  10.580  0.00  0.00     0.085 H 
ATOM     23  C21 69G d   1     -14.530  -2.583   9.327  0.00  0.00    -0.057 A 
ATOM     24  H15 69G d   1     -14.380  -3.094   8.383  0.00  0.00     0.086 H 
BRANCH  21  25
ATOM     25  C22 69G d   1     -15.331  -0.562   8.091  0.00  0.00     0.253 C 
ATOM     26  O23 69G d   1     -16.408  -0.015   8.012  0.00  0.00    -0.267 OA
ATOM     27  N24 69G d   1     -14.483  -0.492   7.040  0.00  0.00    -0.357 N 
BRANCH  27  28
ATOM     28  C25 69G d   1     -14.909   0.237   5.843  0.00  0.00    -0.016 C 
ATOM     29  H16 69G d   1     -14.111   0.199   5.087  0.00  0.00     0.056 H 
ATOM     30  H17 69G d   1     -15.116   1.285   6.106  0.00  0.00     0.056 H 
ATOM     31  H18 69G d   1     -15.820  -0.226   5.437  0.00  0.00     0.056 H 
ENDBRANCH  27  28
BRANCH  27  32
ATOM     32  C26 69G d   1     -13.154  -1.107   7.046  0.00  0.00    -0.016 C 
ATOM     33  H19 69G d   1     -12.988  -1.612   8.009  0.00  0.00     0.056 H 
ATOM     34  H20 69G d   1     -12.389  -0.329   6.903  0.00  0.00     0.056 H 
ATOM     35  H21 69G d   1     -13.086  -1.842   6.230  0.00  0.00     0.056 H 
ENDBRANCH  27  32
ENDBRANCH  21  25
ENDBRANCH   3  15
BRANCH   8  36
ATOM     36  C4  69G d   1     -10.830  -6.411  11.931  0.00  0.00     0.017 C 
ATOM     37  H1  69G d   1     -10.435  -7.398  11.649  0.00  0.00     0.071 H 
ATOM     38  H2  69G d   1     -10.086  -5.637  11.693  0.00  0.00     0.071 H 
BRANCH  36  39
ATOM     39  C3  69G d   1     -11.070  -6.401  13.418  0.00  0.00    -0.090 C 
ATOM     40  C2  69G d   1     -10.543  -5.404  14.101  0.00  0.00    -0.109 C 
ATOM     41  H10 69G d   1      -9.972  -4.638  13.578  0.00  0.00     0.075 H 
ATOM     42  H6  69G d   1     -11.652  -7.181  13.906  0.00  0.00     0.078 H 
BRANCH  40  43
ATOM     43  C1  69G d   1     -10.720  -5.309  15.600  0.00  0.00    -0.060 C 
ATOM     44  H7  69G d   1     -10.207  -4.411  15.974  0.00  0.00     0.032 H 
ATOM     45  H8  69G d   1     -10.290  -6.202  16.077  0.00  0.00     0.032 H 
ATOM     46  H9  69G d   1     -11.792  -5.245  15.839  0.00  0.00     0.032 H 
ENDBRANCH  40  43
ENDBRANCH  36  39
ENDBRANCH   8  36
TORSDOF 7
