REMARK  5 active torsions:
REMARK  status: ('A' for Active; 'I' for Inactive)
REMARK    1  A    between atoms: C12_7  and  C15_14 
REMARK    2  A    between atoms: C2_10  and  C1_9 
REMARK    3  A    between atoms: C21_20  and  C25_24 
REMARK    4  A    between atoms: N23_22  and  C24_23 
REMARK    5  A    between atoms: N28_27  and  C30_29 
ROOT
ATOM      1  C15 69E d   1      31.469  12.747  15.081  0.00  0.00    -0.023 A 
ATOM      2  C16 69E d   1      31.199  12.575  16.447  0.00  0.00    -0.070 A 
ATOM      3  C17 69E d   1      32.131  11.992  17.256  0.00  0.00    -0.054 A 
ATOM      4  C18 69E d   1      33.344  11.549  16.725  0.00  0.00     0.065 A 
ATOM      5  C19 69E d   1      33.633  11.704  15.362  0.00  0.00     0.025 A 
ATOM      6  C20 69E d   1      32.683  12.317  14.540  0.00  0.00    -0.058 A 
ATOM      7  C21 69E d   1      34.984  11.132  15.168  0.00  0.00     0.102 A 
ATOM      8  N22 69E d   1      35.400  10.686  16.319  0.00  0.00    -0.171 NA
ATOM      9  N23 69E d   1      34.434  10.930  17.284  0.00  0.00    -0.273 N 
ATOM     10  H12 69E d   1      30.252  12.905  16.859  0.00  0.00     0.084 H 
ATOM     11  H13 69E d   1      31.929  11.873  18.314  0.00  0.00     0.087 H 
ATOM     12  H14 69E d   1      32.888  12.458  13.485  0.00  0.00     0.086 H 
ENDROOT
BRANCH   1  13
ATOM     13  C12 69E d   1      30.496  13.429  14.188  0.00  0.00     0.003 A 
ATOM     14  C11 69E d   1      30.866  14.702  13.739  0.00  0.00    -0.070 A 
ATOM     15  C10 69E d   1      30.043  15.429  12.908  0.00  0.00    -0.080 A 
ATOM     16  H3  69E d   1      31.816  15.122  14.050  0.00  0.00     0.084 H 
ATOM     17  C9  69E d   1      28.836  14.892  12.498  0.00  0.00    -0.055 A 
ATOM     18  H5  69E d   1      30.340  16.418  12.577  0.00  0.00     0.083 H 
ATOM     19  C8  69E d   1      28.446  13.639  12.954  0.00  0.00     0.062 A 
ATOM     20  H4  69E d   1      28.196  15.448  11.822  0.00  0.00     0.087 H 
ATOM     21  C13 69E d   1      29.265  12.880  13.805  0.00  0.00     0.066 A 
ATOM     22  N7  69E d   1      27.253  13.097  12.455  0.00  0.00    -0.325 N 
ATOM     23  N14 69E d   1      28.932  11.588  14.240  0.00  0.00    -0.383 N 
ATOM     24  C2  69E d   1      27.660  11.334  14.961  0.00  0.00     0.014 C 
ATOM     25  H11 69E d   1      29.578  10.807  14.057  0.00  0.00     0.160 HD
ATOM     26  C4  69E d   1      26.566  12.347  14.642  0.00  0.00     0.028 C 
ATOM     27  H9  69E d   1      27.862  11.374  16.042  0.00  0.00     0.072 H 
ATOM     28  C5  69E d   1      26.353  12.430  13.165  0.00  0.00     0.224 C 
ATOM     29  H1  69E d   1      25.629  12.035  15.127  0.00  0.00     0.050 H 
ATOM     30  H2  69E d   1      26.864  13.335  15.022  0.00  0.00     0.050 H 
ATOM     31  O6  69E d   1      25.388  11.946  12.608  0.00  0.00    -0.273 OA
ATOM     32  H10 69E d   1      27.065  13.224  11.481  0.00  0.00     0.169 HD
BRANCH  24  33
ATOM     33  C1  69E d   1      27.163   9.936  14.594  0.00  0.00    -0.057 C 
ATOM     34  H6  69E d   1      27.946   9.197  14.821  0.00  0.00     0.030 H 
ATOM     35  H7  69E d   1      26.926   9.901  13.520  0.00  0.00     0.030 H 
ATOM     36  H8  69E d   1      26.260   9.703  15.177  0.00  0.00     0.030 H 
ENDBRANCH  24  33
ENDBRANCH   1  13
BRANCH   7  37
ATOM     37  C25 69E d   1      35.762  11.006  13.917  0.00  0.00     0.032 A 
ATOM     38  C26 69E d   1      36.950  10.258  13.784  0.00  0.00     0.035 A 
ATOM     39  N27 69E d   1      37.333  10.353  12.543  0.00  0.00    -0.185 NA
ATOM     40  H18 69E d   1      37.454   9.703  14.574  0.00  0.00     0.118 H 
ATOM     41  N28 69E d   1      36.399  11.135  11.858  0.00  0.00    -0.285 N 
ATOM     42  C29 69E d   1      35.434  11.523  12.708  0.00  0.00     0.012 A 
ATOM     43  H19 69E d   1      34.562  12.132  12.473  0.00  0.00     0.115 H 
BRANCH  41  44
ATOM     44  C30 69E d   1      36.441  11.485  10.448  0.00  0.00     0.002 C 
ATOM     45  H20 69E d   1      35.571  12.110  10.199  0.00  0.00     0.059 H 
ATOM     46  H21 69E d   1      36.419  10.568   9.842  0.00  0.00     0.059 H 
ATOM     47  H22 69E d   1      37.365  12.043  10.236  0.00  0.00     0.059 H 
ENDBRANCH  41  44
ENDBRANCH   7  37
BRANCH   9  48
ATOM     48  C24 69E d   1      34.566  10.586  18.693  0.00  0.00     0.003 C 
ATOM     49  H15 69E d   1      35.538  10.100  18.862  0.00  0.00     0.059 H 
ATOM     50  H16 69E d   1      33.757   9.898  18.980  0.00  0.00     0.059 H 
ATOM     51  H17 69E d   1      34.502  11.500  19.301  0.00  0.00     0.059 H 
ENDBRANCH   9  48
TORSDOF 5
