REMARK  12 active torsions:
REMARK  status: ('A' for Active; 'I' for Inactive)
REMARK    1  A    between atoms: OAV_22  and  CAA_1 
REMARK    2  A    between atoms: CAX_24  and  O02_2 
REMARK    3  A    between atoms: O02_2  and  C01_36 
REMARK    4  A    between atoms: CAM_13  and  CAC_3 
REMARK    5  A    between atoms: CAC_3  and  NBH_34 
REMARK    6  A    between atoms: CAN_14  and  CAM_13 
REMARK    7  A    between atoms: OAW_23  and  CAN_14 
REMARK    8  A    between atoms: NBI_35  and  CAO_15 
REMARK    9  A    between atoms: NAU_21  and  CBB_28 
REMARK   10  A    between atoms: CBE_31  and  NAU_21 
REMARK   11  A    between atoms: CBC_29  and  OAV_22 
REMARK   12  A    between atoms: CBD_30  and  OAW_23 
ROOT
ATOM      1  NAD DB8 d   1     -92.762 -14.793   8.676  0.00  0.00    -0.191 NA
ATOM      2  CAG DB8 d   1     -91.797 -14.652   8.182  0.00  0.00     0.103 C 
ATOM      3  CAH DB8 d   1     -90.435 -14.076   6.295  0.00  0.00     0.025 A 
ATOM      4  CAK DB8 d   1     -86.862 -13.873   5.654  0.00  0.00    -0.019 A 
ATOM      5  CAL DB8 d   1     -86.865 -14.802   8.317  0.00  0.00    -0.034 A 
ATOM      6  NAT DB8 d   1     -89.213 -13.872   5.674  0.00  0.00    -0.259 NA
ATOM      7  CBA DB8 d   1     -90.503 -14.529   7.604  0.00  0.00     0.089 A 
ATOM      8  CBC DB8 d   1     -85.676 -14.569   7.629  0.00  0.00     0.102 A 
ATOM      9  CBD DB8 d   1     -85.675 -14.111   6.321  0.00  0.00     0.104 A 
ATOM     10  CBE DB8 d   1     -89.314 -14.794   8.303  0.00  0.00     0.068 A 
ATOM     11  CBF DB8 d   1     -88.058 -14.104   6.334  0.00  0.00     0.071 A 
ATOM     12  CBG DB8 d   1     -88.079 -14.568   7.662  0.00  0.00     0.024 A 
ATOM     13  H6  DB8 d   1     -91.351 -13.879   5.750  0.00  0.00     0.117 H 
ATOM     14  H9  DB8 d   1     -86.864 -13.517   4.630  0.00  0.00     0.091 H 
ATOM     15  H10 DB8 d   1     -86.850 -15.158   9.341  0.00  0.00     0.089 H 
ENDROOT
BRANCH  10  16
ATOM     16  NAU DB8 d   1     -89.322 -15.260   9.598  0.00  0.00    -0.353 N 
ATOM     17  H26 DB8 d   1     -88.546 -15.010  10.227  0.00  0.00     0.166 HD
BRANCH  16  18
ATOM     18  CBB DB8 d   1     -90.348 -16.057  10.076  0.00  0.00     0.057 A 
ATOM     19  CAJ DB8 d   1     -90.871 -17.178   9.402  0.00  0.00    -0.022 A 
ATOM     20  CAX DB8 d   1     -91.966 -17.875   9.945  0.00  0.00     0.092 A 
ATOM     21  H8  DB8 d   1     -90.430 -17.503   8.466  0.00  0.00     0.091 H 
ATOM     22  CAY DB8 d   1     -92.529 -17.498  11.152  0.00  0.00     0.069 A 
ATOM     23 CL1  DB8 d   1     -93.879 -18.414  11.795  0.00  0.00    -0.081 Cl
ATOM     24  CAI DB8 d   1     -92.026 -16.396  11.821  0.00  0.00    -0.036 A 
ATOM     25  CAZ DB8 d   1     -90.961 -15.683  11.282  0.00  0.00     0.062 A 
ATOM     26  H7  DB8 d   1     -92.462 -16.089  12.765  0.00  0.00     0.088 H 
ATOM     27 CL2  DB8 d   1     -90.430 -14.309  12.205  0.00  0.00    -0.082 Cl
BRANCH  20  28
ATOM     28  O02 DB8 d   1     -92.545 -18.978   9.368  0.00  0.00    -0.354 OA
BRANCH  28  29
ATOM     29  C01 DB8 d   1     -92.100 -19.180   8.026  0.00  0.00     0.010 C 
ATOM     30  H29 DB8 d   1     -92.590 -20.072   7.608  0.00  0.00     0.066 H 
ATOM     31  H30 DB8 d   1     -91.009 -19.323   8.019  0.00  0.00     0.066 H 
ATOM     32  H31 DB8 d   1     -92.358 -18.301   7.418  0.00  0.00     0.066 H 
ENDBRANCH  28  29
ENDBRANCH  20  28
ENDBRANCH  16  18
ENDBRANCH  10  16
BRANCH   8  33
ATOM     33  OAV DB8 d   1     -84.427 -14.764   8.161  0.00  0.00    -0.353 OA
BRANCH  33  34
ATOM     34  CAA DB8 d   1     -84.413 -15.372   9.456  0.00  0.00     0.010 C 
ATOM     35  H1  DB8 d   1     -83.373 -15.486   9.796  0.00  0.00     0.066 H 
ATOM     36  H2  DB8 d   1     -84.892 -16.361   9.402  0.00  0.00     0.066 H 
ATOM     37  H3  DB8 d   1     -84.963 -14.736  10.165  0.00  0.00     0.066 H 
ENDBRANCH  33  34
ENDBRANCH   8  33
BRANCH   9  38
ATOM     38  OAW DB8 d   1     -84.443 -13.912   5.775  0.00  0.00    -0.348 OA
BRANCH  38  39
ATOM     39  CAN DB8 d   1     -84.443 -13.615   4.373  0.00  0.00     0.028 C 
ATOM     40  H13 DB8 d   1     -85.013 -14.379   3.823  0.00  0.00     0.075 H 
ATOM     41  H14 DB8 d   1     -84.889 -12.626   4.195  0.00  0.00     0.075 H 
BRANCH  39  42
ATOM     42  CAM DB8 d   1     -82.976 -13.623   3.924  0.00  0.00    -0.022 C 
ATOM     43  H11 DB8 d   1     -82.433 -14.424   4.446  0.00  0.00     0.038 H 
ATOM     44  H12 DB8 d   1     -82.921 -13.790   2.838  0.00  0.00     0.038 H 
BRANCH  42  45
ATOM     45  CAC DB8 d   1     -82.360 -12.277   4.268  0.00  0.00     0.086 C 
ATOM     46  H4  DB8 d   1     -82.463 -12.105   5.350  0.00  0.00     0.076 H 
ATOM     47  H5  DB8 d   1     -82.897 -11.490   3.719  0.00  0.00     0.076 H 
BRANCH  45  48
ATOM     48  NBH DB8 d   1     -80.931 -12.215   3.911  0.00  0.00    -0.068 N 
ATOM     49  CAP DB8 d   1     -80.569 -10.789   3.817  0.00  0.00     0.106 C 
ATOM     50  CAR DB8 d   1     -79.076 -10.615   3.582  0.00  0.00     0.105 C 
ATOM     51  H18 DB8 d   1     -81.119 -10.334   2.981  0.00  0.00     0.078 H 
ATOM     52  H19 DB8 d   1     -80.846 -10.286   4.755  0.00  0.00     0.078 H 
ATOM     53  NBI DB8 d   1     -78.328 -11.241   4.681  0.00  0.00    -0.072 N 
ATOM     54  H22 DB8 d   1     -78.835  -9.543   3.539  0.00  0.00     0.078 H 
ATOM     55  H23 DB8 d   1     -78.797 -11.092   2.631  0.00  0.00     0.078 H 
ATOM     56  CAS DB8 d   1     -78.655 -12.674   4.739  0.00  0.00     0.105 C 
ATOM     57  H28 DB8 d   1     -78.601 -10.807   5.549  0.00  0.00     0.279 HD
ATOM     58  CAQ DB8 d   1     -80.142 -12.860   4.974  0.00  0.00     0.106 C 
ATOM     59  H24 DB8 d   1     -78.375 -13.150   3.788  0.00  0.00     0.078 H 
ATOM     60  H25 DB8 d   1     -78.095 -13.142   5.562  0.00  0.00     0.078 H 
ATOM     61  H20 DB8 d   1     -80.411 -12.414   5.943  0.00  0.00     0.078 H 
ATOM     62  H21 DB8 d   1     -80.372 -13.936   4.989  0.00  0.00     0.078 H 
ATOM     63  H27 DB8 d   1     -80.766 -12.678   3.031  0.00  0.00     0.280 HD
BRANCH  53  64
ATOM     64  CAO DB8 d   1     -76.880 -11.057   4.497  0.00  0.00     0.066 C 
ATOM     65  H15 DB8 d   1     -76.649  -9.982   4.455  0.00  0.00     0.068 H 
ATOM     66  H16 DB8 d   1     -76.566 -11.536   3.558  0.00  0.00     0.068 H 
ATOM     67  H17 DB8 d   1     -76.342 -11.515   5.340  0.00  0.00     0.068 H 
ENDBRANCH  53  64
ENDBRANCH  45  48
ENDBRANCH  42  45
ENDBRANCH  39  42
ENDBRANCH  38  39
ENDBRANCH   9  38
TORSDOF 12
