REMARK  10 active torsions:
REMARK  status: ('A' for Active; 'I' for Inactive)
REMARK    1  A    between atoms: C3_3  and  C2_2 
REMARK       I    between atoms: N2_22  and  C3_3 
REMARK    2  A    between atoms: N6_4  and  C20_16 
REMARK    3  A    between atoms: C9_7  and  C10_8 
REMARK    4  A    between atoms: N_18  and  C11_9 
REMARK    5  A    between atoms: C13_11  and  N5_30 
REMARK    6  A    between atoms: C14_12  and  C15_13 
REMARK    7  A    between atoms: C20_16  and  C21_17 
REMARK    8  A    between atoms: C21_17  and  O1_33 
REMARK    9  A    between atoms: C_19  and  N_18 
REMARK   10  A    between atoms: N2_22  and  C4_23 
ROOT
ATOM      1  C11 1N1 d   1     -66.173 -12.995  44.089  0.00  0.00     0.135 A 
ATOM      2  C12 1N1 d   1     -65.086 -12.681  43.268  0.00  0.00     0.006 A 
ATOM      3  C13 1N1 d   1     -63.813 -12.677  43.838  0.00  0.00     0.131 A 
ATOM      4  C14 1N1 d   1     -64.709 -13.265  45.901  0.00  0.00     0.126 A 
ATOM      5  N3  1N1 d   1     -63.656 -12.968  45.135  0.00  0.00    -0.216 NA
ATOM      6  N4  1N1 d   1     -65.933 -13.273  45.375  0.00  0.00    -0.216 NA
ATOM      7  H8  1N1 d   1     -65.228 -12.447  42.219  0.00  0.00     0.095 H 
ENDROOT
BRANCH   1   8
ATOM      8  N   1N1 d   1     -67.421 -13.006  43.587  0.00  0.00    -0.320 N 
ATOM      9  H20 1N1 d   1     -67.572 -12.637  42.637  0.00  0.00     0.169 HD
BRANCH   8  10
ATOM     10  C   1N1 d   1     -68.487 -13.480  44.272  0.00  0.00     0.172 A 
ATOM     11  N1  1N1 d   1     -69.736 -13.464  43.783  0.00  0.00    -0.235 NA
ATOM     12  C1  1N1 d   1     -70.682 -13.989  44.609  0.00  0.00     0.027 A 
ATOM     13  C2  1N1 d   1     -70.223 -14.439  45.792  0.00  0.00     0.094 A 
ATOM     14  H1  1N1 d   1     -71.734 -14.041  44.333  0.00  0.00     0.117 H 
ATOM     15  S   1N1 d   1     -68.549 -14.167  45.827  0.00  0.00    -0.045 SA
BRANCH  13  16
ATOM     16  C3  1N1 d   1     -70.909 -15.019  46.815  0.00  0.00     0.264 C 
ATOM     17  N2  1N1 d   1     -72.207 -15.397  46.618  0.00  0.00    -0.320 N 
ATOM     18  H21 1N1 d   1     -72.647 -15.230  45.736  0.00  0.00     0.169 HD
ATOM     19  O   1N1 d   1     -70.323 -15.224  47.876  0.00  0.00    -0.267 OA
BRANCH  17  20
ATOM     20  C4  1N1 d   1     -72.907 -16.005  47.627  0.00  0.00     0.062 A 
ATOM     21  C9  1N1 d   1     -73.543 -15.226  48.604  0.00  0.00    -0.034 A 
ATOM     22  C8  1N1 d   1     -74.267 -15.846  49.621  0.00  0.00    -0.075 A 
ATOM     23  C7  1N1 d   1     -74.369 -17.231  49.665  0.00  0.00    -0.081 A 
ATOM     24  H4  1N1 d   1     -74.753 -15.245  50.381  0.00  0.00     0.084 H 
ATOM     25  C6  1N1 d   1     -73.749 -18.004  48.690  0.00  0.00    -0.060 A 
ATOM     26  H3  1N1 d   1     -74.932 -17.708  50.459  0.00  0.00     0.083 H 
ATOM     27  C5  1N1 d   1     -73.019 -17.404  47.666  0.00  0.00     0.061 A 
ATOM     28  H22 1N1 d   1     -73.834 -19.084  48.727  0.00  0.00     0.086 H 
ATOM     29 CL   1N1 d   1     -72.284 -18.442  46.486  0.00  0.00    -0.082 Cl
BRANCH  21  30
ATOM     30  C10 1N1 d   1     -73.469 -13.837  48.598  0.00  0.00    -0.049 C 
ATOM     31  H5  1N1 d   1     -74.038 -13.436  49.450  0.00  0.00     0.033 H 
ATOM     32  H6  1N1 d   1     -73.894 -13.451  47.660  0.00  0.00     0.033 H 
ATOM     33  H7  1N1 d   1     -72.417 -13.525  48.680  0.00  0.00     0.033 H 
ENDBRANCH  21  30
ENDBRANCH  17  20
ENDBRANCH  13  16
ENDBRANCH   8  10
ENDBRANCH   1   8
BRANCH   3  34
ATOM     34  N5  1N1 d   1     -62.703 -12.382  43.148  0.00  0.00    -0.362 N 
ATOM     35  C16 1N1 d   1     -62.749 -11.781  41.804  0.00  0.00     0.019 C 
ATOM     36  C17 1N1 d   1     -61.704 -10.672  41.683  0.00  0.00     0.098 C 
ATOM     37  H12 1N1 d   1     -63.749 -11.358  41.630  0.00  0.00     0.066 H 
ATOM     38  H13 1N1 d   1     -62.543 -12.557  41.052  0.00  0.00     0.066 H 
ATOM     39  N6  1N1 d   1     -60.369 -11.111  42.128  0.00  0.00    -0.066 N 
ATOM     40  H23 1N1 d   1     -61.641 -10.359  40.630  0.00  0.00     0.078 H 
ATOM     41  H24 1N1 d   1     -62.020  -9.819  42.301  0.00  0.00     0.078 H 
ATOM     42  C18 1N1 d   1     -60.425 -11.514  43.540  0.00  0.00     0.098 C 
ATOM     43  H2  1N1 d   1     -60.056 -11.884  41.561  0.00  0.00     0.280 HD
ATOM     44  C19 1N1 d   1     -61.391 -12.653  43.772  0.00  0.00     0.019 C 
ATOM     45  H25 1N1 d   1     -60.745 -10.651  44.142  0.00  0.00     0.078 H 
ATOM     46  H26 1N1 d   1     -59.421 -11.831  43.858  0.00  0.00     0.078 H 
ATOM     47  H14 1N1 d   1     -60.971 -13.572  43.338  0.00  0.00     0.066 H 
ATOM     48  H15 1N1 d   1     -61.531 -12.789  44.855  0.00  0.00     0.066 H 
BRANCH  39  49
ATOM     49  C20 1N1 d   1     -59.431  -9.981  42.009  0.00  0.00     0.103 C 
ATOM     50  H16 1N1 d   1     -59.770  -9.165  42.664  0.00  0.00     0.079 H 
ATOM     51  H17 1N1 d   1     -59.421  -9.633  40.965  0.00  0.00     0.079 H 
BRANCH  49  52
ATOM     52  C21 1N1 d   1     -58.009 -10.387  42.413  0.00  0.00     0.039 C 
ATOM     53  H18 1N1 d   1     -57.292  -9.974  41.688  0.00  0.00     0.076 H 
ATOM     54  H19 1N1 d   1     -57.932 -11.484  42.421  0.00  0.00     0.076 H 
BRANCH  52  55
ATOM     55  O1  1N1 d   1     -57.707  -9.881  43.719  0.00  0.00    -0.399 OA
ATOM     56  H27 1N1 d   1     -57.772  -8.933  43.713  0.00  0.00     0.209 HD
ENDBRANCH  52  55
ENDBRANCH  49  52
ENDBRANCH  39  49
ENDBRANCH   3  34
BRANCH   4  57
ATOM     57  C15 1N1 d   1     -64.533 -13.568  47.250  0.00  0.00    -0.019 C 
ATOM     58  H9  1N1 d   1     -63.464 -13.511  47.502  0.00  0.00     0.037 H 
ATOM     59  H10 1N1 d   1     -64.903 -14.585  47.449  0.00  0.00     0.037 H 
ATOM     60  H11 1N1 d   1     -65.093 -12.847  47.864  0.00  0.00     0.037 H 
ENDBRANCH   4  57
TORSDOF 10
