REMARK  8 active torsions:
REMARK  status: ('A' for Active; 'I' for Inactive)
REMARK       I    between atoms: C25_25  and  N1_1 
REMARK    1  A    between atoms: C3_3  and  N5_5 
REMARK       I    between atoms: N5_5  and  C6_6 
REMARK    2  A    between atoms: C6_6  and  C7_7 
REMARK    3  A    between atoms: C24_24  and  N17_17 
REMARK    4  A    between atoms: N20_20  and  C23_23 
REMARK    5  A    between atoms: C20_32  and  C25_25 
REMARK    6  A    between atoms: C27_27  and  C20_32 
REMARK    7  A    between atoms: C20_32  and  O34_35 
REMARK    8  A    between atoms: O34_35  and  C36_34 
ROOT
ATOM      1  N5  627 d   1     -99.340 -14.882  43.546  0.00  0.00    -0.305 N 
ATOM      2  C6  627 d   1     -98.209 -15.127  44.266  0.00  0.00     0.257 C 
ATOM      3  O8  627 d   1     -98.203 -15.646  45.378  0.00  0.00    -0.267 OA
ATOM      4  H2  627 d   1     -99.255 -14.465  42.641  0.00  0.00     0.170 HD
ENDROOT
BRANCH   1   5
ATOM      5  C3  627 d   1    -100.590 -15.188  44.020  0.00  0.00     0.164 A 
ATOM      6  N4  627 d   1    -101.635 -15.025  43.193  0.00  0.00    -0.155 NA
ATOM      7  N2  627 d   1    -102.690 -15.328  43.769  0.00  0.00    -0.274 N 
ATOM      8  C13 627 d   1    -102.424 -15.721  45.026  0.00  0.00     0.081 A 
ATOM      9  H1  627 d   1    -103.629 -15.285  43.348  0.00  0.00     0.189 HD
ATOM     10  C14 627 d   1    -101.096 -15.628  45.196  0.00  0.00     0.057 A 
ATOM     11  C16 627 d   1    -103.069 -16.188  46.189  0.00  0.00     0.015 C 
ATOM     12  C15 627 d   1    -100.776 -16.027  46.527  0.00  0.00     0.003 C 
ATOM     13  N1  627 d   1    -102.034 -16.226  47.223  0.00  0.00    -0.298 N 
ATOM     14  H7  627 d   1     -99.778 -16.158  46.942  0.00  0.00     0.114 H 
ATOM     15  C25 627 d   1    -102.284 -16.468  48.524  0.00  0.00     0.261 C 
ATOM     16  O26 627 d   1    -103.419 -16.658  48.976  0.00  0.00    -0.269 OA
ATOM     17  H8  627 d   1    -104.117 -16.463  46.296  0.00  0.00     0.116 H 
BRANCH  15  18
ATOM     18  C20 627 d   1    -101.056 -16.486  49.459  0.00  0.00     0.140 C 
ATOM     19  H25 627 d   1    -100.229 -17.036  48.985  0.00  0.00     0.106 H 
BRANCH  18  20
ATOM     20  C27 627 d   1    -100.641 -15.165  49.729  0.00  0.00    -0.020 A 
ATOM     21  C28 627 d   1     -99.300 -14.799  49.605  0.00  0.00    -0.074 A 
ATOM     22  C31 627 d   1     -98.886 -13.492  49.856  0.00  0.00    -0.082 A 
ATOM     23  H21 627 d   1     -98.569 -15.543  49.309  0.00  0.00     0.084 H 
ATOM     24  C35 627 d   1     -99.807 -12.528  50.249  0.00  0.00    -0.083 A 
ATOM     25  H23 627 d   1     -97.841 -13.226  49.744  0.00  0.00     0.083 H 
ATOM     26  C33 627 d   1    -101.150 -12.881  50.376  0.00  0.00    -0.082 A 
ATOM     27  H26 627 d   1     -99.485 -11.514  50.454  0.00  0.00     0.083 H 
ATOM     28  C29 627 d   1    -101.567 -14.193  50.116  0.00  0.00    -0.074 A 
ATOM     29  H24 627 d   1    -101.876 -12.135  50.678  0.00  0.00     0.083 H 
ATOM     30  H22 627 d   1    -102.614 -14.456  50.216  0.00  0.00     0.084 H 
ENDBRANCH  18  20
BRANCH  18  31
ATOM     31  O34 627 d   1    -101.459 -17.157  50.666  0.00  0.00    -0.377 OA
BRANCH  31  32
ATOM     32  C36 627 d   1    -100.375 -17.335  51.597  0.00  0.00     0.005 C 
ATOM     33  H27 627 d   1    -100.744 -17.851  52.495  0.00  0.00     0.066 H 
ATOM     34  H28 627 d   1     -99.969 -16.352  51.880  0.00  0.00     0.066 H 
ATOM     35  H29 627 d   1     -99.583 -17.937  51.127  0.00  0.00     0.066 H 
ENDBRANCH  31  32
ENDBRANCH  18  31
ENDBRANCH  15  18
ENDBRANCH   1   5
BRANCH   2  36
ATOM     36  C7  627 d   1     -96.965 -14.747  43.725  0.00  0.00     0.032 A 
ATOM     37  C9  627 d   1     -96.784 -14.266  42.431  0.00  0.00    -0.066 A 
ATOM     38  C10 627 d   1     -95.515 -13.902  41.963  0.00  0.00    -0.061 A 
ATOM     39  H3  627 d   1     -97.641 -14.171  41.774  0.00  0.00     0.085 H 
ATOM     40  C24 627 d   1     -94.399 -14.019  42.790  0.00  0.00     0.010 A 
ATOM     41  H4  627 d   1     -95.400 -13.527  40.952  0.00  0.00     0.086 H 
ATOM     42  C11 627 d   1     -94.572 -14.514  44.080  0.00  0.00    -0.061 A 
ATOM     43  C12 627 d   1     -95.841 -14.870  44.540  0.00  0.00    -0.066 A 
ATOM     44  H5  627 d   1     -93.714 -14.624  44.733  0.00  0.00     0.086 H 
ATOM     45  H6  627 d   1     -95.954 -15.249  45.549  0.00  0.00     0.085 H 
BRANCH  40  46
ATOM     46  N17 627 d   1     -93.178 -13.680  42.338  0.00  0.00    -0.280 NA
ATOM     47  C18 627 d   1     -92.156 -13.855  43.390  0.00  0.00     0.006 C 
ATOM     48  C19 627 d   1     -90.772 -13.429  42.911  0.00  0.00     0.094 C 
ATOM     49  H9  627 d   1     -92.122 -14.915  43.680  0.00  0.00     0.058 H 
ATOM     50  H10 627 d   1     -92.434 -13.245  44.262  0.00  0.00     0.058 H 
ATOM     51  N20 627 d   1     -90.801 -12.024  42.479  0.00  0.00    -0.073 N 
ATOM     52  H11 627 d   1     -90.467 -14.064  42.066  0.00  0.00     0.077 H 
ATOM     53  H12 627 d   1     -90.051 -13.543  43.734  0.00  0.00     0.077 H 
ATOM     54  C21 627 d   1     -91.765 -11.890  41.372  0.00  0.00     0.094 C 
ATOM     55  H13 627 d   1     -91.106 -11.450  43.250  0.00  0.00     0.279 HD
ATOM     56  C22 627 d   1     -93.157 -12.287  41.857  0.00  0.00     0.006 C 
ATOM     57  H14 627 d   1     -91.465 -12.547  40.543  0.00  0.00     0.077 H 
ATOM     58  H15 627 d   1     -91.782 -10.846  41.025  0.00  0.00     0.077 H 
ATOM     59  H16 627 d   1     -93.454 -11.619  42.679  0.00  0.00     0.058 H 
ATOM     60  H17 627 d   1     -93.869 -12.184  41.025  0.00  0.00     0.058 H 
BRANCH  51  61
ATOM     61  C23 627 d   1     -89.462 -11.580  42.066  0.00  0.00     0.066 C 
ATOM     62  H18 627 d   1     -88.763 -11.690  42.908  0.00  0.00     0.068 H 
ATOM     63  H19 627 d   1     -89.504 -10.524  41.760  0.00  0.00     0.068 H 
ATOM     64  H20 627 d   1     -89.117 -12.193  41.221  0.00  0.00     0.068 H 
ENDBRANCH  51  61
ENDBRANCH  40  46
ENDBRANCH   2  36
TORSDOF 8
