REMARK  8 active torsions:
REMARK  status: ('A' for Active; 'I' for Inactive)
REMARK    1  A    between atoms: C26_1  and  O2_2 
REMARK    2  A    between atoms: O2_2  and  C24_3 
REMARK    3  A    between atoms: C23_5  and  C27_6 
REMARK    4  A    between atoms: C20_11  and  N4_12 
REMARK    5  A    between atoms: N4_12  and  C12_13 
REMARK    6  A    between atoms: C8_28  and  C7_29 
REMARK    7  A    between atoms: C2_35  and  O1_36 
REMARK    8  A    between atoms: O1_36  and  C1_37 
ROOT
ATOM      1  C12 A5B d   1     -25.428  -3.213 -29.159  0.00  0.00     0.727 A 
ATOM      2  N3  A5B d   1     -26.557  -2.869 -28.516  0.00  0.00    -0.061 NA
ATOM      3  N2  A5B d   1     -24.865  -2.353 -30.041  0.00  0.00    -0.074 NA
ATOM      4  C11 A5B d   1     -25.427  -1.091 -30.262  0.00  0.00     0.031 A 
ATOM      5  C10 A5B d   1     -26.575  -0.749 -29.567  0.00  0.00     0.010 A 
ATOM      6  C9  A5B d   1     -27.033   0.528 -29.896  0.00  0.00     0.043 C 
ATOM      7  N1  A5B d   1     -27.272   1.311 -28.667  0.00  0.00    -0.283 NA
ATOM      8  C13 A5B d   1     -27.123  -1.666 -28.681  0.00  0.00     0.096 A 
ATOM      9  C14 A5B d   1     -28.283  -1.457 -27.947  0.00  0.00     0.007 A 
ATOM     10  C19 A5B d   1     -29.015  -2.621 -27.713  0.00  0.00    -0.068 A 
ATOM     11  C18 A5B d   1     -30.223  -2.531 -27.024  0.00  0.00    -0.061 A 
ATOM     12  C17 A5B d   1     -30.676  -1.294 -26.566  0.00  0.00     0.035 A 
ATOM     13 CL1  A5B d   1     -32.190  -1.149 -25.698  0.00  0.00    -0.084 Cl
ATOM     14  C16 A5B d   1     -29.925  -0.145 -26.789  0.00  0.00    -0.049 A 
ATOM     15  C15 A5B d   1     -28.738  -0.223 -27.505  0.00  0.00     0.007 A 
ATOM     16  C8  A5B d   1     -28.066   0.999 -27.648  0.00  0.00     0.078 C 
ATOM     17  H8  A5B d   1     -24.974  -0.397 -30.961  0.00  0.00     0.116 H 
ATOM     18  H9  A5B d   1     -27.972   0.444 -30.462  0.00  0.00     0.074 H 
ATOM     19  H10 A5B d   1     -26.278   1.038 -30.512  0.00  0.00     0.074 H 
ATOM     20  H11 A5B d   1     -28.650  -3.580 -28.061  0.00  0.00     0.085 H 
ATOM     21  H12 A5B d   1     -30.811  -3.424 -26.844  0.00  0.00     0.086 H 
ATOM     22  H13 A5B d   1     -30.266   0.810 -26.405  0.00  0.00     0.087 H 
ENDROOT
BRANCH   1  23
ATOM     23  N4  A5B d   1     -24.820  -4.402 -29.036  0.00  0.00    -0.188 N 
ATOM     24  H7  A5B d   1     -24.106  -4.626 -29.744  0.00  0.00     0.184 HD
BRANCH  23  25
ATOM     25  C20 A5B d   1     -25.039  -5.340 -28.087  0.00  0.00     0.052 A 
ATOM     26  C25 A5B d   1     -26.047  -5.348 -27.124  0.00  0.00    -0.024 A 
ATOM     27  C24 A5B d   1     -26.131  -6.404 -26.204  0.00  0.00     0.087 A 
ATOM     28  H4  A5B d   1     -26.766  -4.538 -27.086  0.00  0.00     0.091 H 
ATOM     29  C23 A5B d   1     -25.226  -7.473 -26.233  0.00  0.00     0.074 A 
ATOM     30  C22 A5B d   1     -24.222  -7.450 -27.188  0.00  0.00    -0.061 A 
ATOM     31  C21 A5B d   1     -24.153  -6.408 -28.110  0.00  0.00    -0.055 A 
ATOM     32  H5  A5B d   1     -23.487  -8.246 -27.218  0.00  0.00     0.085 H 
ATOM     33  H6  A5B d   1     -23.381  -6.432 -28.871  0.00  0.00     0.087 H 
BRANCH  27  34
ATOM     34  O2  A5B d   1     -27.104  -6.468 -25.249  0.00  0.00    -0.355 OA
BRANCH  34  35
ATOM     35  C26 A5B d   1     -27.946  -5.308 -25.120  0.00  0.00     0.010 C 
ATOM     36  H1  A5B d   1     -28.686  -5.479 -24.324  0.00  0.00     0.066 H 
ATOM     37  H2  A5B d   1     -28.467  -5.125 -26.072  0.00  0.00     0.066 H 
ATOM     38  H3  A5B d   1     -27.329  -4.434 -24.866  0.00  0.00     0.066 H 
ENDBRANCH  34  35
ENDBRANCH  27  34
BRANCH  29  39
ATOM     39  C27 A5B d   1     -25.243  -8.541 -25.315  0.00  0.00     0.212 C 
ATOM     40  O4  A5B d   1     -24.737  -9.643 -25.615  0.00  0.00    -0.644 OA
ATOM     41  O3  A5B d   1     -25.640  -8.372 -24.142  0.00  0.00    -0.644 OA
ENDBRANCH  29  39
ENDBRANCH  23  25
ENDBRANCH   1  23
BRANCH  16  42
ATOM     42  C7  A5B d   1     -28.043   1.898 -26.580  0.00  0.00     0.065 A 
ATOM     43  C6  A5B d   1     -27.465   1.537 -25.353  0.00  0.00     0.131 A 
ATOM     44  F1  A5B d   1     -26.923   0.230 -25.136  0.00  0.00    -0.205 F 
ATOM     45  C5  A5B d   1     -27.438   2.446 -24.296  0.00  0.00    -0.045 A 
ATOM     46  C4  A5B d   1     -27.967   3.723 -24.471  0.00  0.00    -0.077 A 
ATOM     47  H14 A5B d   1     -27.008   2.161 -23.343  0.00  0.00     0.088 H 
ATOM     48  C3  A5B d   1     -28.524   4.094 -25.695  0.00  0.00    -0.050 A 
ATOM     49  H15 A5B d   1     -27.946   4.432 -23.651  0.00  0.00     0.083 H 
ATOM     50  C2  A5B d   1     -28.544   3.176 -26.736  0.00  0.00     0.083 A 
ATOM     51  H16 A5B d   1     -28.936   5.087 -25.831  0.00  0.00     0.087 H 
BRANCH  50  52
ATOM     52  O1  A5B d   1     -29.058   3.446 -27.955  0.00  0.00    -0.355 OA
BRANCH  52  53
ATOM     53  C1  A5B d   1     -28.759   4.781 -28.329  0.00  0.00     0.010 C 
ATOM     54  H17 A5B d   1     -29.183   4.987 -29.323  0.00  0.00     0.066 H 
ATOM     55  H18 A5B d   1     -27.668   4.917 -28.361  0.00  0.00     0.066 H 
ATOM     56  H19 A5B d   1     -29.194   5.474 -27.594  0.00  0.00     0.066 H 
ENDBRANCH  52  53
ENDBRANCH  50  52
ENDBRANCH  16  42
TORSDOF 8
