REMARK  3 active torsions:
REMARK  status: ('A' for Active; 'I' for Inactive)
REMARK    1  A    between atoms: C15_2  and  C16_23 
REMARK    2  A    between atoms: C04_13  and  C02_11 
REMARK    3  A    between atoms: N08_17  and  C07_16 
ROOT
ATOM      1  C13 ZZL d   1     -89.123 -17.003   8.313  0.00  0.00     0.043 C 
ATOM      2  C15 ZZL d   1     -88.086 -16.545  10.607  0.00  0.00     0.079 C 
ATOM      3  C24 ZZL d   1     -86.849 -17.149  10.359  0.00  0.00     0.007 A 
ATOM      4  C26 ZZL d   1     -85.000 -18.304  11.396  0.00  0.00     0.035 A 
ATOM      5  C28 ZZL d   1     -84.348 -18.364  10.166  0.00  0.00    -0.061 A 
ATOM      6  N08 ZZL d   1     -85.161 -15.320   4.907  0.00  0.00    -0.188 N 
ATOM      7  C09 ZZL d   1     -86.036 -15.760   5.839  0.00  0.00     0.727 A 
ATOM      8  N10 ZZL d   1     -87.329 -15.675   5.485  0.00  0.00    -0.074 NA
ATOM      9  C11 ZZL d   1     -88.368 -16.095   6.329  0.00  0.00     0.031 A 
ATOM     10  C12 ZZL d   1     -88.012 -16.612   7.569  0.00  0.00     0.010 A 
ATOM     11  N14 ZZL d   1     -89.068 -16.443   9.696  0.00  0.00    -0.283 NA
ATOM     12  C25 ZZL d   1     -86.247 -17.683  11.501  0.00  0.00    -0.049 A 
ATOM     13 CL1  ZZL d   1     -84.231 -19.005  12.813  0.00  0.00    -0.084 Cl
ATOM     14  C29 ZZL d   1     -84.938 -17.813   9.027  0.00  0.00    -0.068 A 
ATOM     15  C30 ZZL d   1     -86.191 -17.211   9.125  0.00  0.00     0.007 A 
ATOM     16  C31 ZZL d   1     -86.667 -16.707   7.908  0.00  0.00     0.096 A 
ATOM     17  N32 ZZL d   1     -85.706 -16.297   7.042  0.00  0.00    -0.061 NA
ATOM     18  H1  ZZL d   1     -89.148 -18.101   8.371  0.00  0.00     0.074 H 
ATOM     19  H2  ZZL d   1     -90.034 -16.641   7.815  0.00  0.00     0.074 H 
ATOM     20  H5  ZZL d   1     -83.377 -18.841  10.093  0.00  0.00     0.086 H 
ATOM     21  H8  ZZL d   1     -85.531 -15.184   3.955  0.00  0.00     0.184 HD
ATOM     22  H9  ZZL d   1     -89.406 -16.019   6.026  0.00  0.00     0.116 H 
ATOM     23  H11 ZZL d   1     -86.744 -17.616  12.462  0.00  0.00     0.087 H 
ATOM     24  H12 ZZL d   1     -84.425 -17.853   8.073  0.00  0.00     0.085 H 
ENDROOT
BRANCH   6  25
ATOM     25  C07 ZZL d   1     -83.844 -15.038   5.095  0.00  0.00     0.049 A 
ATOM     26  C06 ZZL d   1     -83.131 -14.594   3.978  0.00  0.00    -0.056 A 
ATOM     27  C05 ZZL d   1     -81.776 -14.281   4.048  0.00  0.00    -0.064 A 
ATOM     28  H7  ZZL d   1     -83.647 -14.490   3.030  0.00  0.00     0.087 H 
ATOM     29  C04 ZZL d   1     -81.104 -14.401   5.259  0.00  0.00     0.041 A 
ATOM     30  H6  ZZL d   1     -81.248 -13.945   3.163  0.00  0.00     0.085 H 
ATOM     31  C34 ZZL d   1     -81.791 -14.836   6.390  0.00  0.00    -0.064 A 
ATOM     32  C33 ZZL d   1     -83.149 -15.158   6.301  0.00  0.00    -0.056 A 
ATOM     33  H14 ZZL d   1     -81.273 -14.925   7.338  0.00  0.00     0.085 H 
ATOM     34  H13 ZZL d   1     -83.672 -15.507   7.184  0.00  0.00     0.087 H 
BRANCH  29  35
ATOM     35  C02 ZZL d   1     -79.753 -14.070   5.346  0.00  0.00     0.209 C 
ATOM     36  O01 ZZL d   1     -79.013 -14.148   4.337  0.00  0.00    -0.644 OA
ATOM     37  O03 ZZL d   1     -79.287 -13.643   6.431  0.00  0.00    -0.644 OA
ENDBRANCH  29  35
ENDBRANCH   6  25
BRANCH   2  38
ATOM     38  C16 ZZL d   1     -88.284 -15.848  11.816  0.00  0.00     0.070 A 
ATOM     39  C17 ZZL d   1     -89.310 -16.159  12.711  0.00  0.00     0.132 A 
ATOM     40  F18 ZZL d   1     -90.189 -17.211  12.485  0.00  0.00    -0.205 F 
ATOM     41  C19 ZZL d   1     -89.460 -15.419  13.877  0.00  0.00    -0.045 A 
ATOM     42  C20 ZZL d   1     -88.625 -14.350  14.170  0.00  0.00    -0.077 A 
ATOM     43  H10 ZZL d   1     -90.247 -15.683  14.574  0.00  0.00     0.088 H 
ATOM     44  C21 ZZL d   1     -87.613 -14.023  13.288  0.00  0.00    -0.045 A 
ATOM     45  H3  ZZL d   1     -88.765 -13.778  15.080  0.00  0.00     0.083 H 
ATOM     46  C22 ZZL d   1     -87.452 -14.762  12.115  0.00  0.00     0.132 A 
ATOM     47  H4  ZZL d   1     -86.947 -13.196  13.506  0.00  0.00     0.088 H 
ATOM     48  F23 ZZL d   1     -86.414 -14.401  11.261  0.00  0.00    -0.205 F 
ENDBRANCH   2  38
TORSDOF 3
