REMARK  7 active torsions:
REMARK  status: ('A' for Active; 'I' for Inactive)
REMARK    1  A    between atoms: N5_6  and  C18_7 
REMARK    2  A    between atoms: N3_14  and  C32_24 
REMARK    3  A    between atoms: C5_15  and  C10_16 
REMARK    4  A    between atoms: C11_17  and  C40_18 
REMARK    5  A    between atoms: C14_22  and  O41_23 
REMARK    6  A    between atoms: C37_29  and  O38_30 
REMARK    7  A    between atoms: O38_30  and  C39_31 
ROOT
ATOM      1  O2  L66 d   1     -85.207 -10.652   5.106  0.00  0.00    -0.246 OA
ATOM      2  C17 L66 d   1     -86.229 -11.036   5.670  0.00  0.00     0.329 A 
ATOM      3  N4  L66 d   1     -87.395 -11.138   4.974  0.00  0.00    -0.284 N 
ATOM      4  C16 L66 d   1     -88.543 -11.547   5.568  0.00  0.00     0.214 A 
ATOM      5  O3  L66 d   1     -89.767 -11.642   4.826  0.00  0.00    -0.169 OA
ATOM      6  N5  L66 d   1     -86.216 -11.353   6.985  0.00  0.00    -0.286 N 
ATOM      7  C2  L66 d   1     -87.318 -11.772   7.621  0.00  0.00     0.185 A 
ATOM      8  C3  L66 d   1     -88.563 -11.895   6.920  0.00  0.00     0.157 A 
ATOM      9  N1  L66 d   1     -87.548 -12.150   8.925  0.00  0.00    -0.043 NA
ATOM     10  C1  L66 d   1     -88.873 -12.481   9.034  0.00  0.00     0.721 A 
ATOM     11  N2  L66 d   1     -89.516 -12.342   7.831  0.00  0.00    -0.145 N 
ATOM     12  C4  L66 d   1     -90.821 -12.686   7.990  0.00  0.00     0.031 A 
ATOM     13  N3  L66 d   1     -89.742 -12.928   9.964  0.00  0.00    -0.140 N 
ATOM     14  C5  L66 d   1     -90.962 -13.061   9.388  0.00  0.00     0.085 A 
ATOM     15  H1  L66 d   1     -87.405 -10.906   4.001  0.00  0.00     0.172 HD
ATOM     16  H5  L66 d   1     -91.600 -12.682   7.229  0.00  0.00     0.116 H 
ENDROOT
BRANCH  13  17
ATOM     17  C32 L66 d   1     -89.385 -13.173  11.401  0.00  0.00     0.090 A 
ATOM     18  C33 L66 d   1     -89.319 -14.458  11.945  0.00  0.00    -0.053 A 
ATOM     19  C34 L66 d   1     -88.982 -14.606  13.282  0.00  0.00    -0.081 A 
ATOM     20  H13 L66 d   1     -89.528 -15.327  11.331  0.00  0.00     0.087 H 
ATOM     21  C35 L66 d   1     -88.725 -13.489  14.062  0.00  0.00    -0.080 A 
ATOM     22  H14 L66 d   1     -88.919 -15.597  13.718  0.00  0.00     0.083 H 
ATOM     23  C36 L66 d   1     -88.798 -12.227  13.526  0.00  0.00    -0.049 A 
ATOM     24  H15 L66 d   1     -88.463 -13.613  15.107  0.00  0.00     0.083 H 
ATOM     25  C37 L66 d   1     -89.136 -12.072  12.159  0.00  0.00     0.096 A 
ATOM     26  H16 L66 d   1     -88.599 -11.358  14.143  0.00  0.00     0.087 H 
BRANCH  25  27
ATOM     27  O38 L66 d   1     -89.219 -10.812  11.558  0.00  0.00    -0.354 OA
BRANCH  27  28
ATOM     28  C39 L66 d   1     -88.856  -9.683  12.367  0.00  0.00     0.010 C 
ATOM     29  H17 L66 d   1     -88.965  -8.760  11.778  0.00  0.00     0.066 H 
ATOM     30  H18 L66 d   1     -87.811  -9.788  12.695  0.00  0.00     0.066 H 
ATOM     31  H19 L66 d   1     -89.514  -9.636  13.248  0.00  0.00     0.066 H 
ENDBRANCH  27  28
ENDBRANCH  25  27
ENDBRANCH  13  17
BRANCH  14  32
ATOM     32  C10 L66 d   1     -92.150 -13.553  10.203  0.00  0.00     0.002 A 
ATOM     33  C11 L66 d   1     -92.715 -14.821   9.948  0.00  0.00    -0.049 A 
ATOM     34  C12 L66 d   1     -93.756 -15.270  10.714  0.00  0.00    -0.074 A 
ATOM     35  C13 L66 d   1     -94.249 -14.436  11.802  0.00  0.00    -0.051 A 
ATOM     36  H9  L66 d   1     -94.208 -16.235  10.514  0.00  0.00     0.084 H 
ATOM     37  C14 L66 d   1     -93.664 -13.190  12.050  0.00  0.00     0.066 A 
ATOM     38  H10 L66 d   1     -95.070 -14.781  12.420  0.00  0.00     0.087 H 
ATOM     39  C15 L66 d   1     -92.619 -12.745  11.276  0.00  0.00    -0.038 A 
ATOM     40  H11 L66 d   1     -92.156 -11.787  11.481  0.00  0.00     0.089 H 
BRANCH  33  41
ATOM     41  C40 L66 d   1     -92.178 -15.695   8.776  0.00  0.00    -0.050 C 
ATOM     42  H6  L66 d   1     -92.739 -16.640   8.736  0.00  0.00     0.033 H 
ATOM     43  H7  L66 d   1     -91.111 -15.909   8.937  0.00  0.00     0.033 H 
ATOM     44  H8  L66 d   1     -92.305 -15.153   7.827  0.00  0.00     0.033 H 
ENDBRANCH  33  41
BRANCH  37  45
ATOM     45  O41 L66 d   1     -94.101 -12.413  13.044  0.00  0.00    -0.361 OA
ATOM     46  H12 L66 d   1     -94.820 -12.845  13.489  0.00  0.00     0.217 HD
ENDBRANCH  37  45
ENDBRANCH  14  32
BRANCH   6  47
ATOM     47  C18 L66 d   1     -84.944 -11.248   7.781  0.00  0.00    -0.008 C 
ATOM     48  H2  L66 d   1     -84.132 -10.894   7.129  0.00  0.00     0.057 H 
ATOM     49  H3  L66 d   1     -84.683 -12.236   8.188  0.00  0.00     0.057 H 
ATOM     50  H4  L66 d   1     -85.087 -10.537   8.608  0.00  0.00     0.057 H 
ENDBRANCH   6  47
TORSDOF 7
