REMARK  6 active torsions:
REMARK  status: ('A' for Active; 'I' for Inactive)
REMARK    1  A    between atoms: S2_1  and  C3_2 
REMARK    2  A    between atoms: S2_1  and  C1_29 
REMARK    3  A    between atoms: C7_4  and  N9_5 
REMARK    4  A    between atoms: N9_5  and  C10_6 
REMARK    5  A    between atoms: N19_9  and  C20_10 
REMARK    6  A    between atoms: C17_13  and  C22_14 
ROOT
ATOM      1  C10 P17 d   1    -113.348 -15.005  82.597  0.00  0.00     0.728 A 
ATOM      2  N15 P17 d   1    -113.193 -15.514  83.836  0.00  0.00    -0.044 NA
ATOM      3  C14 P17 d   1    -114.220 -16.035  84.532  0.00  0.00     0.163 A 
ATOM      4  N19 P17 d   1    -114.013 -16.538  85.761  0.00  0.00    -0.301 N 
ATOM      5  C18 P17 d   1    -115.016 -17.066  86.488  0.00  0.00     0.260 A 
ATOM      6  O21 P17 d   1    -114.757 -17.508  87.609  0.00  0.00    -0.267 OA
ATOM      7  C17 P17 d   1    -116.316 -17.117  85.986  0.00  0.00     0.047 A 
ATOM      8  C16 P17 d   1    -116.555 -16.600  84.713  0.00  0.00    -0.052 A 
ATOM      9  C13 P17 d   1    -115.493 -16.057  83.986  0.00  0.00     0.030 A 
ATOM     10  C12 P17 d   1    -115.678 -15.532  82.714  0.00  0.00     0.035 A 
ATOM     11  N11 P17 d   1    -114.571 -15.011  82.036  0.00  0.00    -0.074 NA
ATOM     12  H9  P17 d   1    -117.558 -16.619  84.290  0.00  0.00     0.086 H 
ATOM     13  H10 P17 d   1    -116.660 -15.526  82.256  0.00  0.00     0.117 H 
ENDROOT
BRANCH   1  14
ATOM     14  N9  P17 d   1    -112.355 -14.475  81.856  0.00  0.00    -0.188 N 
ATOM     15  H2  P17 d   1    -112.616 -14.014  80.973  0.00  0.00     0.184 HD
BRANCH  14  16
ATOM     16  C7  P17 d   1    -111.041 -14.501  82.181  0.00  0.00     0.050 A 
ATOM     17  C8  P17 d   1    -110.141 -14.317  81.141  0.00  0.00    -0.041 A 
ATOM     18  C3  P17 d   1    -108.770 -14.313  81.365  0.00  0.00     0.002 A 
ATOM     19  H1  P17 d   1    -110.515 -14.174  80.134  0.00  0.00     0.089 H 
ATOM     20  C4  P17 d   1    -108.267 -14.481  82.650  0.00  0.00    -0.067 A 
ATOM     21  C5  P17 d   1    -109.154 -14.654  83.703  0.00  0.00    -0.080 A 
ATOM     22  H13 P17 d   1    -107.198 -14.477  82.827  0.00  0.00     0.085 H 
ATOM     23  C6  P17 d   1    -110.524 -14.660  83.470  0.00  0.00    -0.057 A 
ATOM     24  H12 P17 d   1    -108.777 -14.785  84.711  0.00  0.00     0.083 H 
ATOM     25  H11 P17 d   1    -111.205 -14.790  84.304  0.00  0.00     0.086 H 
BRANCH  18  26
ATOM     26  S2  P17 d   1    -107.703 -14.097  80.033  0.00  0.00    -0.134 SA
BRANCH  26  27
ATOM     27  C1  P17 d   1    -107.274 -15.786  79.675  0.00  0.00    -0.030 C 
ATOM     28  H14 P17 d   1    -106.578 -15.815  78.823  0.00  0.00     0.042 H 
ATOM     29  H15 P17 d   1    -108.184 -16.350  79.424  0.00  0.00     0.042 H 
ATOM     30  H16 P17 d   1    -106.794 -16.237  80.556  0.00  0.00     0.042 H 
ENDBRANCH  26  27
ENDBRANCH  18  26
ENDBRANCH  14  16
ENDBRANCH   1  14
BRANCH   4  31
ATOM     31  C20 P17 d   1    -112.641 -16.506  86.327  0.00  0.00    -0.009 C 
ATOM     32  H3  P17 d   1    -111.956 -16.044  85.601  0.00  0.00     0.057 H 
ATOM     33  H4  P17 d   1    -112.309 -17.532  86.543  0.00  0.00     0.057 H 
ATOM     34  H5  P17 d   1    -112.641 -15.918  87.257  0.00  0.00     0.057 H 
ENDBRANCH   4  31
BRANCH   7  35
ATOM     35  C22 P17 d   1    -117.351 -17.675  86.750  0.00  0.00     0.023 A 
ATOM     36  C27 P17 d   1    -117.828 -18.959  86.470  0.00  0.00     0.046 A 
ATOM     37  C26 P17 d   1    -118.849 -19.526  87.225  0.00  0.00    -0.061 A 
ATOM     38 CL2  P17 d   1    -117.166 -19.874  85.187  0.00  0.00    -0.083 Cl
ATOM     39  C25 P17 d   1    -119.413 -18.817  88.279  0.00  0.00    -0.080 A 
ATOM     40  H6  P17 d   1    -119.206 -20.523  86.991  0.00  0.00     0.086 H 
ATOM     41  C24 P17 d   1    -118.945 -17.540  88.567  0.00  0.00    -0.061 A 
ATOM     42  H7  P17 d   1    -120.209 -19.255  88.870  0.00  0.00     0.083 H 
ATOM     43  C23 P17 d   1    -117.923 -16.972  87.809  0.00  0.00     0.046 A 
ATOM     44  H8  P17 d   1    -119.379 -16.981  89.388  0.00  0.00     0.086 H 
ATOM     45 CL1  P17 d   1    -117.369 -15.397  88.186  0.00  0.00    -0.083 Cl
ENDBRANCH   7  35
TORSDOF 6
