REMARK  13 active torsions:
REMARK  status: ('A' for Active; 'I' for Inactive)
REMARK    1  A    between atoms: C1_1  and  O11_11 
REMARK    2  A    between atoms: C2_2  and  O13_13 
REMARK    3  A    between atoms: C10_10  and  O14_14 
REMARK    4  A    between atoms: O11_11  and  C12_12 
REMARK    5  A    between atoms: O13_13  and  C23_23 
REMARK    6  A    between atoms: O14_14  and  C15_15 
REMARK    7  A    between atoms: C18_18  and  N22_22 
REMARK       I    between atoms: N22_22  and  C32_32 
REMARK    8  A    between atoms: C23_23  and  C24_24 
REMARK    9  A    between atoms: C24_24  and  C25_25 
REMARK   10  A    between atoms: C25_25  and  N26_26 
REMARK   11  A    between atoms: C32_32  and  C33_33 
REMARK   12  A    between atoms: C33_33  and  C34_34 
REMARK       I    between atoms: C34_34  and  N35_35 
REMARK   13  A    between atoms: N35_35  and  C38_38 
ROOT
ATOM      1  C1  88Z d   1      15.184  -4.989  99.978  0.00  0.00     0.102 A 
ATOM      2  C2  88Z d   1      13.828  -4.768 100.159  0.00  0.00     0.104 A 
ATOM      3  C3  88Z d   1      13.168  -5.176 101.312  0.00  0.00    -0.019 A 
ATOM      4  C4  88Z d   1      13.920  -5.826 102.292  0.00  0.00     0.072 A 
ATOM      5  C5  88Z d   1      15.296  -6.046 102.129  0.00  0.00     0.029 A 
ATOM      6  C6  88Z d   1      15.947  -5.635 100.957  0.00  0.00    -0.033 A 
ATOM      7  N7  88Z d   1      13.279  -6.221 103.397  0.00  0.00    -0.260 NA
ATOM      8  C8  88Z d   1      13.991  -6.868 104.417  0.00  0.00     0.005 A 
ATOM      9  C9  88Z d   1      15.364  -7.108 104.299  0.00  0.00    -0.032 A 
ATOM     10  C10 88Z d   1      16.027  -6.690 103.144  0.00  0.00     0.090 A 
ATOM     11  H1  88Z d   1      12.107  -4.996 101.445  0.00  0.00     0.091 H 
ATOM     12  H2  88Z d   1      17.007  -5.812 100.814  0.00  0.00     0.089 H 
ATOM     13  H3  88Z d   1      13.469  -7.187 105.312  0.00  0.00     0.114 H 
ATOM     14  H4  88Z d   1      15.905  -7.611 105.092  0.00  0.00     0.090 H 
ENDROOT
BRANCH  10  15
ATOM     15  O14 88Z d   1      17.374  -6.897 102.918  0.00  0.00    -0.307 OA
BRANCH  15  16
ATOM     16  C15 88Z d   1      18.143  -7.098 104.054  0.00  0.00     0.114 A 
ATOM     17  C16 88Z d   1      18.461  -6.089 104.945  0.00  0.00    -0.045 A 
ATOM     18  C17 88Z d   1      19.216  -6.358 106.080  0.00  0.00    -0.054 A 
ATOM     19  H8  88Z d   1      18.118  -5.078 104.756  0.00  0.00     0.088 H 
ATOM     20  C18 88Z d   1      19.703  -7.644 106.354  0.00  0.00     0.037 A 
ATOM     21  H9  88Z d   1      19.434  -5.553 106.772  0.00  0.00     0.087 H 
ATOM     22  C19 88Z d   1      19.381  -8.669 105.445  0.00  0.00    -0.017 A 
ATOM     23  C20 88Z d   1      18.611  -8.388 104.300  0.00  0.00     0.152 A 
ATOM     24  H10 88Z d   1      19.727  -9.680 105.627  0.00  0.00     0.091 H 
ATOM     25  F21 88Z d   1      18.277  -9.356 103.405  0.00  0.00    -0.203 F 
BRANCH  20  26
ATOM     26  N22 88Z d   1      20.423  -7.770 107.496  0.00  0.00    -0.326 N 
ATOM     27  C32 88Z d   1      21.353  -8.737 107.698  0.00  0.00     0.240 C 
ATOM     28  O36 88Z d   1      21.696  -9.569 106.863  0.00  0.00    -0.272 OA
ATOM     29  H11 88Z d   1      20.259  -7.113 108.231  0.00  0.00     0.169 HD
BRANCH  27  30
ATOM     30  C33 88Z d   1      22.047  -8.732 109.070  0.00  0.00     0.122 A 
ATOM     31  C45 88Z d   1      23.539  -9.145 109.076  0.00  0.00    -0.040 A 
ATOM     32  C46 88Z d   1      22.472 -10.098 109.633  0.00  0.00    -0.040 A 
ATOM     33  H32 88Z d   1      24.245  -8.649 109.759  0.00  0.00     0.035 H 
ATOM     34  H33 88Z d   1      24.049  -9.382 108.130  0.00  0.00     0.035 H 
ATOM     35  H34 88Z d   1      22.220 -11.019 109.087  0.00  0.00     0.035 H 
ATOM     36  H35 88Z d   1      22.416 -10.287 110.715  0.00  0.00     0.035 H 
BRANCH  30  37
ATOM     37  C34 88Z d   1      21.538  -7.676 110.084  0.00  0.00     0.240 C 
ATOM     38  N35 88Z d   1      22.098  -7.766 111.322  0.00  0.00    -0.326 N 
ATOM     39  H27 88Z d   1      22.774  -8.477 111.516  0.00  0.00     0.169 HD
ATOM     40  O37 88Z d   1      20.680  -6.833 109.764  0.00  0.00    -0.272 OA
BRANCH  38  41
ATOM     41  C38 88Z d   1      21.739  -6.894 112.286  0.00  0.00     0.034 A 
ATOM     42  C39 88Z d   1      20.404  -6.584 112.538  0.00  0.00    -0.054 A 
ATOM     43  C40 88Z d   1      20.033  -5.678 113.523  0.00  0.00    -0.044 A 
ATOM     44  H28 88Z d   1      19.632  -7.064 111.948  0.00  0.00     0.087 H 
ATOM     45  C41 88Z d   1      21.016  -5.091 114.291  0.00  0.00     0.116 A 
ATOM     46  H29 88Z d   1      18.989  -5.437 113.685  0.00  0.00     0.088 H 
ATOM     47  C42 88Z d   1      22.354  -5.413 114.069  0.00  0.00    -0.044 A 
ATOM     48  F44 88Z d   1      20.638  -4.178 115.282  0.00  0.00    -0.206 F 
ATOM     49  C43 88Z d   1      22.722  -6.309 113.074  0.00  0.00    -0.054 A 
ATOM     50  H30 88Z d   1      23.121  -4.956 114.684  0.00  0.00     0.088 H 
ATOM     51  H31 88Z d   1      23.767  -6.550 112.914  0.00  0.00     0.087 H 
ENDBRANCH  38  41
ENDBRANCH  30  37
ENDBRANCH  27  30
ENDBRANCH  20  26
ENDBRANCH  15  16
ENDBRANCH  10  15
BRANCH   1  52
ATOM     52  O11 88Z d   1      15.665  -4.534  98.792  0.00  0.00    -0.353 OA
BRANCH  52  53
ATOM     53  C12 88Z d   1      17.046  -4.779  98.501  0.00  0.00     0.010 C 
ATOM     54  H5  88Z d   1      17.293  -4.358  97.515  0.00  0.00     0.066 H 
ATOM     55  H6  88Z d   1      17.233  -5.863  98.494  0.00  0.00     0.066 H 
ATOM     56  H7  88Z d   1      17.673  -4.304  99.270  0.00  0.00     0.066 H 
ENDBRANCH  52  53
ENDBRANCH   1  52
BRANCH   2  57
ATOM     57  O13 88Z d   1      13.215  -4.125  99.130  0.00  0.00    -0.348 OA
BRANCH  57  58
ATOM     58  C23 88Z d   1      11.785  -3.973  99.270  0.00  0.00     0.028 C 
ATOM     59  H12 88Z d   1      11.553  -3.279 100.091  0.00  0.00     0.075 H 
ATOM     60  H13 88Z d   1      11.315  -4.947  99.469  0.00  0.00     0.075 H 
BRANCH  58  61
ATOM     61  C24 88Z d   1      11.288  -3.405  97.936  0.00  0.00    -0.022 C 
ATOM     62  H14 88Z d   1      10.191  -3.469  97.884  0.00  0.00     0.038 H 
ATOM     63  H15 88Z d   1      11.728  -3.968  97.099  0.00  0.00     0.038 H 
BRANCH  61  64
ATOM     64  C25 88Z d   1      11.734  -1.936  97.875  0.00  0.00     0.086 C 
ATOM     65  H16 88Z d   1      12.833  -1.898  97.888  0.00  0.00     0.076 H 
ATOM     66  H17 88Z d   1      11.338  -1.408  98.755  0.00  0.00     0.076 H 
BRANCH  64  67
ATOM     67  N26 88Z d   1      11.250  -1.264  96.660  0.00  0.00    -0.067 N 
ATOM     68  C27 88Z d   1      12.137  -1.534  95.518  0.00  0.00     0.103 C 
ATOM     69  C28 88Z d   1      11.640  -0.785  94.280  0.00  0.00     0.042 C 
ATOM     70  H19 88Z d   1      12.146  -2.614  95.311  0.00  0.00     0.079 H 
ATOM     71  H20 88Z d   1      13.156  -1.199  95.761  0.00  0.00     0.079 H 
ATOM     72  O29 88Z d   1      11.623   0.627  94.558  0.00  0.00    -0.388 OA
ATOM     73  H21 88Z d   1      10.624  -1.123  94.028  0.00  0.00     0.076 H 
ATOM     74  H22 88Z d   1      12.313  -0.985  93.433  0.00  0.00     0.076 H 
ATOM     75  C30 88Z d   1      10.705   0.900  95.629  0.00  0.00     0.042 C 
ATOM     76  C31 88Z d   1      11.182   0.185  96.893  0.00  0.00     0.103 C 
ATOM     77  H23 88Z d   1       9.703   0.537  95.357  0.00  0.00     0.076 H 
ATOM     78  H24 88Z d   1      10.665   1.984  95.812  0.00  0.00     0.076 H 
ATOM     79  H25 88Z d   1      12.181   0.557  97.166  0.00  0.00     0.079 H 
ATOM     80  H26 88Z d   1      10.478   0.389  97.713  0.00  0.00     0.079 H 
ATOM     81  H18 88Z d   1      10.327  -1.608  96.444  0.00  0.00     0.280 HD
ENDBRANCH  64  67
ENDBRANCH  61  64
ENDBRANCH  58  61
ENDBRANCH  57  58
ENDBRANCH   2  57
TORSDOF 13
