REMARK  9 active torsions:
REMARK  status: ('A' for Active; 'I' for Inactive)
REMARK    1  A    between atoms: NAI_3  and  CBC_4 
REMARK    2  A    between atoms: NAG_7  and  CAQ_8 
REMARK       I    between atoms: NAH_13  and  CBB_14 
REMARK       I    between atoms: CBB_14  and  NAL_16 
REMARK    3  A    between atoms: NAL_16  and  CBJ_17 
REMARK    4  A    between atoms: CBR_22  and  OAF_23 
REMARK    5  A    between atoms: OAF_23  and  CBO_24 
REMARK    6  A    between atoms: CBD_30  and  NAJ_31 
REMARK       I    between atoms: NAJ_31  and  CAR_32 
REMARK    7  A    between atoms: CAR_32  and  CAN_34 
REMARK    8  A    between atoms: CAN_34  and  CAS_37 
REMARK       I    between atoms: CAS_37  and  NAK_39 
REMARK    9  A    between atoms: NAK_39  and  CBE_40 
ROOT
ATOM      1  CBJ GV0 d   1      13.773  -5.695 102.770  0.00  0.00     0.133 A 
ATOM      2  CBQ GV0 d   1      15.100  -6.090 102.566  0.00  0.00    -0.006 A 
ATOM      3  NAM GV0 d   1      13.156  -6.068 103.900  0.00  0.00    -0.243 NA
ATOM      4  CBT GV0 d   1      13.819  -6.794 104.888  0.00  0.00     0.007 A 
ATOM      5  CBS GV0 d   1      15.147  -7.149 104.708  0.00  0.00    -0.033 A 
ATOM      6  CBR GV0 d   1      15.799  -6.809 103.528  0.00  0.00     0.081 A 
ATOM      7  H24 GV0 d   1      15.594  -5.829 101.637  0.00  0.00     0.093 H 
ATOM      8  H25 GV0 d   1      13.298  -7.080 105.794  0.00  0.00     0.115 H 
ATOM      9  H26 GV0 d   1      15.675  -7.690 105.485  0.00  0.00     0.090 H 
ENDROOT
BRANCH   1  10
ATOM     10  NAL GV0 d   1      13.040  -5.004 101.857  0.00  0.00    -0.293 N 
ATOM     11  CBB GV0 d   1      13.573  -4.203 100.915  0.00  0.00     0.324 C 
ATOM     12  NAH GV0 d   1      12.720  -3.630 100.044  0.00  0.00    -0.334 N 
ATOM     13  OAE GV0 d   1      14.775  -3.944 100.821  0.00  0.00    -0.247 OA
ATOM     14  CAY GV0 d   1      13.277  -2.714  99.034  0.00  0.00     0.001 C 
ATOM     15  CAX GV0 d   1      11.272  -3.880 100.097  0.00  0.00     0.001 C 
ATOM     16  CAU GV0 d   1      12.174  -1.905  98.415  0.00  0.00    -0.023 C 
ATOM     17  H17 GV0 d   1      14.000  -2.038  99.514  0.00  0.00     0.064 H 
ATOM     18  H18 GV0 d   1      13.784  -3.298  98.252  0.00  0.00     0.064 H 
ATOM     19  CAQ GV0 d   1      11.247  -2.888  97.702  0.00  0.00     0.107 C 
ATOM     20  H15 GV0 d   1      11.621  -1.361  99.195  0.00  0.00     0.038 H 
ATOM     21  H16 GV0 d   1      12.591  -1.187  97.693  0.00  0.00     0.038 H 
ATOM     22  CAT GV0 d   1      10.571  -3.830  98.724  0.00  0.00    -0.023 C 
ATOM     23  H14 GV0 d   1      11.900  -3.513  97.076  0.00  0.00     0.084 H 
ATOM     24  H19 GV0 d   1      10.563  -4.846  98.304  0.00  0.00     0.038 H 
ATOM     25  H20 GV0 d   1       9.537  -3.488  98.877  0.00  0.00     0.038 H 
ATOM     26  H21 GV0 d   1      11.110  -4.878 100.531  0.00  0.00     0.064 H 
ATOM     27  H22 GV0 d   1      10.814  -3.119 100.746  0.00  0.00     0.064 H 
ATOM     28  H23 GV0 d   1      12.045  -5.096 101.887  0.00  0.00     0.172 HD
BRANCH  19  29
ATOM     29  NAG GV0 d   1      10.240  -2.300  96.771  0.00  0.00    -0.064 N 
ATOM     30  CAV GV0 d   1      10.674  -1.216  95.856  0.00  0.00     0.106 C 
ATOM     31  CAZ GV0 d   1      10.551   0.205  96.463  0.00  0.00     0.105 C 
ATOM     32  H1  GV0 d   1      11.727  -1.389  95.589  0.00  0.00     0.078 H 
ATOM     33  H2  GV0 d   1      10.054  -1.260  94.948  0.00  0.00     0.078 H 
ATOM     34  NAI GV0 d   1       9.212   0.451  97.026  0.00  0.00    -0.072 N 
ATOM     35  H3  GV0 d   1      10.746   0.946  95.674  0.00  0.00     0.078 H 
ATOM     36  H4  GV0 d   1      11.298   0.315  97.263  0.00  0.00     0.078 H 
ATOM     37  CBA GV0 d   1       8.923  -0.591  98.021  0.00  0.00     0.105 C 
ATOM     38  H5  GV0 d   1       8.522   0.422  96.291  0.00  0.00     0.279 HD
ATOM     39  CAW GV0 d   1       8.928  -1.974  97.364  0.00  0.00     0.106 C 
ATOM     40  H9  GV0 d   1       7.934  -0.404  98.464  0.00  0.00     0.078 H 
ATOM     41  H10 GV0 d   1       9.690  -0.562  98.809  0.00  0.00     0.078 H 
ATOM     42  H11 GV0 d   1       8.165  -1.993  96.571  0.00  0.00     0.078 H 
ATOM     43  H12 GV0 d   1       8.685  -2.730  98.125  0.00  0.00     0.078 H 
ATOM     44  H13 GV0 d   1      10.043  -3.069  96.149  0.00  0.00     0.280 HD
BRANCH  34  45
ATOM     45  CBC GV0 d   1       9.186   1.772  97.678  0.00  0.00     0.066 C 
ATOM     46  H6  GV0 d   1       8.186   1.954  98.098  0.00  0.00     0.068 H 
ATOM     47  H7  GV0 d   1       9.420   2.551  96.938  0.00  0.00     0.068 H 
ATOM     48  H8  GV0 d   1       9.933   1.797  98.486  0.00  0.00     0.068 H 
ENDBRANCH  34  45
ENDBRANCH  19  29
ENDBRANCH   1  10
BRANCH   6  49
ATOM     49  OAF GV0 d   1      17.118  -7.167 103.291  0.00  0.00    -0.311 OA
BRANCH  49  50
ATOM     50  CBO GV0 d   1      17.900  -7.411 104.397  0.00  0.00     0.079 A 
ATOM     51  CBK GV0 d   1      18.199  -6.363 105.260  0.00  0.00    -0.011 A 
ATOM     52  CBF GV0 d   1      18.989  -6.589 106.380  0.00  0.00     0.145 A 
ATOM     53  H27 GV0 d   1      17.816  -5.369 105.059  0.00  0.00     0.092 H 
ATOM     54  FAA GV0 d   1      19.246  -5.571 107.190  0.00  0.00    -0.204 F 
ATOM     55  CBD GV0 d   1      19.533  -7.841 106.665  0.00  0.00     0.073 A 
ATOM     56  CBG GV0 d   1      19.245  -8.905 105.796  0.00  0.00    -0.051 A 
ATOM     57  CBL GV0 d   1      18.445  -8.672 104.668  0.00  0.00    -0.048 A 
ATOM     58  H29 GV0 d   1      19.637  -9.896 105.995  0.00  0.00     0.087 H 
ATOM     59  H28 GV0 d   1      18.243  -9.491 103.987  0.00  0.00     0.087 H 
BRANCH  55  60
ATOM     60  NAJ GV0 d   1      20.264  -7.900 107.805  0.00  0.00    -0.323 N 
ATOM     61  CAR GV0 d   1      21.286  -8.769 107.993  0.00  0.00     0.240 C 
ATOM     62  OAC GV0 d   1      21.695  -9.570 107.147  0.00  0.00    -0.272 OA
ATOM     63  H30 GV0 d   1      20.037  -7.269 108.546  0.00  0.00     0.169 HD
BRANCH  61  64
ATOM     64  CAN GV0 d   1      21.998  -8.714 109.357  0.00  0.00     0.122 A 
ATOM     65  CAO GV0 d   1      23.509  -9.071 109.350  0.00  0.00    -0.040 A 
ATOM     66  CAP GV0 d   1      22.513 -10.069 109.932  0.00  0.00    -0.040 A 
ATOM     67  H31 GV0 d   1      24.201  -8.536 110.017  0.00  0.00     0.035 H 
ATOM     68  H32 GV0 d   1      24.015  -9.293 108.399  0.00  0.00     0.035 H 
ATOM     69  H33 GV0 d   1      22.301 -11.007 109.399  0.00  0.00     0.035 H 
ATOM     70  H34 GV0 d   1      22.488 -10.250 111.017  0.00  0.00     0.035 H 
BRANCH  64  71
ATOM     71  CAS GV0 d   1      21.476  -7.674 110.369  0.00  0.00     0.240 C 
ATOM     72  OAD GV0 d   1      20.625  -6.837 110.039  0.00  0.00    -0.272 OA
ATOM     73  NAK GV0 d   1      22.039  -7.774 111.606  0.00  0.00    -0.326 N 
ATOM     74  H35 GV0 d   1      22.716  -8.490 111.777  0.00  0.00     0.169 HD
BRANCH  73  75
ATOM     75  CBE GV0 d   1      21.704  -6.927 112.610  0.00  0.00     0.034 A 
ATOM     76  CBH GV0 d   1      22.705  -6.454 113.436  0.00  0.00    -0.054 A 
ATOM     77  CBM GV0 d   1      22.390  -5.595 114.488  0.00  0.00    -0.044 A 
ATOM     78  H36 GV0 d   1      23.734  -6.750 113.266  0.00  0.00     0.087 H 
ATOM     79  CBP GV0 d   1      21.071  -5.236 114.737  0.00  0.00     0.116 A 
ATOM     80  H37 GV0 d   1      23.181  -5.204 115.117  0.00  0.00     0.088 H 
ATOM     81  FAB GV0 d   1      20.773  -4.386 115.769  0.00  0.00    -0.206 F 
ATOM     82  CBN GV0 d   1      20.052  -5.716 113.932  0.00  0.00    -0.044 A 
ATOM     83  CBI GV0 d   1      20.376  -6.580 112.887  0.00  0.00    -0.054 A 
ATOM     84  H38 GV0 d   1      19.023  -5.426 114.111  0.00  0.00     0.088 H 
ATOM     85  H39 GV0 d   1      19.582  -6.992 112.275  0.00  0.00     0.087 H 
ENDBRANCH  73  75
ENDBRANCH  64  71
ENDBRANCH  61  64
ENDBRANCH  55  60
ENDBRANCH  49  50
ENDBRANCH   6  49
TORSDOF 9
