REMARK  10 active torsions:
REMARK  status: ('A' for Active; 'I' for Inactive)
REMARK    1  A    between atoms: C11_18  and  C10_1 
REMARK    2  A    between atoms: N16_21  and  C15_3 
REMARK       I    between atoms: C17_4  and  N16_21 
REMARK    3  A    between atoms: O18_22  and  C17_4 
REMARK    4  A    between atoms: C19_23  and  C20_5 
REMARK    5  A    between atoms: C25_27  and  C26_7 
REMARK    6  A    between atoms: C02_10  and  C01_9 
REMARK    7  A    between atoms: C03_11  and  N04_12 
REMARK    8  A    between atoms: N04_12  and  S05_13 
REMARK    9  A    between atoms: S05_13  and  C06_14 
REMARK   10  A    between atoms: O18_22  and  C19_23 
ROOT
ATOM      1  N12 BMF d   1      59.723  -3.259  25.202  0.00  0.00    -0.164 NA
ATOM      2  C15 BMF d   1      58.626  -5.791  25.522  0.00  0.00     0.086 A 
ATOM      3  C22 BMF d   1      60.005  -5.590  25.671  0.00  0.00    -0.023 A 
ATOM      4  C11 BMF d   1      60.530  -4.311  25.518  0.00  0.00     0.090 A 
ATOM      5  N13 BMF d   1      58.414  -3.523  25.101  0.00  0.00    -0.198 N 
ATOM      6  C14 BMF d   1      57.857  -4.724  25.244  0.00  0.00     0.174 A 
ATOM      7  N23 BMF d   1      56.542  -4.590  25.015  0.00  0.00    -0.258 N 
ATOM      8  N24 BMF d   1      56.298  -3.309  24.743  0.00  0.00    -0.158 NA
ATOM      9  C25 BMF d   1      57.454  -2.654  24.793  0.00  0.00     0.146 A 
ATOM     10  H4  BMF d   1      60.657  -6.424  25.904  0.00  0.00     0.090 H 
ATOM     11  H20 BMF d   1      55.843  -5.346  25.044  0.00  0.00     0.191 HD
ENDROOT
BRANCH   4  12
ATOM     12  C10 BMF d   1      61.913  -4.093  25.587  0.00  0.00    -0.003 A 
ATOM     13  C09 BMF d   1      62.370  -2.944  24.937  0.00  0.00    -0.044 A 
ATOM     14  C03 BMF d   1      63.722  -2.634  24.902  0.00  0.00     0.049 A 
ATOM     15  H16 BMF d   1      61.658  -2.285  24.453  0.00  0.00     0.088 H 
ATOM     16  C02 BMF d   1      64.660  -3.499  25.467  0.00  0.00    -0.035 A 
ATOM     17  C28 BMF d   1      64.212  -4.673  26.083  0.00  0.00    -0.074 A 
ATOM     18  C27 BMF d   1      62.846  -4.986  26.131  0.00  0.00    -0.070 A 
ATOM     19  H8  BMF d   1      64.931  -5.350  26.529  0.00  0.00     0.084 H 
ATOM     20  H21 BMF d   1      62.514  -5.912  26.586  0.00  0.00     0.084 H 
BRANCH  14  21
ATOM     21  N04 BMF d   1      64.130  -1.498  24.320  0.00  0.00    -0.284 N 
ATOM     22  H12 BMF d   1      64.398  -0.708  24.871  0.00  0.00     0.178 HD
BRANCH  21  23
ATOM     23  S05 BMF d   1      64.180  -1.434  22.664  0.00  0.00     0.227 S 
ATOM     24  O07 BMF d   1      64.534  -0.008  22.210  0.00  0.00    -0.206 OA
ATOM     25  O08 BMF d   1      65.213  -2.478  22.245  0.00  0.00    -0.206 OA
BRANCH  23  26
ATOM     26  C06 BMF d   1      62.651  -1.891  21.865  0.00  0.00     0.033 C 
ATOM     27  H13 BMF d   1      62.772  -1.821  20.774  0.00  0.00     0.051 H 
ATOM     28  H14 BMF d   1      61.850  -1.210  22.189  0.00  0.00     0.051 H 
ATOM     29  H15 BMF d   1      62.388  -2.923  22.139  0.00  0.00     0.051 H 
ENDBRANCH  23  26
ENDBRANCH  21  23
ENDBRANCH  14  21
BRANCH  16  30
ATOM     30  C01 BMF d   1      66.037  -3.230  25.452  0.00  0.00    -0.049 C 
ATOM     31  H9  BMF d   1      66.576  -4.048  25.953  0.00  0.00     0.033 H 
ATOM     32  H10 BMF d   1      66.232  -2.285  25.980  0.00  0.00     0.033 H 
ATOM     33  H11 BMF d   1      66.383  -3.146  24.411  0.00  0.00     0.033 H 
ENDBRANCH  16  30
ENDBRANCH   4  12
BRANCH   2  34
ATOM     34  N16 BMF d   1      57.968  -6.958  25.681  0.00  0.00    -0.299 N 
ATOM     35  C17 BMF d   1      58.555  -8.163  25.928  0.00  0.00     0.365 C 
ATOM     36  O21 BMF d   1      59.780  -8.329  25.989  0.00  0.00    -0.238 OA
ATOM     37  H17 BMF d   1      56.971  -6.937  25.612  0.00  0.00     0.171 HD
BRANCH  35  38
ATOM     38  O18 BMF d   1      57.742  -9.215  26.170  0.00  0.00    -0.304 OA
BRANCH  38  39
ATOM     39  C19 BMF d   1      58.366 -10.456  26.515  0.00  0.00     0.027 C 
ATOM     40  H18 BMF d   1      59.230 -10.633  25.858  0.00  0.00     0.074 H 
ATOM     41  H19 BMF d   1      58.701 -10.425  27.562  0.00  0.00     0.074 H 
BRANCH  39  42
ATOM     42  C20 BMF d   1      57.341 -11.575  26.333  0.00  0.00    -0.056 C 
ATOM     43  H1  BMF d   1      57.801 -12.540  26.593  0.00  0.00     0.030 H 
ATOM     44  H2  BMF d   1      57.007 -11.599  25.285  0.00  0.00     0.030 H 
ATOM     45  H3  BMF d   1      56.477 -11.392  26.989  0.00  0.00     0.030 H 
ENDBRANCH  39  42
ENDBRANCH  38  39
ENDBRANCH  35  38
ENDBRANCH   2  34
BRANCH   9  46
ATOM     46  C26 BMF d   1      57.649  -1.158  24.546  0.00  0.00    -0.018 C 
ATOM     47  H5  BMF d   1      56.679  -0.696  24.312  0.00  0.00     0.038 H 
ATOM     48  H6  BMF d   1      58.338  -1.013  23.701  0.00  0.00     0.038 H 
ATOM     49  H7  BMF d   1      58.070  -0.689  25.448  0.00  0.00     0.038 H 
ENDBRANCH   9  46
TORSDOF 10
