REMARK  7 active torsions:
REMARK  status: ('A' for Active; 'I' for Inactive)
REMARK    1  A    between atoms: C3_3  and  O1_4 
REMARK    2  A    between atoms: O1_4  and  C25_19 
REMARK    3  A    between atoms: C12_6  and  N4_30 
REMARK    4  A    between atoms: N5_31  and  C19_13 
REMARK    5  A    between atoms: C25_19  and  C24_18 
REMARK    6  A    between atoms: C7_24  and  C4_21 
REMARK    7  A    between atoms: N3_27  and  C9_28 
ROOT
ATOM      1  C6  6BF d   1      -4.345  -9.320   1.336  0.00  0.00     0.017 A 
ATOM      2  C7  6BF d   1      -4.968  -8.390   2.138  0.00  0.00     0.014 A 
ATOM      3  C8  6BF d   1      -4.848  -7.155   1.435  0.00  0.00     0.034 A 
ATOM      4  N2  6BF d   1      -4.168  -7.322   0.309  0.00  0.00    -0.179 NA
ATOM      5  N3  6BF d   1      -3.820  -8.632   0.268  0.00  0.00    -0.245 N 
ATOM      6  H29 6BF d   1      -4.281 -10.393   1.513  0.00  0.00     0.116 H 
ATOM      7  H30 6BF d   1      -5.258  -6.206   1.776  0.00  0.00     0.118 H 
ENDROOT
BRANCH   2   8
ATOM      8  C4  6BF d   1      -5.661  -8.583   3.423  0.00  0.00     0.013 A 
ATOM      9  C3  6BF d   1      -5.619  -9.801   4.166  0.00  0.00     0.097 A 
ATOM     10  C2  6BF d   1      -6.318  -9.830   5.402  0.00  0.00     0.035 A 
ATOM     11  N1  6BF d   1      -6.932  -8.750   5.934  0.00  0.00    -0.270 NA
ATOM     12  H2  6BF d   1      -6.361 -10.766   5.947  0.00  0.00     0.119 H 
ATOM     13  C1  6BF d   1      -6.962  -7.601   5.234  0.00  0.00     0.003 A 
ATOM     14  C5  6BF d   1      -6.315  -7.458   4.007  0.00  0.00    -0.052 A 
ATOM     15  H1  6BF d   1      -7.508  -6.757   5.638  0.00  0.00     0.114 H 
ATOM     16  H28 6BF d   1      -6.309  -6.499   3.501  0.00  0.00     0.087 H 
BRANCH   9  17
ATOM     17  O1  6BF d   1      -4.926 -10.877   3.628  0.00  0.00    -0.348 OA
BRANCH  17  18
ATOM     18  C25 6BF d   1      -4.512 -11.981   4.449  0.00  0.00     0.029 C 
ATOM     19  H26 6BF d   1      -5.370 -12.641   4.644  0.00  0.00     0.075 H 
ATOM     20  H27 6BF d   1      -4.114 -11.606   5.403  0.00  0.00     0.075 H 
BRANCH  18  21
ATOM     21  C24 6BF d   1      -3.419 -12.758   3.700  0.00  0.00    -0.030 C 
ATOM     22  C20 6BF d   1      -3.111 -14.066   4.487  0.00  0.00    -0.037 C 
ATOM     23  C21 6BF d   1      -1.932 -14.857   3.866  0.00  0.00     0.082 C 
ATOM     24  H17 6BF d   1      -2.855 -13.804   5.524  0.00  0.00     0.036 H 
ATOM     25  H18 6BF d   1      -4.008 -14.703   4.481  0.00  0.00     0.036 H 
ATOM     26  N6  6BF d   1      -0.750 -14.014   3.612  0.00  0.00    -0.075 N 
ATOM     27  H19 6BF d   1      -2.264 -15.293   2.912  0.00  0.00     0.075 H 
ATOM     28  H20 6BF d   1      -1.647 -15.663   4.558  0.00  0.00     0.075 H 
ATOM     29  C22 6BF d   1      -1.013 -12.795   2.828  0.00  0.00     0.082 C 
ATOM     30  H33 6BF d   1      -0.072 -14.568   3.112  0.00  0.00     0.277 HD
ATOM     31  H34 6BF d   1      -0.366 -13.737   4.502  0.00  0.00     0.277 HD
ATOM     32  C23 6BF d   1      -2.117 -11.940   3.499  0.00  0.00    -0.037 C 
ATOM     33  H21 6BF d   1      -0.089 -12.203   2.760  0.00  0.00     0.075 H 
ATOM     34  H22 6BF d   1      -1.341 -13.079   1.817  0.00  0.00     0.075 H 
ATOM     35  H23 6BF d   1      -2.335 -11.071   2.861  0.00  0.00     0.036 H 
ATOM     36  H24 6BF d   1      -1.756 -11.594   4.479  0.00  0.00     0.036 H 
ATOM     37  H25 6BF d   1      -3.808 -13.025   2.706  0.00  0.00     0.043 H 
ENDBRANCH  18  21
ENDBRANCH  17  18
ENDBRANCH   9  17
ENDBRANCH   2   8
BRANCH   5  38
ATOM     38  C9  6BF d   1      -3.073  -9.159  -0.813  0.00  0.00     0.058 A 
ATOM     39  C14 6BF d   1      -2.397 -10.401  -0.671  0.00  0.00    -0.053 A 
ATOM     40  C13 6BF d   1      -1.669 -10.980  -1.737  0.00  0.00    -0.055 A 
ATOM     41  H5  6BF d   1      -2.440 -10.919   0.280  0.00  0.00     0.087 H 
ATOM     42  C12 6BF d   1      -1.580 -10.278  -2.976  0.00  0.00     0.030 A 
ATOM     43  H4  6BF d   1      -1.186 -11.943  -1.614  0.00  0.00     0.087 H 
ATOM     44  C11 6BF d   1      -2.259  -9.032  -3.095  0.00  0.00    -0.055 A 
ATOM     45  C10 6BF d   1      -2.987  -8.459  -2.035  0.00  0.00    -0.053 A 
ATOM     46  H3  6BF d   1      -2.213  -8.503  -4.040  0.00  0.00     0.087 H 
ATOM     47  H31 6BF d   1      -3.473  -7.497  -2.155  0.00  0.00     0.087 H 
BRANCH  42  48
ATOM     48  N4  6BF d   1      -0.867 -10.767  -4.107  0.00  0.00    -0.378 N 
ATOM     49  C15 6BF d   1       0.154 -11.825  -3.996  0.00  0.00     0.018 C 
ATOM     50  C16 6BF d   1       0.355 -12.538  -5.363  0.00  0.00     0.098 C 
ATOM     51  H6  6BF d   1       1.107 -11.376  -3.679  0.00  0.00     0.066 H 
ATOM     52  H7  6BF d   1      -0.170 -12.563  -3.248  0.00  0.00     0.066 H 
ATOM     53  N5  6BF d   1       0.724 -11.537  -6.385  0.00  0.00    -0.072 N 
ATOM     54  H8  6BF d   1      -0.580 -13.037  -5.658  0.00  0.00     0.078 H 
ATOM     55  H9  6BF d   1       1.157 -13.285  -5.274  0.00  0.00     0.078 H 
ATOM     56  C17 6BF d   1      -0.318 -10.513  -6.538  0.00  0.00     0.098 C 
ATOM     57  H32 6BF d   1       1.593 -11.098  -6.125  0.00  0.00     0.279 HD
ATOM     58  C18 6BF d   1      -0.607  -9.810  -5.199  0.00  0.00     0.018 C 
ATOM     59  H10 6BF d   1       0.019  -9.765  -7.271  0.00  0.00     0.078 H 
ATOM     60  H11 6BF d   1      -1.241 -10.991  -6.899  0.00  0.00     0.078 H 
ATOM     61  H12 6BF d   1      -1.490  -9.165  -5.322  0.00  0.00     0.066 H 
ATOM     62  H13 6BF d   1       0.263  -9.193  -4.929  0.00  0.00     0.066 H 
BRANCH  53  63
ATOM     63  C19 6BF d   1       0.866 -12.214  -7.664  0.00  0.00     0.066 C 
ATOM     64  H14 6BF d   1       1.641 -12.990  -7.584  0.00  0.00     0.068 H 
ATOM     65  H15 6BF d   1       1.155 -11.485  -8.435  0.00  0.00     0.068 H 
ATOM     66  H16 6BF d   1      -0.091 -12.680  -7.941  0.00  0.00     0.068 H 
ENDBRANCH  53  63
ENDBRANCH  42  48
ENDBRANCH   5  38
TORSDOF 7
