REMARK  6 active torsions:
REMARK  status: ('A' for Active; 'I' for Inactive)
REMARK    1  A    between atoms: C08_9  and  C06_7 
REMARK    2  A    between atoms: C11_11  and  O12_12 
REMARK    3  A    between atoms: C13_13  and  O14_14 
REMARK    4  A    between atoms: C17_17  and  O18_18 
REMARK    5  A    between atoms: O18_18  and  C19_19 
REMARK    6  A    between atoms: C21_21  and  O22_22 
ROOT
ATOM      1  O01 6B5 d   1      20.052  -3.464  -1.167  0.00  0.00    -0.287 OA
ATOM      2  C02 6B5 d   1      20.799  -4.221  -0.590  0.00  0.00     0.190 A 
ATOM      3  C03 6B5 d   1      21.955  -3.703   0.212  0.00  0.00     0.081 A 
ATOM      4  C04 6B5 d   1      22.784  -4.632   0.857  0.00  0.00     0.095 A 
ATOM      5  O05 6B5 d   1      22.548  -6.004   0.760  0.00  0.00    -0.309 OA
ATOM      6  C06 6B5 d   1      21.426  -6.498   0.064  0.00  0.00     0.090 A 
ATOM      7  C07 6B5 d   1      20.618  -5.686  -0.647  0.00  0.00    -0.000 A 
ATOM      8  C16 6B5 d   1      23.867  -4.202   1.602  0.00  0.00    -0.017 A 
ATOM      9  C17 6B5 d   1      24.146  -2.864   1.731  0.00  0.00     0.073 A 
ATOM     10  C20 6B5 d   1      23.352  -1.927   1.106  0.00  0.00    -0.018 A 
ATOM     11  C21 6B5 d   1      22.266  -2.330   0.352  0.00  0.00     0.085 A 
ATOM     12  H2  6B5 d   1      19.829  -6.112  -1.266  0.00  0.00     0.094 H 
ATOM     13  H7  6B5 d   1      24.504  -4.931   2.090  0.00  0.00     0.092 H 
ATOM     14  H11 6B5 d   1      23.580  -0.872   1.206  0.00  0.00     0.092 H 
ENDROOT
BRANCH   6  15
ATOM     15  C08 6B5 d   1      21.421  -7.961   0.039  0.00  0.00     0.001 A 
ATOM     16  C09 6B5 d   1      21.790  -8.674   1.166  0.00  0.00    -0.068 A 
ATOM     17  C10 6B5 d   1      21.796 -10.076   1.140  0.00  0.00    -0.047 A 
ATOM     18  H3  6B5 d   1      22.075  -8.148   2.070  0.00  0.00     0.085 H 
ATOM     19  C11 6B5 d   1      21.433 -10.749  -0.023  0.00  0.00     0.098 A 
ATOM     20  H1  6B5 d   1      22.083 -10.634   2.024  0.00  0.00     0.087 H 
ATOM     21  C13 6B5 d   1      21.065 -10.024  -1.170  0.00  0.00     0.099 A 
ATOM     22  C15 6B5 d   1      21.062  -8.641  -1.138  0.00  0.00    -0.036 A 
ATOM     23  H6  6B5 d   1      20.782  -8.080  -2.022  0.00  0.00     0.089 H 
BRANCH  19  24
ATOM     24  O12 6B5 d   1      21.445 -12.100  -0.029  0.00  0.00    -0.358 OA
ATOM     25  H4  6B5 d   1      21.176 -12.414  -0.884  0.00  0.00     0.217 HD
ENDBRANCH  19  24
BRANCH  21  26
ATOM     26  O14 6B5 d   1      20.707 -10.690  -2.321  0.00  0.00    -0.358 OA
ATOM     27  H5  6B5 d   1      21.433 -11.229  -2.613  0.00  0.00     0.217 HD
ENDBRANCH  21  26
ENDBRANCH   6  15
BRANCH  11  28
ATOM     28  O22 6B5 d   1      21.488  -1.398  -0.242  0.00  0.00    -0.360 OA
ATOM     29  H12 6B5 d   1      20.789  -1.829  -0.720  0.00  0.00     0.217 HD
ENDBRANCH  11  28
BRANCH   9  30
ATOM     30  O18 6B5 d   1      25.236  -2.452   2.480  0.00  0.00    -0.356 OA
BRANCH  30  31
ATOM     31  C19 6B5 d   1      25.975  -1.310   2.052  0.00  0.00     0.010 C 
ATOM     32  H8  6B5 d   1      26.800  -1.123   2.755  0.00  0.00     0.066 H 
ATOM     33  H9  6B5 d   1      25.311  -0.433   2.024  0.00  0.00     0.066 H 
ATOM     34  H10 6B5 d   1      26.383  -1.493   1.047  0.00  0.00     0.066 H 
ENDBRANCH  30  31
ENDBRANCH   9  30
TORSDOF 6
