REMARK  5 active torsions:
REMARK  status: ('A' for Active; 'I' for Inactive)
REMARK    1  A    between atoms: C2_3  and  O1_2 
REMARK    2  A    between atoms: C4_7  and  O2_4 
REMARK    3  A    between atoms: C12_18  and  O5_10 
REMARK    4  A    between atoms: C13_19  and  O6_12 
REMARK    5  A    between atoms: C10_16  and  C9_15 
ROOT
ATOM      1  C1  LU2 d   1      10.885  -9.826 -27.838  0.00  0.00    -0.017 A 
ATOM      2  C2  LU2 d   1      10.263  -8.580 -27.767  0.00  0.00     0.071 A 
ATOM      3  C3  LU2 d   1       9.766  -7.980 -28.931  0.00  0.00    -0.018 A 
ATOM      4  O3  LU2 d   1      10.130 -10.099 -32.540  0.00  0.00    -0.287 OA
ATOM      5  C4  LU2 d   1       9.881  -8.611 -30.193  0.00  0.00     0.085 A 
ATOM      6  O4  LU2 d   1      11.629 -11.672 -29.101  0.00  0.00    -0.309 OA
ATOM      7  C5  LU2 d   1      10.504  -9.866 -30.268  0.00  0.00     0.081 A 
ATOM      8  C6  LU2 d   1      10.997 -10.465 -29.083  0.00  0.00     0.095 A 
ATOM      9  C7  LU2 d   1      10.627 -10.553 -31.495  0.00  0.00     0.190 A 
ATOM     10  C8  LU2 d   1      11.200 -11.829 -31.488  0.00  0.00    -0.000 A 
ATOM     11  C9  LU2 d   1      11.719 -12.370 -30.291  0.00  0.00     0.090 A 
ATOM     12  H1  LU2 d   1      11.277 -10.295 -26.943  0.00  0.00     0.092 H 
ATOM     13  H4  LU2 d   1       9.283  -7.012 -28.864  0.00  0.00     0.092 H 
ATOM     14  H7  LU2 d   1      11.246 -12.408 -32.409  0.00  0.00     0.094 H 
ENDROOT
BRANCH  11  15
ATOM     15  C10 LU2 d   1      12.288 -13.664 -30.225  0.00  0.00     0.001 A 
ATOM     16  C11 LU2 d   1      12.337 -14.542 -31.336  0.00  0.00    -0.036 A 
ATOM     17  C12 LU2 d   1      12.887 -15.824 -31.205  0.00  0.00     0.099 A 
ATOM     18  H8  LU2 d   1      11.946 -14.220 -32.294  0.00  0.00     0.089 H 
ATOM     19  C13 LU2 d   1      13.369 -16.240 -29.953  0.00  0.00     0.098 A 
ATOM     20  C14 LU2 d   1      13.346 -15.379 -28.848  0.00  0.00    -0.047 A 
ATOM     21  C15 LU2 d   1      12.771 -14.134 -28.991  0.00  0.00    -0.068 A 
ATOM     22  H9  LU2 d   1      13.772 -15.686 -27.899  0.00  0.00     0.087 H 
ATOM     23  H10 LU2 d   1      12.688 -13.494 -28.120  0.00  0.00     0.085 H 
BRANCH  17  24
ATOM     24  O5  LU2 d   1      12.965 -16.685 -32.274  0.00  0.00    -0.358 OA
ATOM     25  H5  LU2 d   1      13.364 -17.500 -31.994  0.00  0.00     0.217 HD
ENDBRANCH  17  24
BRANCH  19  26
ATOM     26  O6  LU2 d   1      13.897 -17.477 -29.807  0.00  0.00    -0.358 OA
ATOM     27  H6  LU2 d   1      14.173 -17.598 -28.906  0.00  0.00     0.217 HD
ENDBRANCH  19  26
ENDBRANCH  11  15
BRANCH   2  28
ATOM     28  O1  LU2 d   1      10.147  -7.954 -26.567  0.00  0.00    -0.361 OA
ATOM     29  H2  LU2 d   1       9.644  -8.500 -25.974  0.00  0.00     0.217 HD
ENDBRANCH   2  28
BRANCH   5  30
ATOM     30  O2  LU2 d   1       9.405  -7.992 -31.340  0.00  0.00    -0.360 OA
ATOM     31  H3  LU2 d   1       9.564  -8.553 -32.090  0.00  0.00     0.217 HD
ENDBRANCH   5  30
TORSDOF 5
