REMARK  5 active torsions:
REMARK  status: ('A' for Active; 'I' for Inactive)
REMARK    1  A    between atoms: CG2_10  and  CD2_4 
REMARK    2  A    between atoms: CA_5  and  C_11 
REMARK    3  A    between atoms: CB_6  and  CB1_7 
REMARK    4  A    between atoms: CB1_7  and  CG1_9 
REMARK    5  A    between atoms: CG_8  and  CG2_10 
ROOT
ATOM      1  N   KAI d   1      15.705  20.501  62.295  0.00  0.00    -0.060 N 
ATOM      2  CD  KAI d   1      16.764  21.531  62.093  0.00  0.00     0.090 C 
ATOM      3  CA  KAI d   1      15.353  20.371  63.709  0.00  0.00     0.189 C 
ATOM      4  CB  KAI d   1      16.487  21.112  64.414  0.00  0.00     0.001 C 
ATOM      5  CG  KAI d   1      16.803  22.232  63.438  0.00  0.00    -0.004 C 
ATOM      6  H1  KAI d   1      16.042  19.613  61.958  0.00  0.00     0.278 HD
ATOM      7  H2  KAI d   1      14.884  20.768  61.775  0.00  0.00     0.278 HD
ATOM      8  H3  KAI d   1      16.490  22.230  61.289  0.00  0.00     0.076 H 
ATOM      9  H4  KAI d   1      17.733  21.065  61.860  0.00  0.00     0.076 H 
ATOM     10  H10 KAI d   1      15.317  19.319  64.027  0.00  0.00     0.102 H 
ATOM     11  H11 KAI d   1      16.137  21.523  65.373  0.00  0.00     0.045 H 
ATOM     12  H14 KAI d   1      15.983  22.965  63.456  0.00  0.00     0.050 H 
ENDROOT
BRANCH   5  13
ATOM     13  CG2 KAI d   1      18.069  23.006  63.835  0.00  0.00    -0.087 C 
ATOM     14  CD1 KAI d   1      18.080  23.794  64.892  0.00  0.00    -0.119 C 
ATOM     15  H5  KAI d   1      18.987  24.335  65.158  0.00  0.00     0.067 H 
ATOM     16  H6  KAI d   1      17.182  23.904  65.499  0.00  0.00     0.067 H 
BRANCH  13  17
ATOM     17  CD2 KAI d   1      19.329  22.783  63.047  0.00  0.00    -0.055 C 
ATOM     18  H7  KAI d   1      20.134  23.409  63.459  0.00  0.00     0.033 H 
ATOM     19  H8  KAI d   1      19.156  23.053  61.995  0.00  0.00     0.033 H 
ATOM     20  H9  KAI d   1      19.619  21.724  63.111  0.00  0.00     0.033 H 
ENDBRANCH  13  17
ENDBRANCH   5  13
BRANCH   4  21
ATOM     21  CB1 KAI d   1      17.719  20.217  64.685  0.00  0.00     0.022 C 
ATOM     22  H12 KAI d   1      18.544  20.877  64.993  0.00  0.00     0.049 H 
ATOM     23  H13 KAI d   1      17.980  19.721  63.739  0.00  0.00     0.049 H 
BRANCH  21  24
ATOM     24  CG1 KAI d   1      17.582  19.125  65.753  0.00  0.00     0.172 C 
ATOM     25  OD1 KAI d   1      16.529  19.068  66.415  0.00  0.00    -0.648 OA
ATOM     26  OD2 KAI d   1      18.501  18.328  65.920  0.00  0.00    -0.648 OA
ENDBRANCH  21  24
ENDBRANCH   4  21
BRANCH   3  27
ATOM     27  C   KAI d   1      14.006  21.015  63.919  0.00  0.00     0.205 C 
ATOM     28  O   KAI d   1      13.395  21.422  62.870  0.00  0.00    -0.646 OA
ATOM     29  OXT KAI d   1      13.669  21.207  65.112  0.00  0.00    -0.646 OA
ENDBRANCH   3  27
TORSDOF 5
