REMARK  9 active torsions:
REMARK  status: ('A' for Active; 'I' for Inactive)
REMARK    1  A    between atoms: N5_13  and  C9_5 
REMARK    2  A    between atoms: C12_7  and  C16_16 
REMARK    3  A    between atoms: C2_11  and  C1_10 
REMARK    4  A    between atoms: C21_21  and  N31_31 
REMARK    5  A    between atoms: N24_24  and  C27_27 
REMARK    6  A    between atoms: C27_27  and  C28_28 
REMARK    7  A    between atoms: C28_28  and  C29_29 
REMARK    8  A    between atoms: C29_29  and  N30_30 
REMARK    9  A    between atoms: N31_31  and  C32_32 
ROOT
ATOM      1  C16 6BZ d   1      17.472 -17.742  12.043  0.00  0.00     0.045 A 
ATOM      2  C17 6BZ d   1      17.539 -18.430  13.225  0.00  0.00    -0.052 A 
ATOM      3  C18 6BZ d   1      16.486 -18.304  14.164  0.00  0.00     0.030 A 
ATOM      4  C19 6BZ d   1      16.518 -18.995  15.385  0.00  0.00     0.035 A 
ATOM      5  N20 6BZ d   1      15.516 -18.843  16.228  0.00  0.00    -0.074 NA
ATOM      6  C21 6BZ d   1      14.488 -18.053  15.939  0.00  0.00     0.723 A 
ATOM      7  N22 6BZ d   1      14.412 -17.381  14.801  0.00  0.00    -0.044 NA
ATOM      8  C23 6BZ d   1      15.382 -17.470  13.892  0.00  0.00     0.163 A 
ATOM      9  N24 6BZ d   1      15.317 -16.778  12.705  0.00  0.00    -0.297 N 
ATOM     10  C25 6BZ d   1      16.305 -16.893  11.785  0.00  0.00     0.260 A 
ATOM     11  O26 6BZ d   1      16.230 -16.278  10.734  0.00  0.00    -0.267 OA
ATOM     12  H9  6BZ d   1      18.394 -19.068  13.441  0.00  0.00     0.086 H 
ATOM     13  H10 6BZ d   1      17.352 -19.642  15.631  0.00  0.00     0.117 H 
ENDROOT
BRANCH   1  14
ATOM     14  C12 6BZ d   1      18.574 -17.857  11.052  0.00  0.00     0.002 A 
ATOM     15  C11 6BZ d   1      19.731 -17.087  11.198  0.00  0.00    -0.068 A 
ATOM     16  C10 6BZ d   1      20.758 -17.189  10.282  0.00  0.00    -0.056 A 
ATOM     17  H3  6BZ d   1      19.822 -16.405  12.036  0.00  0.00     0.085 H 
ATOM     18  C9  6BZ d   1      20.655 -18.053   9.195  0.00  0.00     0.043 A 
ATOM     19  H5  6BZ d   1      21.653 -16.591  10.410  0.00  0.00     0.087 H 
ATOM     20  C14 6BZ d   1      19.505 -18.828   9.050  0.00  0.00    -0.035 A 
ATOM     21  C13 6BZ d   1      18.469 -18.729   9.967  0.00  0.00     0.047 A 
ATOM     22  H1  6BZ d   1      19.420 -19.513   8.214  0.00  0.00     0.089 H 
ATOM     23 CL1  6BZ d   1      17.037 -19.689   9.772  0.00  0.00    -0.083 Cl
BRANCH  18  24
ATOM     24  N5  6BZ d   1      21.718 -18.156   8.278  0.00  0.00    -0.287 N 
ATOM     25  C6  6BZ d   1      22.915 -18.644   8.707  0.00  0.00     0.005 A 
ATOM     26  C7  6BZ d   1      23.965 -18.762   7.857  0.00  0.00     0.018 A 
ATOM     27  H2  6BZ d   1      23.030 -18.944   9.748  0.00  0.00     0.114 H 
ATOM     28  N8  6BZ d   1      23.853 -18.403   6.582  0.00  0.00    -0.259 NA
ATOM     29  H4  6BZ d   1      24.912 -19.156   8.223  0.00  0.00     0.116 H 
ATOM     30  C2  6BZ d   1      22.722 -17.926   6.120  0.00  0.00     0.098 A 
ATOM     31  C3  6BZ d   1      21.603 -17.789   6.978  0.00  0.00     0.276 A 
ATOM     32  O4  6BZ d   1      20.556 -17.344   6.540  0.00  0.00    -0.265 OA
BRANCH  30  33
ATOM     33  C1  6BZ d   1      22.624 -17.526   4.670  0.00  0.00    -0.030 C 
ATOM     34  H6  6BZ d   1      23.589 -17.706   4.174  0.00  0.00     0.035 H 
ATOM     35  H7  6BZ d   1      22.370 -16.458   4.601  0.00  0.00     0.035 H 
ATOM     36  H8  6BZ d   1      21.842 -18.122   4.177  0.00  0.00     0.035 H 
ENDBRANCH  30  33
ENDBRANCH  18  24
ENDBRANCH   1  14
BRANCH   9  37
ATOM     37  C27 6BZ d   1      14.157 -15.922  12.421  0.00  0.00     0.006 C 
ATOM     38  H11 6BZ d   1      13.238 -16.484  12.644  0.00  0.00     0.065 H 
ATOM     39  H12 6BZ d   1      14.170 -15.647  11.356  0.00  0.00     0.065 H 
BRANCH  37  40
ATOM     40  C28 6BZ d   1      14.171 -14.638  13.265  0.00  0.00    -0.027 C 
ATOM     41  H13 6BZ d   1      13.905 -14.888  14.303  0.00  0.00     0.037 H 
ATOM     42  H14 6BZ d   1      13.432 -13.932  12.857  0.00  0.00     0.037 H 
BRANCH  40  43
ATOM     43  C29 6BZ d   1      15.553 -13.978  13.250  0.00  0.00     0.081 C 
ATOM     44  H15 6BZ d   1      16.291 -14.669  13.683  0.00  0.00     0.075 H 
ATOM     45  H16 6BZ d   1      15.522 -13.055  13.847  0.00  0.00     0.075 H 
BRANCH  43  46
ATOM     46  N30 6BZ d   1      15.943 -13.652  11.870  0.00  0.00    -0.079 N 
ATOM     47  H17 6BZ d   1      16.853 -13.219  11.871  0.00  0.00     0.274 HD
ATOM     48  H18 6BZ d   1      15.269 -13.017  11.472  0.00  0.00     0.274 HD
ATOM     49  H19 6BZ d   1      15.974 -14.497  11.321  0.00  0.00     0.274 HD
ENDBRANCH  43  46
ENDBRANCH  40  43
ENDBRANCH  37  40
ENDBRANCH   9  37
BRANCH   6  50
ATOM     50  N31 6BZ d   1      13.469 -17.937  16.867  0.00  0.00    -0.227 N 
ATOM     51  H20 6BZ d   1      13.541 -18.438  17.764  0.00  0.00     0.177 HD
BRANCH  50  52
ATOM     52  C32 6BZ d   1      12.290 -17.113  16.593  0.00  0.00    -0.005 C 
ATOM     53  H21 6BZ d   1      11.605 -17.156  17.453  0.00  0.00     0.057 H 
ATOM     54  H22 6BZ d   1      11.778 -17.493  15.697  0.00  0.00     0.057 H 
ATOM     55  H23 6BZ d   1      12.602 -16.072  16.424  0.00  0.00     0.057 H 
ENDBRANCH  50  52
ENDBRANCH   6  50
TORSDOF 9
