REMARK  3 active torsions:
REMARK  status: ('A' for Active; 'I' for Inactive)
REMARK    1  A    between atoms: C5_3  and  C2_1 
REMARK       I    between atoms: N_12  and  C5_3 
REMARK    2  A    between atoms: C7_5  and  C6_4 
REMARK    3  A    between atoms: C6_4  and  N_12 
ROOT
ATOM      1  C5  6C4 d   1      28.345  14.281  -1.477  0.00  0.00     0.221 C 
ATOM      2  O   6C4 d   1      28.245  13.906  -0.285  0.00  0.00    -0.273 OA
ATOM      3  N   6C4 d   1      28.035  13.453  -2.482  0.00  0.00    -0.360 N 
ATOM      4  H17 6C4 d   1      28.276  13.676  -3.427  0.00  0.00     0.162 HD
ENDROOT
BRANCH   3   5
ATOM      5  C6  6C4 d   1      27.316  12.183  -2.148  0.00  0.00    -0.002 C 
ATOM      6  H4  6C4 d   1      27.443  11.988  -1.073  0.00  0.00     0.064 H 
ATOM      7  H5  6C4 d   1      26.248  12.323  -2.372  0.00  0.00     0.064 H 
BRANCH   5   8
ATOM      8  C7  6C4 d   1      27.802  10.979  -2.906  0.00  0.00    -0.039 C 
ATOM      9  C11 6C4 d   1      26.905   9.734  -2.945  0.00  0.00    -0.060 C 
ATOM     10  C10 6C4 d   1      27.467   8.933  -4.111  0.00  0.00    -0.065 C 
ATOM     11  H9  6C4 d   1      25.856  10.010  -3.126  0.00  0.00     0.033 H 
ATOM     12  H10 6C4 d   1      26.978   9.166  -2.006  0.00  0.00     0.033 H 
ATOM     13  C9  6C4 d   1      28.450   9.839  -4.836  0.00  0.00    -0.065 C 
ATOM     14  H18 6C4 d   1      27.983   8.035  -3.740  0.00  0.00     0.033 H 
ATOM     15  H19 6C4 d   1      26.655   8.634  -4.791  0.00  0.00     0.033 H 
ATOM     16  C8  6C4 d   1      28.221  11.249  -4.348  0.00  0.00    -0.060 C 
ATOM     17  H7  6C4 d   1      28.278   9.786  -5.921  0.00  0.00     0.033 H 
ATOM     18  H8  6C4 d   1      29.481   9.528  -4.612  0.00  0.00     0.033 H 
ATOM     19  H20 6C4 d   1      29.141  11.850  -4.398  0.00  0.00     0.033 H 
ATOM     20  H21 6C4 d   1      27.423  11.751  -4.916  0.00  0.00     0.033 H 
ATOM     21  H6  6C4 d   1      28.713  10.674  -2.370  0.00  0.00     0.042 H 
ENDBRANCH   5   8
ENDBRANCH   3   5
BRANCH   1  22
ATOM     22  C2  6C4 d   1      28.801  15.652  -1.870  0.00  0.00     0.024 C 
ATOM     23  C1  6C4 d   1      29.448  16.354  -0.684  0.00  0.00    -0.054 C 
ATOM     24  C   6C4 d   1      30.436  17.270  -1.370  0.00  0.00    -0.064 C 
ATOM     25  H11 6C4 d   1      29.958  15.637  -0.024  0.00  0.00     0.034 H 
ATOM     26  H12 6C4 d   1      28.708  16.925  -0.104  0.00  0.00     0.034 H 
ATOM     27  C4  6C4 d   1      30.880  16.617  -2.686  0.00  0.00    -0.064 C 
ATOM     28  H15 6C4 d   1      29.959  18.239  -1.580  0.00  0.00     0.033 H 
ATOM     29  H16 6C4 d   1      31.310  17.425  -0.720  0.00  0.00     0.033 H 
ATOM     30  C3  6C4 d   1      29.886  15.478  -2.953  0.00  0.00    -0.054 C 
ATOM     31  H2  6C4 d   1      30.849  17.350  -3.505  0.00  0.00     0.033 H 
ATOM     32  H3  6C4 d   1      31.901  16.218  -2.589  0.00  0.00     0.033 H 
ATOM     33  H13 6C4 d   1      29.450  15.570  -3.959  0.00  0.00     0.034 H 
ATOM     34  H14 6C4 d   1      30.380  14.500  -2.855  0.00  0.00     0.034 H 
ATOM     35  H1  6C4 d   1      27.955  16.244  -2.251  0.00  0.00     0.054 H 
ENDBRANCH   1  22
TORSDOF 3
