REMARK  11 active torsions:
REMARK  status: ('A' for Active; 'I' for Inactive)
REMARK    1  A    between atoms: C8_1  and  O23_26 
REMARK    2  A    between atoms: C5_2  and  C6_3 
REMARK    3  A    between atoms: S4_10  and  C5_2 
REMARK    4  A    between atoms: C1_27  and  C2_4 
REMARK    5  A    between atoms: C2_4  and  C3_28 
REMARK    6  A    between atoms: P1_7  and  NE2_6 
REMARK    7  A    between atoms: NE2_6  and  C1_27 
REMARK    8  A    between atoms: P1_7  and  S4_10 
REMARK    9  A    between atoms: C7_11  and  O22_25 
REMARK   10  A    between atoms: C9_12  and  N11_14 
REMARK   11  A    between atoms: C17_20  and  N20_23 
ROOT
ATOM      1  C5  6CE d   1     -29.201   4.198 -25.900  0.00  0.00     0.014 C 
ATOM      2  H2  6CE d   1     -28.958   4.597 -24.904  0.00  0.00     0.053 H 
ATOM      3  H3  6CE d   1     -28.649   3.261 -26.064  0.00  0.00     0.053 H 
ENDROOT
BRANCH   1   4
ATOM      4  C6  6CE d   1     -28.747   5.213 -26.949  0.00  0.00     0.077 C 
ATOM      5  C7  6CE d   1     -29.490   6.547 -26.954  0.00  0.00     0.090 C 
ATOM      6  C8  6CE d   1     -29.695   6.862 -28.436  0.00  0.00     0.105 C 
ATOM      7  H8  6CE d   1     -30.466   6.452 -26.455  0.00  0.00     0.091 H 
ATOM      8  C9  6CE d   1     -28.859   5.787 -29.110  0.00  0.00     0.139 C 
ATOM      9  H1  6CE d   1     -30.758   6.747 -28.697  0.00  0.00     0.093 H 
ATOM     10  O10 6CE d   1     -28.939   4.669 -28.250  0.00  0.00    -0.355 OA
ATOM     11  H9  6CE d   1     -27.817   6.125 -29.209  0.00  0.00     0.122 H 
ATOM     12  H4  6CE d   1     -27.678   5.410 -26.782  0.00  0.00     0.088 H 
BRANCH   5  13
ATOM     13  O22 6CE d   1     -28.702   7.526 -26.252  0.00  0.00    -0.390 OA
ATOM     14  H15 6CE d   1     -27.863   7.625 -26.685  0.00  0.00     0.210 HD
ENDBRANCH   5  13
BRANCH   6  15
ATOM     15  O23 6CE d   1     -29.276   8.169 -28.847  0.00  0.00    -0.388 OA
ATOM     16  H16 6CE d   1     -28.365   8.297 -28.611  0.00  0.00     0.210 HD
ENDBRANCH   6  15
BRANCH   8  17
ATOM     17  N11 6CE d   1     -29.378   5.435 -30.435  0.00  0.00    -0.295 N 
ATOM     18  C12 6CE d   1     -30.664   5.225 -30.768  0.00  0.00     0.071 A 
ATOM     19  N13 6CE d   1     -30.754   4.927 -32.087  0.00  0.00    -0.234 NA
ATOM     20  H10 6CE d   1     -31.507   5.285 -30.081  0.00  0.00     0.144 H 
ATOM     21  C14 6CE d   1     -29.499   4.935 -32.587  0.00  0.00     0.171 A 
ATOM     22  C15 6CE d   1     -28.598   5.264 -31.485  0.00  0.00     0.161 A 
ATOM     23  C19 6CE d   1     -28.868   4.699 -33.898  0.00  0.00     0.292 A 
ATOM     24  N16 6CE d   1     -27.261   5.353 -31.667  0.00  0.00    -0.174 N 
ATOM     25  C17 6CE d   1     -26.775   5.115 -32.905  0.00  0.00     0.680 A 
ATOM     26  H11 6CE d   1     -26.633   5.595 -30.887  0.00  0.00     0.186 HD
ATOM     27  N18 6CE d   1     -27.537   4.813 -33.978  0.00  0.00    -0.154 N 
ATOM     28  H12 6CE d   1     -27.092   4.670 -34.862  0.00  0.00     0.187 HD
ATOM     29  O21 6CE d   1     -29.551   4.428 -34.919  0.00  0.00    -0.265 OA
BRANCH  25  30
ATOM     30  N20 6CE d   1     -25.327   5.203 -33.090  0.00  0.00    -0.234 N 
ATOM     31  H13 6CE d   1     -24.719   5.431 -32.291  0.00  0.00     0.174 HD
ATOM     32  H14 6CE d   1     -24.916   5.036 -34.019  0.00  0.00     0.174 HD
ENDBRANCH  25  30
ENDBRANCH   8  17
ENDBRANCH   1   4
BRANCH   1  33
ATOM     33  S4  6CE d   1     -30.927   3.840 -25.947  0.00  0.00    -0.047 SA
BRANCH  33  34
ATOM     34  P1  6CE d   1     -31.501   3.865 -23.958  0.00  0.00     0.270 P 
ATOM     35  O2  6CE d   1     -30.294   3.802 -23.049  0.00  0.00    -0.644 OA
ATOM     36  O3  6CE d   1     -32.524   2.767 -23.802  0.00  0.00    -0.644 OA
BRANCH  34  37
ATOM     37  NE2 6CE d   1     -32.318   5.376 -23.723  0.00  0.00    -0.340 N 
ATOM     38  H7  6CE d   1     -33.317   5.398 -23.748  0.00  0.00     0.164 HD
BRANCH  37  39
ATOM     39  C1  6CE d   1     -31.589   6.613 -23.490  0.00  0.00     0.001 C 
ATOM     40  H17 6CE d   1     -31.607   6.833 -22.412  0.00  0.00     0.064 H 
ATOM     41  H18 6CE d   1     -30.549   6.475 -23.819  0.00  0.00     0.064 H 
BRANCH  39  42
ATOM     42  C2  6CE d   1     -32.184   7.803 -24.241  0.00  0.00    -0.024 C 
ATOM     43  H5  6CE d   1     -32.194   7.569 -25.316  0.00  0.00     0.042 H 
ATOM     44  H6  6CE d   1     -31.548   8.683 -24.063  0.00  0.00     0.042 H 
BRANCH  42  45
ATOM     45  C3  6CE d   1     -33.598   8.133 -23.806  0.00  0.00    -0.029 A 
ATOM     46  C4  6CE d   1     -34.079   8.592 -22.481  0.00  0.00    -0.002 A 
ATOM     47  C22 6CE d   1     -35.536   8.783 -22.621  0.00  0.00     0.042 A 
ATOM     48  C24 6CE d   1     -33.439   8.826 -21.276  0.00  0.00    -0.070 A 
ATOM     49  N23 6CE d   1     -35.851   8.476 -23.891  0.00  0.00    -0.365 N 
ATOM     50  C27 6CE d   1     -36.261   9.210 -21.515  0.00  0.00    -0.056 A 
ATOM     51  C13 6CE d   1     -34.744   8.104 -24.600  0.00  0.00    -0.015 A 
ATOM     52  H20 6CE d   1     -36.804   8.516 -24.280  0.00  0.00     0.165 HD
ATOM     53  H19 6CE d   1     -34.755   7.821 -25.651  0.00  0.00     0.112 H 
ATOM     54  C26 6CE d   1     -35.591   9.441 -20.315  0.00  0.00    -0.081 A 
ATOM     55  H24 6CE d   1     -37.332   9.361 -21.585  0.00  0.00     0.086 H 
ATOM     56  C25 6CE d   1     -34.212   9.257 -20.200  0.00  0.00    -0.082 A 
ATOM     57  H23 6CE d   1     -36.154   9.772 -19.450  0.00  0.00     0.083 H 
ATOM     58  H22 6CE d   1     -33.730   9.454 -19.249  0.00  0.00     0.083 H 
ATOM     59  H21 6CE d   1     -32.370   8.678 -21.173  0.00  0.00     0.084 H 
ENDBRANCH  42  45
ENDBRANCH  39  42
ENDBRANCH  37  39
ENDBRANCH  34  37
ENDBRANCH  33  34
ENDBRANCH   1  33
TORSDOF 11
