REMARK  7 active torsions:
REMARK  status: ('A' for Active; 'I' for Inactive)
REMARK    1  A    between atoms: C01_1  and  C02_2 
REMARK    2  A    between atoms: N18_18  and  C19_19 
REMARK    3  A    between atoms: C20_20  and  N21_21 
REMARK    4  A    between atoms: N21_21  and  C22_22 
REMARK    5  A    between atoms: C22_22  and  C23_23 
REMARK    6  A    between atoms: C22_22  and  C24_24 
REMARK    7  A    between atoms: C22_22  and  C25_25 
ROOT
ATOM      1  C02 6CD d   1     -21.512 -31.273  -1.422  0.00  0.00     0.050 A 
ATOM      2  N03 6CD d   1     -21.275 -30.277  -0.418  0.00  0.00    -0.347 N 
ATOM      3  C04 6CD d   1     -21.463 -30.878   0.867  0.00  0.00     0.254 A 
ATOM      4  O05 6CD d   1     -21.327 -30.307   1.958  0.00  0.00    -0.268 OA
ATOM      5  C06 6CD d   1     -21.838 -32.318   0.655  0.00  0.00     0.058 A 
ATOM      6  C07 6CD d   1     -22.175 -33.535   1.301  0.00  0.00    -0.039 A 
ATOM      7  C08 6CD d   1     -22.400 -34.500   0.294  0.00  0.00     0.046 A 
ATOM      8  N09 6CD d   1     -22.214 -33.869  -0.903  0.00  0.00    -0.356 N 
ATOM      9  C10 6CD d   1     -21.865 -32.552  -0.708  0.00  0.00     0.048 A 
ATOM     10  C11 6CD d   1     -22.782 -35.823   0.594  0.00  0.00     0.019 A 
ATOM     11  C12 6CD d   1     -23.010 -36.368   1.865  0.00  0.00    -0.069 A 
ATOM     12  C13 6CD d   1     -23.418 -37.706   1.942  0.00  0.00    -0.081 A 
ATOM     13  C14 6CD d   1     -23.597 -38.457   0.764  0.00  0.00    -0.065 A 
ATOM     14  C15 6CD d   1     -23.369 -37.870  -0.559  0.00  0.00     0.061 A 
ATOM     15  C16 6CD d   1     -23.572 -38.679  -1.757  0.00  0.00     0.274 A 
ATOM     16  O17 6CD d   1     -23.925 -39.837  -1.644  0.00  0.00    -0.267 OA
ATOM     17  N18 6CD d   1     -23.370 -38.136  -3.030  0.00  0.00    -0.151 N 
ATOM     18  C20 6CD d   1     -22.983 -36.851  -3.133  0.00  0.00     0.684 A 
ATOM     19  N26 6CD d   1     -22.778 -36.064  -1.997  0.00  0.00    -0.190 N 
ATOM     20  C27 6CD d   1     -22.970 -36.563  -0.680  0.00  0.00     0.077 A 
ATOM     21  H4  6CD d   1     -20.581 -31.440  -1.983  0.00  0.00     0.082 H 
ATOM     22  H5  6CD d   1     -21.021 -29.325  -0.587  0.00  0.00     0.163 HD
ATOM     23  H6  6CD d   1     -22.247 -33.696   2.376  0.00  0.00     0.088 H 
ATOM     24  H7  6CD d   1     -22.320 -34.317  -1.824  0.00  0.00     0.166 HD
ATOM     25  H8  6CD d   1     -22.875 -35.773   2.761  0.00  0.00     0.085 H 
ATOM     26  H9  6CD d   1     -23.596 -38.163   2.909  0.00  0.00     0.083 H 
ATOM     27  H10 6CD d   1     -23.910 -39.492   0.838  0.00  0.00     0.085 H 
ATOM     28  H24 6CD d   1     -22.477 -35.087  -2.118  0.00  0.00     0.184 HD
ENDROOT
BRANCH  18  29
ATOM     29  N21 6CD d   1     -22.756 -36.282  -4.460  0.00  0.00    -0.218 N 
ATOM     30  H14 6CD d   1     -22.811 -36.927  -5.261  0.00  0.00     0.178 HD
BRANCH  29  31
ATOM     31  C22 6CD d   1     -22.461 -34.897  -4.752  0.00  0.00     0.036 C 
BRANCH  31  32
ATOM     32  C23 6CD d   1     -21.081 -34.537  -4.191  0.00  0.00    -0.053 C 
ATOM     33  H15 6CD d   1     -20.858 -33.483  -4.414  0.00  0.00     0.030 H 
ATOM     34  H16 6CD d   1     -20.318 -35.179  -4.655  0.00  0.00     0.030 H 
ATOM     35  H17 6CD d   1     -21.077 -34.690  -3.102  0.00  0.00     0.030 H 
ENDBRANCH  31  32
BRANCH  31  36
ATOM     36  C24 6CD d   1     -23.548 -33.985  -4.219  0.00  0.00    -0.053 C 
ATOM     37  H18 6CD d   1     -23.298 -32.940  -4.455  0.00  0.00     0.030 H 
ATOM     38  H19 6CD d   1     -23.626 -34.106  -3.128  0.00  0.00     0.030 H 
ATOM     39  H20 6CD d   1     -24.508 -34.247  -4.687  0.00  0.00     0.030 H 
ENDBRANCH  31  36
BRANCH  31  40
ATOM     40  C25 6CD d   1     -22.423 -34.761  -6.265  0.00  0.00    -0.053 C 
ATOM     41  H21 6CD d   1     -22.201 -33.718  -6.534  0.00  0.00     0.030 H 
ATOM     42  H22 6CD d   1     -23.399 -35.047  -6.684  0.00  0.00     0.030 H 
ATOM     43  H23 6CD d   1     -21.642 -35.419  -6.673  0.00  0.00     0.030 H 
ENDBRANCH  31  40
ENDBRANCH  29  31
ENDBRANCH  18  29
BRANCH   1  44
ATOM     44  C01 6CD d   1     -22.571 -30.801  -2.421  0.00  0.00    -0.052 C 
ATOM     45  H1  6CD d   1     -22.734 -31.581  -3.179  0.00  0.00     0.030 H 
ATOM     46  H2  6CD d   1     -22.227 -29.879  -2.912  0.00  0.00     0.030 H 
ATOM     47  H3  6CD d   1     -23.514 -30.603  -1.890  0.00  0.00     0.030 H 
ENDBRANCH   1  44
BRANCH  17  48
ATOM     48  C19 6CD d   1     -23.586 -38.984  -4.223  0.00  0.00     0.006 C 
ATOM     49  H11 6CD d   1     -23.896 -39.990  -3.906  0.00  0.00     0.058 H 
ATOM     50  H12 6CD d   1     -22.651 -39.053  -4.798  0.00  0.00     0.058 H 
ATOM     51  H13 6CD d   1     -24.371 -38.539  -4.852  0.00  0.00     0.058 H 
ENDBRANCH  17  48
TORSDOF 7
