REMARK WARNING: 32 MAX_TORS EXCEEDED!!!
REMARK  40 active torsions:
REMARK  status: ('A' for Active; 'I' for Inactive)
REMARK    1  A    between atoms: N_1  and  CA_2 
REMARK    2  A    between atoms: CA_2  and  C_3 
REMARK       I    between atoms: C_3  and  N_5 
REMARK    3  A    between atoms: N_5  and  CA_6 
REMARK    4  A    between atoms: CA_6  and  C_7 
REMARK    5  A    between atoms: CA_6  and  CB_9 
REMARK       I    between atoms: C_7  and  N_13 
REMARK    6  A    between atoms: CB_9  and  CG1_10 
REMARK    7  A    between atoms: CB_9  and  CG2_11 
REMARK    8  A    between atoms: CG1_10  and  CD1_12 
REMARK    9  A    between atoms: N_13  and  CA_14 
REMARK   10  A    between atoms: CA_14  and  C_15 
REMARK   11  A    between atoms: CA_14  and  CB_17 
REMARK       I    between atoms: C_15  and  N_21 
REMARK   12  A    between atoms: CB_17  and  CG_18 
REMARK   13  A    between atoms: CG_18  and  CD1_19 
REMARK   14  A    between atoms: CG_18  and  CD2_20 
REMARK   15  A    between atoms: N_21  and  CA_22 
REMARK   16  A    between atoms: CA_22  and  C_23 
REMARK       I    between atoms: C_23  and  N_25 
REMARK   17  A    between atoms: N_25  and  CA_26 
REMARK   18  A    between atoms: CA_26  and  C_27 
REMARK   19  A    between atoms: CA_26  and  CB_29 
REMARK       I    between atoms: C_27  and  N_36 
REMARK   20  A    between atoms: CB_29  and  CG_30 
REMARK   21  A    between atoms: N_36  and  CA_37 
REMARK   22  A    between atoms: CA_37  and  C_38 
REMARK   23  A    between atoms: CA_37  and  CB_40 
REMARK       I    between atoms: C_38  and  N_43 
REMARK   24  A    between atoms: CB_40  and  CG1_41 
REMARK   25  A    between atoms: CB_40  and  CG2_42 
REMARK   26  A    between atoms: N_43  and  CA_44 
REMARK   27  A    between atoms: CA_44  and  C_45 
REMARK   28  A    between atoms: CA_44  and  CB_47 
REMARK       I    between atoms: C_45  and  N_54 
REMARK   29  A    between atoms: CB_47  and  CG_48 
REMARK   30  A    between atoms: N_54  and  CA_55 
REMARK   31  A    between atoms: CA_55  and  C_56 
REMARK   32  A    between atoms: CA_55  and  CB_58 
REMARK       I    between atoms: C_56  and  N_61 
REMARK   33  A    between atoms: CB_58  and  OG1_59 
REMARK   34  A    between atoms: CB_58  and  CG2_60 
REMARK   35  A    between atoms: N_61  and  CA_62 
REMARK   36  A    between atoms: CA_62  and  C_63 
REMARK   37  A    between atoms: CA_62  and  CB_65 
REMARK   38  A    between atoms: CB_65  and  CG_66 
REMARK   39  A    between atoms: CG_66  and  CD1_67 
REMARK   40  A    between atoms: CG_66  and  CD2_68 
ROOT
ATOM      1  CA  PHE d   1      41.240 -37.680  59.672  0.00  0.00     0.093 C 
ATOM      2  H32 PHE d   1      41.005 -36.879  60.388  0.00  0.00     0.088 H 
ENDROOT
BRANCH   1   3
ATOM      3  N   PHE d   1      40.380 -37.516  58.508  0.00  0.00    -0.346 N 
ATOM      4  C   GLY d   1      39.336 -36.691  58.512  0.00  0.00     0.236 C 
ATOM      5  O   GLY d   1      38.971 -36.106  59.540  0.00  0.00    -0.272 OA
ATOM      6  H31 PHE d   1      40.580 -38.040  57.680  0.00  0.00     0.163 HD
BRANCH   4   7
ATOM      7  CA  GLY d   1      38.565 -36.486  57.222  0.00  0.00     0.069 C 
ATOM      8  H29 GLY d   1      37.528 -36.810  57.395  0.00  0.00     0.078 H 
ATOM      9  H30 GLY d   1      38.579 -35.411  56.989  0.00  0.00     0.078 H 
BRANCH   7  10
ATOM     10  N   GLY d   1      39.063 -37.197  56.061  0.00  0.00    -0.351 N 
ATOM     11  C   LEU d   1      39.944 -36.660  55.221  0.00  0.00     0.240 C 
ATOM     12  O   LEU d   1      40.350 -35.498  55.326  0.00  0.00    -0.271 OA
ATOM     13  H28 GLY d   1      38.733 -38.124  55.885  0.00  0.00     0.163 HD
BRANCH  11  14
ATOM     14  CA  LEU d   1      40.438 -37.572  54.106  0.00  0.00     0.089 C 
ATOM     15  H18 LEU d   1      39.707 -38.381  53.962  0.00  0.00     0.087 H 
BRANCH  14  16
ATOM     16  N   LEU d   1      40.567 -36.838  52.851  0.00  0.00    -0.346 N 
ATOM     17  C   ILE d   1      39.508 -36.276  52.273  0.00  0.00     0.241 C 
ATOM     18  O   ILE d   1      38.370 -36.354  52.751  0.00  0.00    -0.271 OA
ATOM     19  H17 LEU d   1      41.465 -36.756  52.419  0.00  0.00     0.163 HD
BRANCH  17  20
ATOM     20  CA  ILE d   1      39.769 -35.500  50.986  0.00  0.00     0.092 C 
ATOM     21  H7  ILE d   1      40.264 -36.176  50.274  0.00  0.00     0.088 H 
BRANCH  20  22
ATOM     22  N   ILE d   1      38.517 -35.047  50.388  0.00  0.00    -0.346 N 
ATOM     23  C   GLY d   1      37.813 -35.808  49.550  0.00  0.00     0.243 C 
ATOM     24  O   GLY d   1      38.085 -36.986  49.320  0.00  0.00    -0.272 OA
ATOM     25  H6  ILE d   1      38.176 -34.135  50.615  0.00  0.00     0.163 HD
BRANCH  23  26
ATOM     26  CA  GLY d   1      36.623 -35.147  48.882  0.00  0.00     0.152 C 
ATOM     27  H4  GLY d   1      35.717 -35.388  49.457  0.00  0.00     0.090 H 
ATOM     28  H5  GLY d   1      36.778 -34.058  48.881  0.00  0.00     0.090 H 
BRANCH  26  29
ATOM     29  N   GLY d   1      36.433 -35.607  47.468  0.00  0.00    -0.071 N 
ATOM     30  H1  GLY d   1      35.633 -35.142  47.068  0.00  0.00     0.274 HD
ATOM     31  H2  GLY d   1      36.282 -36.604  47.456  0.00  0.00     0.274 HD
ATOM     32  H3  GLY d   1      37.255 -35.385  46.929  0.00  0.00     0.274 HD
ENDBRANCH  26  29
ENDBRANCH  23  26
ENDBRANCH  20  22
BRANCH  20  33
ATOM     33  CB  ILE d   1      40.705 -34.304  51.243  0.00  0.00    -0.030 C 
ATOM     34  H8  ILE d   1      41.646 -34.688  51.663  0.00  0.00     0.043 H 
BRANCH  33  35
ATOM     35  CG1 ILE d   1      40.096 -33.318  52.246  0.00  0.00    -0.063 C 
ATOM     36  H9  ILE d   1      39.842 -33.870  53.163  0.00  0.00     0.033 H 
ATOM     37  H10 ILE d   1      39.180 -32.897  51.805  0.00  0.00     0.033 H 
BRANCH  35  38
ATOM     38  CD1 ILE d   1      41.036 -32.150  52.625  0.00  0.00    -0.076 C 
ATOM     39  H14 ILE d   1      40.529 -31.490  53.345  0.00  0.00     0.027 H 
ATOM     40  H15 ILE d   1      41.293 -31.578  51.721  0.00  0.00     0.027 H 
ATOM     41  H16 ILE d   1      41.954 -32.551  53.079  0.00  0.00     0.027 H 
ENDBRANCH  35  38
ENDBRANCH  33  35
BRANCH  33  42
ATOM     42  CG2 ILE d   1      41.016 -33.580  49.934  0.00  0.00    -0.071 C 
ATOM     43  H11 ILE d   1      41.453 -34.291  49.217  0.00  0.00     0.028 H 
ATOM     44  H12 ILE d   1      41.731 -32.767  50.126  0.00  0.00     0.028 H 
ATOM     45  H13 ILE d   1      40.088 -33.162  49.517  0.00  0.00     0.028 H 
ENDBRANCH  33  42
ENDBRANCH  20  33
ENDBRANCH  17  20
ENDBRANCH  14  16
BRANCH  14  46
ATOM     46  CB  LEU d   1      41.777 -38.187  54.511  0.00  0.00    -0.035 C 
ATOM     47  H19 LEU d   1      41.760 -38.337  55.601  0.00  0.00     0.037 H 
ATOM     48  H20 LEU d   1      42.567 -37.467  54.252  0.00  0.00     0.037 H 
BRANCH  46  49
ATOM     49  CG  LEU d   1      42.138 -39.523  53.865  0.00  0.00    -0.059 C 
ATOM     50  H21 LEU d   1      41.819 -39.513  52.812  0.00  0.00     0.038 H 
BRANCH  49  51
ATOM     51  CD1 LEU d   1      43.633 -39.697  53.928  0.00  0.00    -0.073 C 
ATOM     52  H22 LEU d   1      43.910 -40.656  53.466  0.00  0.00     0.028 H 
ATOM     53  H23 LEU d   1      43.959 -39.688  54.978  0.00  0.00     0.028 H 
ATOM     54  H24 LEU d   1      44.121 -38.874  53.385  0.00  0.00     0.028 H 
ENDBRANCH  49  51
BRANCH  49  55
ATOM     55  CD2 LEU d   1      41.438 -40.673  54.578  0.00  0.00    -0.073 C 
ATOM     56  H25 LEU d   1      40.349 -40.530  54.522  0.00  0.00     0.028 H 
ATOM     57  H26 LEU d   1      41.751 -40.696  55.632  0.00  0.00     0.028 H 
ATOM     58  H27 LEU d   1      41.708 -41.623  54.094  0.00  0.00     0.028 H 
ENDBRANCH  49  55
ENDBRANCH  46  49
ENDBRANCH  14  46
ENDBRANCH  11  14
ENDBRANCH   7  10
ENDBRANCH   4   7
ENDBRANCH   1   3
BRANCH   1  59
ATOM     59  C   PHE d   1      42.689 -37.541  59.244  0.00  0.00     0.241 C 
ATOM     60  O   PHE d   1      43.030 -37.740  58.076  0.00  0.00    -0.271 OA
ATOM     61  N   VAL d   1      43.542 -37.197  60.216  0.00  0.00    -0.346 N 
ATOM     62  H40 VAL d   1      43.198 -37.135  61.153  0.00  0.00     0.163 HD
BRANCH  61  63
ATOM     63  CA  VAL d   1      44.950 -36.909  59.972  0.00  0.00     0.092 C 
ATOM     64  H41 VAL d   1      45.221 -37.309  58.984  0.00  0.00     0.088 H 
BRANCH  63  65
ATOM     65  C   VAL d   1      45.796 -37.609  61.028  0.00  0.00     0.241 C 
ATOM     66  O   VAL d   1      45.350 -37.834  62.158  0.00  0.00    -0.271 OA
ATOM     67  N   PHE d   1      47.025 -37.962  60.643  0.00  0.00    -0.346 N 
ATOM     68  H49 PHE d   1      47.324 -37.717  59.721  0.00  0.00     0.163 HD
BRANCH  67  69
ATOM     69  CA  PHE d   1      47.952 -38.687  61.503  0.00  0.00     0.093 C 
ATOM     70  H50 PHE d   1      47.739 -38.427  62.550  0.00  0.00     0.088 H 
BRANCH  69  71
ATOM     71  C   PHE d   1      49.383 -38.275  61.175  0.00  0.00     0.241 C 
ATOM     72  O   PHE d   1      49.734 -38.093  60.007  0.00  0.00    -0.271 OA
ATOM     73  N   THR d   1      50.209 -38.144  62.207  0.00  0.00    -0.344 N 
ATOM     74  H58 THR d   1      49.891 -38.400  63.120  0.00  0.00     0.163 HD
BRANCH  73  75
ATOM     75  CA  THR d   1      51.566 -37.638  62.045  0.00  0.00     0.113 C 
ATOM     76  H59 THR d   1      51.569 -36.922  61.210  0.00  0.00     0.091 H 
BRANCH  75  77
ATOM     77  C   THR d   1      52.550 -38.763  61.715  0.00  0.00     0.243 C 
ATOM     78  O   THR d   1      52.360 -39.916  62.116  0.00  0.00    -0.271 OA
ATOM     79  N   LEU d   1      53.607 -38.410  60.976  0.00  0.00    -0.345 N 
ATOM     80  H65 LEU d   1      53.634 -37.487  60.593  0.00  0.00     0.163 HD
BRANCH  79  81
ATOM     81  CA  LEU d   1      54.732 -39.317  60.700  0.00  0.00     0.096 C 
ATOM     82  H66 LEU d   1      54.318 -40.258  60.309  0.00  0.00     0.089 H 
BRANCH  81  83
ATOM     83  C   LEU d   1      55.548 -39.625  61.959  0.00  0.00     0.196 C 
ATOM     84  O   LEU d   1      55.434 -38.934  62.967  0.00  0.00    -0.646 OA
ATOM     85  OXT LEU d   1      56.363 -40.550  61.980  0.00  0.00    -0.646 OA
ENDBRANCH  81  83
BRANCH  81  86
ATOM     86  CB  LEU d   1      55.697 -38.729  59.655  0.00  0.00    -0.034 C 
ATOM     87  H67 LEU d   1      56.456 -39.500  59.458  0.00  0.00     0.037 H 
ATOM     88  H68 LEU d   1      56.174 -37.856  60.123  0.00  0.00     0.037 H 
BRANCH  86  89
ATOM     89  CG  LEU d   1      55.181 -38.269  58.299  0.00  0.00    -0.059 C 
ATOM     90  H69 LEU d   1      54.692 -37.292  58.424  0.00  0.00     0.038 H 
BRANCH  89  91
ATOM     91  CD1 LEU d   1      56.327 -38.113  57.327  0.00  0.00    -0.073 C 
ATOM     92  H70 LEU d   1      55.939 -37.781  56.353  0.00  0.00     0.028 H 
ATOM     93  H71 LEU d   1      56.840 -39.079  57.207  0.00  0.00     0.028 H 
ATOM     94  H72 LEU d   1      57.036 -37.366  57.713  0.00  0.00     0.028 H 
ENDBRANCH  89  91
BRANCH  89  95
ATOM     95  CD2 LEU d   1      54.177 -39.238  57.763  0.00  0.00    -0.073 C 
ATOM     96  H73 LEU d   1      53.349 -39.342  58.480  0.00  0.00     0.028 H 
ATOM     97  H74 LEU d   1      54.656 -40.217  57.612  0.00  0.00     0.028 H 
ATOM     98  H75 LEU d   1      53.787 -38.868  56.803  0.00  0.00     0.028 H 
ENDBRANCH  89  95
ENDBRANCH  86  89
ENDBRANCH  81  86
ENDBRANCH  79  81
ENDBRANCH  75  77
BRANCH  75  99
ATOM     99  CB  THR d   1      52.008 -36.904  63.316  0.00  0.00     0.060 C 
ATOM    100  H60 THR d   1      53.096 -36.745  63.277  0.00  0.00     0.086 H 
BRANCH  99 101
ATOM    101  OG1 THR d   1      51.686 -37.690  64.474  0.00  0.00    -0.393 OA
ATOM    102  H61 THR d   1      50.748 -37.835  64.506  0.00  0.00     0.210 HD
ENDBRANCH  99 101
BRANCH  99 103
ATOM    103  CG2 THR d   1      51.307 -35.551  63.418  0.00  0.00    -0.050 C 
ATOM    104  H62 THR d   1      51.634 -35.037  64.334  0.00  0.00     0.031 H 
ATOM    105  H63 THR d   1      50.218 -35.704  63.452  0.00  0.00     0.031 H 
ATOM    106  H64 THR d   1      51.564 -34.938  62.542  0.00  0.00     0.031 H 
ENDBRANCH  99 103
ENDBRANCH  75  99
ENDBRANCH  73  75
ENDBRANCH  69  71
BRANCH  69 107
ATOM    107  CB  PHE d   1      47.781 -40.200  61.330  0.00  0.00    -0.014 C 
ATOM    108  H51 PHE d   1      46.893 -40.517  61.897  0.00  0.00     0.043 H 
ATOM    109  H52 PHE d   1      48.673 -40.699  61.736  0.00  0.00     0.043 H 
BRANCH 107 110
ATOM    110  CG  PHE d   1      47.607 -40.630  59.888  0.00  0.00    -0.056 A 
ATOM    111  CD1 PHE d   1      48.703 -40.889  59.087  0.00  0.00    -0.077 A 
ATOM    112  CE1 PHE d   1      48.539 -41.294  57.759  0.00  0.00    -0.082 A 
ATOM    113  H53 PHE d   1      49.702 -40.777  59.493  0.00  0.00     0.084 H 
ATOM    114  CZ  PHE d   1      47.266 -41.429  57.232  0.00  0.00    -0.083 A 
ATOM    115  H55 PHE d   1      49.407 -41.502  57.143  0.00  0.00     0.083 H 
ATOM    116  CE2 PHE d   1      46.167 -41.170  58.027  0.00  0.00    -0.082 A 
ATOM    117  H57 PHE d   1      47.133 -41.736  56.201  0.00  0.00     0.083 H 
ATOM    118  CD2 PHE d   1      46.342 -40.777  59.348  0.00  0.00    -0.077 A 
ATOM    119  H56 PHE d   1      45.167 -41.273  57.620  0.00  0.00     0.083 H 
ATOM    120  H54 PHE d   1      45.473 -40.582  59.966  0.00  0.00     0.084 H 
ENDBRANCH 107 110
ENDBRANCH  69 107
ENDBRANCH  67  69
ENDBRANCH  63  65
BRANCH  63 121
ATOM    121  CB  VAL d   1      45.224 -35.389  59.968  0.00  0.00    -0.033 C 
ATOM    122  H42 VAL d   1      46.302 -35.230  59.819  0.00  0.00     0.042 H 
BRANCH 121 123
ATOM    123  CG1 VAL d   1      44.466 -34.723  58.807  0.00  0.00    -0.071 C 
ATOM    124  H43 VAL d   1      44.666 -33.641  58.811  0.00  0.00     0.028 H 
ATOM    125  H44 VAL d   1      43.386 -34.897  58.926  0.00  0.00     0.028 H 
ATOM    126  H45 VAL d   1      44.803 -35.155  57.853  0.00  0.00     0.028 H 
ENDBRANCH 121 123
BRANCH 121 127
ATOM    127  CG2 VAL d   1      44.824 -34.757  61.298  0.00  0.00    -0.071 C 
ATOM    128  H46 VAL d   1      45.375 -35.245  62.116  0.00  0.00     0.028 H 
ATOM    129  H47 VAL d   1      43.743 -34.887  61.455  0.00  0.00     0.028 H 
ATOM    130  H48 VAL d   1      45.066 -33.684  61.282  0.00  0.00     0.028 H 
ENDBRANCH 121 127
ENDBRANCH  63 121
ENDBRANCH  61  63
ENDBRANCH   1  59
BRANCH   1 131
ATOM    131  CB  PHE d   1      41.031 -39.028  60.380  0.00  0.00    -0.014 C 
ATOM    132  H33 PHE d   1      40.035 -39.019  60.848  0.00  0.00     0.043 H 
ATOM    133  H34 PHE d   1      41.801 -39.130  61.159  0.00  0.00     0.043 H 
BRANCH 131 134
ATOM    134  CG  PHE d   1      41.116 -40.243  59.466  0.00  0.00    -0.056 A 
ATOM    135  CD1 PHE d   1      39.974 -40.777  58.891  0.00  0.00    -0.077 A 
ATOM    136  CE1 PHE d   1      40.036 -41.899  58.075  0.00  0.00    -0.082 A 
ATOM    137  H35 PHE d   1      39.014 -40.310  59.082  0.00  0.00     0.084 H 
ATOM    138  CZ  PHE d   1      41.249 -42.502  57.828  0.00  0.00    -0.083 A 
ATOM    139  H37 PHE d   1      39.131 -42.300  57.633  0.00  0.00     0.083 H 
ATOM    140  CE2 PHE d   1      42.398 -41.990  58.402  0.00  0.00    -0.082 A 
ATOM    141  H39 PHE d   1      41.303 -43.374  57.187  0.00  0.00     0.083 H 
ATOM    142  CD2 PHE d   1      42.328 -40.868  59.223  0.00  0.00    -0.077 A 
ATOM    143  H38 PHE d   1      43.355 -42.463  58.212  0.00  0.00     0.083 H 
ATOM    144  H36 PHE d   1      43.232 -40.479  59.677  0.00  0.00     0.084 H 
ENDBRANCH 131 134
ENDBRANCH   1 131
TORSDOF 40
