REMARK  9 active torsions:
REMARK  status: ('A' for Active; 'I' for Inactive)
REMARK    1  A    between atoms: C_2  and  CA_3 
REMARK    2  A    between atoms: CA_3  and  CB_4 
REMARK    3  A    between atoms: CA_3  and  N_5 
REMARK    4  A    between atoms: N_5  and  CAI_6 
REMARK    5  A    between atoms: CAI_6  and  CAE_7 
REMARK    6  A    between atoms: CAI_6  and  CAK_10 
REMARK    7  A    between atoms: CAK_10  and  CAL_11 
REMARK    8  A    between atoms: CAL_11  and  CAM_12 
REMARK    9  A    between atoms: CAM_12  and  NAN_13 
REMARK       I    between atoms: NAN_13  and  CAP_14 
REMARK       I    between atoms: CAP_14  and  NAO_15 
ROOT
ATOM      1  CAK 6DB d   1     -14.444  79.384   2.535  0.00  0.00    -0.027 C 
ATOM      2  H8  6DB d   1     -14.499  80.467   2.349  0.00  0.00     0.036 H 
ATOM      3  H9  6DB d   1     -13.483  79.143   3.013  0.00  0.00     0.036 H 
ENDROOT
BRANCH   1   4
ATOM      4  CAI 6DB d   1     -14.516  78.647   1.176  0.00  0.00     0.185 C 
ATOM      5  H7  6DB d   1     -13.650  78.965   0.577  0.00  0.00     0.101 H 
BRANCH   4   6
ATOM      6  N   6DB d   1     -15.707  78.919   0.377  0.00  0.00    -0.047 N 
ATOM      7  H5  6DB d   1     -15.550  78.529  -0.539  0.00  0.00     0.279 HD
ATOM      8  H6  6DB d   1     -16.479  78.443   0.817  0.00  0.00     0.279 HD
BRANCH   6   9
ATOM      9  CA  6DB d   1     -16.103  80.318   0.194  0.00  0.00     0.182 C 
ATOM     10  H1  6DB d   1     -16.378  80.717   1.182  0.00  0.00     0.101 H 
BRANCH   9  11
ATOM     11  C   6DB d   1     -14.973  81.190  -0.357  0.00  0.00     0.204 C 
ATOM     12  O   6DB d   1     -14.089  80.644  -1.048  0.00  0.00    -0.646 OA
ATOM     13  OXT 6DB d   1     -14.924  82.421  -0.114  0.00  0.00    -0.646 OA
ENDBRANCH   9  11
BRANCH   9  14
ATOM     14  CB  6DB d   1     -17.300  80.403  -0.687  0.00  0.00    -0.040 C 
ATOM     15  H2  6DB d   1     -18.102  79.771  -0.278  0.00  0.00     0.031 H 
ATOM     16  H3  6DB d   1     -17.038  80.054  -1.697  0.00  0.00     0.031 H 
ATOM     17  H4  6DB d   1     -17.645  81.446  -0.738  0.00  0.00     0.031 H 
ENDBRANCH   9  14
ENDBRANCH   6   9
ENDBRANCH   4   6
BRANCH   4  18
ATOM     18  CAE 6DB d   1     -14.384  77.171   1.466  0.00  0.00     0.204 C 
ATOM     19  OAB 6DB d   1     -15.287  76.369   1.118  0.00  0.00    -0.646 OA
ATOM     20  OAF 6DB d   1     -13.367  76.753   2.087  0.00  0.00    -0.646 OA
ENDBRANCH   4  18
ENDBRANCH   1   4
BRANCH   1  21
ATOM     21  CAL 6DB d   1     -15.565  79.000   3.485  0.00  0.00    -0.047 C 
ATOM     22  H10 6DB d   1     -15.520  77.911   3.633  0.00  0.00     0.035 H 
ATOM     23  H11 6DB d   1     -16.518  79.266   3.004  0.00  0.00     0.035 H 
BRANCH  21  24
ATOM     24  CAM 6DB d   1     -15.540  79.660   4.866  0.00  0.00     0.009 C 
ATOM     25  H12 6DB d   1     -15.232  80.712   4.769  0.00  0.00     0.064 H 
ATOM     26  H13 6DB d   1     -14.831  79.129   5.518  0.00  0.00     0.064 H 
BRANCH  24  27
ATOM     27  NAN 6DB d   1     -16.906  79.590   5.449  0.00  0.00    -0.227 N 
ATOM     28  CAP 6DB d   1     -17.339  80.313   6.604  0.00  0.00     0.665 C 
ATOM     29  NAO 6DB d   1     -18.574  80.192   7.029  0.00  0.00    -0.235 N 
ATOM     30  NAQ 6DB d   1     -16.460  81.011   7.238  0.00  0.00    -0.235 N 
ATOM     31  H15 6DB d   1     -18.886  80.713   7.861  0.00  0.00     0.174 HD
ATOM     32  H16 6DB d   1     -19.232  79.576   6.531  0.00  0.00     0.174 HD
ATOM     33  H17 6DB d   1     -15.499  81.083   6.874  0.00  0.00     0.174 HD
ATOM     34  H18 6DB d   1     -16.718  81.497   8.109  0.00  0.00     0.174 HD
ATOM     35  H14 6DB d   1     -17.591  78.975   4.987  0.00  0.00     0.177 HD
ENDBRANCH  24  27
ENDBRANCH  21  24
ENDBRANCH   1  21
TORSDOF 9
