REMARK  6 active torsions:
REMARK  status: ('A' for Active; 'I' for Inactive)
REMARK    1  A    between atoms: C10_1  and  C08_15 
REMARK    2  A    between atoms: C20_3  and  C21_4 
REMARK    3  A    between atoms: C19_24  and  C20_3 
REMARK    4  A    between atoms: C04_11  and  C02_9 
REMARK    5  A    between atoms: C16_21  and  C12_18 
REMARK       I    between atoms: N18_23  and  C16_21 
REMARK    6  A    between atoms: N18_23  and  C19_24 
ROOT
ATOM      1  C10 6E7 d   1     -23.837  20.169   2.561  0.00  0.00     0.086 A 
ATOM      2  C13 6E7 d   1     -24.002  21.707   0.293  0.00  0.00    -0.051 A 
ATOM      3  C11 6E7 d   1     -24.228  21.495   2.655  0.00  0.00    -0.038 A 
ATOM      4  C12 6E7 d   1     -24.324  22.296   1.506  0.00  0.00     0.035 A 
ATOM      5  C14 6E7 d   1     -23.618  20.377   0.283  0.00  0.00     0.004 A 
ATOM      6  N15 6E7 d   1     -23.512  19.618   1.388  0.00  0.00    -0.259 NA
ATOM      7  H1  6E7 d   1     -24.050  22.276  -0.628  0.00  0.00     0.087 H 
ATOM      8  H10 6E7 d   1     -24.462  21.918   3.625  0.00  0.00     0.088 H 
ATOM      9  H11 6E7 d   1     -23.389  19.920  -0.673  0.00  0.00     0.114 H 
ENDROOT
BRANCH   4  10
ATOM     10  C16 6E7 d   1     -24.728  23.719   1.574  0.00  0.00     0.251 C 
ATOM     11  O17 6E7 d   1     -24.032  24.596   1.064  0.00  0.00    -0.268 OA
ATOM     12  N18 6E7 d   1     -25.851  24.006   2.177  0.00  0.00    -0.357 N 
ATOM     13  H12 6E7 d   1     -26.406  23.264   2.553  0.00  0.00     0.162 HD
BRANCH  12  14
ATOM     14  C19 6E7 d   1     -26.313  25.377   2.314  0.00  0.00    -0.001 C 
ATOM     15  H13 6E7 d   1     -25.826  25.996   1.546  0.00  0.00     0.064 H 
ATOM     16  H14 6E7 d   1     -27.403  25.402   2.168  0.00  0.00     0.064 H 
BRANCH  14  17
ATOM     17  C20 6E7 d   1     -25.993  25.937   3.661  0.00  0.00    -0.026 C 
ATOM     18  H2  6E7 d   1     -24.912  26.132   3.708  0.00  0.00     0.042 H 
ATOM     19  H3  6E7 d   1     -26.542  26.882   3.784  0.00  0.00     0.042 H 
BRANCH  17  20
ATOM     20  C21 6E7 d   1     -26.367  25.008   4.817  0.00  0.00    -0.057 A 
ATOM     21  C22 6E7 d   1     -27.613  25.073   5.403  0.00  0.00    -0.077 A 
ATOM     22  C23 6E7 d   1     -28.008  24.229   6.442  0.00  0.00    -0.082 A 
ATOM     23  H4  6E7 d   1     -28.318  25.813   5.041  0.00  0.00     0.084 H 
ATOM     24  C24 6E7 d   1     -27.143  23.257   6.933  0.00  0.00    -0.083 A 
ATOM     25  H15 6E7 d   1     -28.998  24.332   6.870  0.00  0.00     0.083 H 
ATOM     26  C25 6E7 d   1     -25.877  23.152   6.358  0.00  0.00    -0.082 A 
ATOM     27  H5  6E7 d   1     -27.445  22.599   7.740  0.00  0.00     0.083 H 
ATOM     28  C26 6E7 d   1     -25.504  24.016   5.319  0.00  0.00    -0.077 A 
ATOM     29  H16 6E7 d   1     -25.181  22.402   6.715  0.00  0.00     0.083 H 
ATOM     30  H6  6E7 d   1     -24.515  23.916   4.886  0.00  0.00     0.084 H 
ENDBRANCH  17  20
ENDBRANCH  14  17
ENDBRANCH  12  14
ENDBRANCH   4  10
BRANCH   1  31
ATOM     31  C08 6E7 d   1     -23.708  19.279   3.756  0.00  0.00     0.086 A 
ATOM     32  N07 6E7 d   1     -23.542  17.959   3.468  0.00  0.00    -0.259 NA
ATOM     33  C06 6E7 d   1     -23.389  17.119   4.509  0.00  0.00     0.004 A 
ATOM     34  C05 6E7 d   1     -23.368  17.505   5.834  0.00  0.00    -0.049 A 
ATOM     35  H8  6E7 d   1     -23.274  16.063   4.291  0.00  0.00     0.114 H 
ATOM     36  C04 6E7 d   1     -23.527  18.855   6.125  0.00  0.00     0.044 A 
ATOM     37  H7  6E7 d   1     -23.232  16.776   6.625  0.00  0.00     0.087 H 
ATOM     38  C09 6E7 d   1     -23.690  19.775   5.066  0.00  0.00    -0.036 A 
ATOM     39  H9  6E7 d   1     -23.798  20.836   5.261  0.00  0.00     0.088 H 
BRANCH  36  40
ATOM     40  C02 6E7 d   1     -23.509  19.316   7.575  0.00  0.00     0.209 C 
ATOM     41  O01 6E7 d   1     -24.173  20.343   7.868  0.00  0.00    -0.644 OA
ATOM     42  O03 6E7 d   1     -22.857  18.644   8.392  0.00  0.00    -0.644 OA
ENDBRANCH  36  40
ENDBRANCH   1  31
TORSDOF 6
