REMARK  4 active torsions:
REMARK  status: ('A' for Active; 'I' for Inactive)
REMARK    1  A    between atoms: C02_6  and  C01_5 
REMARK    2  A    between atoms: C02_6  and  C03_7 
REMARK    3  A    between atoms: C02_6  and  C04_8 
REMARK    4  A    between atoms: C05_9  and  C06_10 
ROOT
ATOM      1  C10 6E8 d   1     -22.996  17.689   7.240  0.00  0.00     0.046 A 
ATOM      2  N12 6E8 d   1     -23.796  19.386   8.242  0.00  0.00    -0.179 N 
ATOM      3  C13 6E8 d   1     -24.128  20.244   9.213  0.00  0.00     0.278 A 
ATOM      4  C15 6E8 d   1     -23.754  18.181   4.867  0.00  0.00     0.105 C 
ATOM      5  C04 6E8 d   1     -24.913  21.455   8.816  0.00  0.00     0.037 A 
ATOM      6  C05 6E8 d   1     -25.262  21.618   7.514  0.00  0.00     0.019 A 
ATOM      7  N07 6E8 d   1     -24.885  20.668   6.571  0.00  0.00    -0.343 N 
ATOM      8  C08 6E8 d   1     -24.148  19.551   6.956  0.00  0.00     0.155 A 
ATOM      9  C09 6E8 d   1     -23.640  18.467   6.260  0.00  0.00     0.109 A 
ATOM     10  N11 6E8 d   1     -23.071  18.241   8.456  0.00  0.00    -0.174 NA
ATOM     11  O14 6E8 d   1     -23.792  20.029  10.372  0.00  0.00    -0.265 OA
ATOM     12  N16 6E8 d   1     -23.827  17.893   3.733  0.00  0.00    -0.191 NA
ATOM     13  H1  6E8 d   1     -22.494  16.745   7.032  0.00  0.00     0.120 H 
ATOM     14  H12 6E8 d   1     -25.152  20.791   5.584  0.00  0.00     0.167 HD
ENDROOT
BRANCH   6  15
ATOM     15  C06 6E8 d   1     -26.054  22.759   6.926  0.00  0.00    -0.037 C 
ATOM     16  H9  6E8 d   1     -26.172  22.604   5.843  0.00  0.00     0.035 H 
ATOM     17  H10 6E8 d   1     -25.522  23.705   7.105  0.00  0.00     0.035 H 
ATOM     18  H11 6E8 d   1     -27.046  22.800   7.400  0.00  0.00     0.035 H 
ENDBRANCH   6  15
BRANCH   5  19
ATOM     19  C02 6E8 d   1     -25.313  22.482   9.884  0.00  0.00    -0.028 C 
ATOM     20  H5  6E8 d   1     -25.591  23.398   9.341  0.00  0.00     0.046 H 
BRANCH  19  21
ATOM     21  C01 6E8 d   1     -24.243  22.882  10.928  0.00  0.00    -0.069 C 
ATOM     22  H2  6E8 d   1     -24.668  23.620  11.624  0.00  0.00     0.028 H 
ATOM     23  H3  6E8 d   1     -23.375  23.321  10.414  0.00  0.00     0.028 H 
ATOM     24  H4  6E8 d   1     -23.925  21.990  11.488  0.00  0.00     0.028 H 
ENDBRANCH  19  21
BRANCH  19  25
ATOM     25  C03 6E8 d   1     -26.533  21.998  10.670  0.00  0.00    -0.069 C 
ATOM     26  H6  6E8 d   1     -27.326  21.700   9.969  0.00  0.00     0.028 H 
ATOM     27  H7  6E8 d   1     -26.899  22.810  11.315  0.00  0.00     0.028 H 
ATOM     28  H8  6E8 d   1     -26.250  21.135  11.291  0.00  0.00     0.028 H 
ENDBRANCH  19  25
ENDBRANCH   5  19
TORSDOF 4
