REMARK  4 active torsions:
REMARK  status: ('A' for Active; 'I' for Inactive)
REMARK    1  A    between atoms: C04_7  and  C02_5 
REMARK    2  A    between atoms: N10_13  and  C09_12 
REMARK    3  A    between atoms: N10_13  and  C11_14 
REMARK    4  A    between atoms: N13_16  and  C14_17 
ROOT
ATOM      1  C15 6EN d   1     -25.953  23.921   4.307  0.00  0.00     0.141 A 
ATOM      2  C17 6EN d   1     -27.443  25.165   5.488  0.00  0.00     0.004 A 
ATOM      3  C20 6EN d   1     -25.822  22.994   5.349  0.00  0.00     0.038 A 
ATOM      4  C11 6EN d   1     -24.902  21.978   4.923  0.00  0.00     0.062 A 
ATOM      5  C12 6EN d   1     -24.493  22.340   3.656  0.00  0.00     0.007 A 
ATOM      6  N13 6EN d   1     -25.140  23.522   3.266  0.00  0.00    -0.343 N 
ATOM      7  N16 6EN d   1     -26.752  25.028   4.339  0.00  0.00    -0.242 NA
ATOM      8  C18 6EN d   1     -27.375  24.299   6.563  0.00  0.00    -0.065 A 
ATOM      9  C19 6EN d   1     -26.555  23.187   6.507  0.00  0.00    -0.066 A 
ATOM     10  H1  6EN d   1     -28.103  26.020   5.576  0.00  0.00     0.114 H 
ATOM     11  H6  6EN d   1     -23.775  21.790   3.049  0.00  0.00     0.115 H 
ATOM     12  H10 6EN d   1     -27.965  24.492   7.451  0.00  0.00     0.085 H 
ATOM     13  H11 6EN d   1     -26.489  22.494   7.338  0.00  0.00     0.085 H 
ENDROOT
BRANCH   4  14
ATOM     14  N10 6EN d   1     -24.514  20.929   5.670  0.00  0.00    -0.352 N 
ATOM     15  H5  6EN d   1     -24.562  21.077   6.688  0.00  0.00     0.166 HD
BRANCH  14  16
ATOM     16  C09 6EN d   1     -24.051  19.658   5.272  0.00  0.00     0.067 A 
ATOM     17  C04 6EN d   1     -23.528  18.766   6.194  0.00  0.00     0.070 A 
ATOM     18  C05 6EN d   1     -23.078  17.516   5.761  0.00  0.00    -0.047 A 
ATOM     19  C06 6EN d   1     -23.172  17.180   4.404  0.00  0.00     0.003 A 
ATOM     20  H2  6EN d   1     -22.659  16.811   6.470  0.00  0.00     0.087 H 
ATOM     21  N07 6EN d   1     -23.680  18.032   3.472  0.00  0.00    -0.271 NA
ATOM     22  H3  6EN d   1     -22.827  16.204   4.084  0.00  0.00     0.114 H 
ATOM     23  C08 6EN d   1     -24.105  19.249   3.920  0.00  0.00     0.029 A 
ATOM     24  H4  6EN d   1     -24.509  19.945   3.194  0.00  0.00     0.118 H 
BRANCH  17  25
ATOM     25  C02 6EN d   1     -23.412  19.114   7.679  0.00  0.00     0.211 C 
ATOM     26  O01 6EN d   1     -22.648  18.465   8.415  0.00  0.00    -0.644 OA
ATOM     27  O03 6EN d   1     -24.119  20.094   8.064  0.00  0.00    -0.644 OA
ENDBRANCH  17  25
ENDBRANCH  14  16
ENDBRANCH   4  14
BRANCH   6  28
ATOM     28  C14 6EN d   1     -24.986  24.220   1.982  0.00  0.00    -0.013 C 
ATOM     29  H7  6EN d   1     -25.623  25.117   1.974  0.00  0.00     0.057 H 
ATOM     30  H8  6EN d   1     -25.285  23.550   1.162  0.00  0.00     0.057 H 
ATOM     31  H9  6EN d   1     -23.935  24.516   1.849  0.00  0.00     0.057 H 
ENDBRANCH   6  28
TORSDOF 4
