REMARK  4 active torsions:
REMARK  status: ('A' for Active; 'I' for Inactive)
REMARK    1  A    between atoms: C04_8  and  C02_6 
REMARK    2  A    between atoms: N06_10  and  C05_9 
REMARK       I    between atoms: C07_11  and  N06_10 
REMARK    3  A    between atoms: C08_12  and  C07_11 
REMARK    4  A    between atoms: C08_12  and  C09_13 
ROOT
ATOM      1  N06 6EO d   1     -24.556  20.900   5.611  0.00  0.00    -0.325 N 
ATOM      2  C07 6EO d   1     -25.169  21.857   4.911  0.00  0.00     0.226 C 
ATOM      3  O16 6EO d   1     -25.422  21.745   3.725  0.00  0.00    -0.273 OA
ATOM      4  H5  6EO d   1     -24.341  21.136   6.559  0.00  0.00     0.169 HD
ENDROOT
BRANCH   2   5
ATOM      5  C08 6EO d   1     -25.466  23.168   5.598  0.00  0.00     0.033 C 
ATOM      6  H6  6EO d   1     -24.732  23.909   5.249  0.00  0.00     0.054 H 
ATOM      7  H7  6EO d   1     -25.349  23.018   6.681  0.00  0.00     0.054 H 
BRANCH   5   8
ATOM      8  C09 6EO d   1     -26.802  23.708   5.358  0.00  0.00    -0.049 A 
ATOM      9  C10 6EO d   1     -27.915  23.451   6.209  0.00  0.00    -0.075 A 
ATOM     10  C11 6EO d   1     -29.163  23.980   5.924  0.00  0.00    -0.061 A 
ATOM     11  H1  6EO d   1     -27.784  22.834   7.090  0.00  0.00     0.084 H 
ATOM     12  C12 6EO d   1     -29.308  24.783   4.782  0.00  0.00     0.034 A 
ATOM     13  H8  6EO d   1     -30.010  23.778   6.569  0.00  0.00     0.086 H 
ATOM     14 CL1  6EO d   1     -30.855  25.477   4.370  0.00  0.00    -0.084 Cl
ATOM     15  C14 6EO d   1     -28.236  25.045   3.968  0.00  0.00    -0.061 A 
ATOM     16  C15 6EO d   1     -27.011  24.521   4.256  0.00  0.00    -0.075 A 
ATOM     17  H9  6EO d   1     -28.363  25.671   3.092  0.00  0.00     0.086 H 
ATOM     18  H2  6EO d   1     -26.176  24.747   3.603  0.00  0.00     0.084 H 
ENDBRANCH   5   8
ENDBRANCH   2   5
BRANCH   1  19
ATOM     19  C05 6EO d   1     -24.167  19.607   5.212  0.00  0.00     0.069 A 
ATOM     20  C17 6EO d   1     -24.230  19.196   3.888  0.00  0.00     0.029 A 
ATOM     21  N18 6EO d   1     -23.862  17.955   3.463  0.00  0.00    -0.271 NA
ATOM     22  H3  6EO d   1     -24.593  19.902   3.150  0.00  0.00     0.118 H 
ATOM     23  C19 6EO d   1     -23.358  17.123   4.422  0.00  0.00     0.003 A 
ATOM     24  C20 6EO d   1     -23.233  17.465   5.759  0.00  0.00    -0.047 A 
ATOM     25  H10 6EO d   1     -23.036  16.134   4.118  0.00  0.00     0.114 H 
ATOM     26  C04 6EO d   1     -23.634  18.747   6.155  0.00  0.00     0.070 A 
ATOM     27  H4  6EO d   1     -22.835  16.759   6.479  0.00  0.00     0.087 H 
BRANCH  26  28
ATOM     28  C02 6EO d   1     -23.501  19.139   7.611  0.00  0.00     0.211 C 
ATOM     29  O01 6EO d   1     -24.119  20.112   8.060  0.00  0.00    -0.644 OA
ATOM     30  O03 6EO d   1     -22.777  18.397   8.307  0.00  0.00    -0.644 OA
ENDBRANCH  26  28
ENDBRANCH   1  19
TORSDOF 4
