REMARK  4 active torsions:
REMARK  status: ('A' for Active; 'I' for Inactive)
REMARK       I    between atoms: C2_2  and  N3_3 
REMARK    1  A    between atoms: C2_2  and  C18_18 
REMARK    2  A    between atoms: N3_3  and  C4_4 
REMARK    3  A    between atoms: C6_6  and  C11_11 
REMARK    4  A    between atoms: C9_9  and  N10_10 
ROOT
ATOM      1  C4  IWX d   1      66.480  29.466   0.818  0.00  0.00     0.062 A 
ATOM      2  C5  IWX d   1      66.084  29.310   2.143  0.00  0.00    -0.044 A 
ATOM      3  C6  IWX d   1      64.850  28.700   2.465  0.00  0.00    -0.024 A 
ATOM      4  C7  IWX d   1      64.034  28.231   1.429  0.00  0.00    -0.070 A 
ATOM      5  C8  IWX d   1      64.412  28.360   0.117  0.00  0.00    -0.055 A 
ATOM      6  C9  IWX d   1      65.636  28.955  -0.188  0.00  0.00     0.052 A 
ATOM      7  H2  IWX d   1      66.731  29.661   2.939  0.00  0.00     0.088 H 
ATOM      8  H3  IWX d   1      63.088  27.758   1.667  0.00  0.00     0.084 H 
ATOM      9  H4  IWX d   1      63.765  28.003  -0.676  0.00  0.00     0.087 H 
ENDROOT
BRANCH   1  10
ATOM     10  N3  IWX d   1      67.745  30.011   0.483  0.00  0.00    -0.325 N 
ATOM     11  C2  IWX d   1      68.014  31.077  -0.339  0.00  0.00     0.226 C 
ATOM     12  O1  IWX d   1      67.078  31.675  -0.846  0.00  0.00    -0.273 OA
ATOM     13  H1  IWX d   1      68.539  29.564   0.896  0.00  0.00     0.169 HD
BRANCH  11  14
ATOM     14  C18 IWX d   1      69.432  31.517  -0.715  0.00  0.00     0.028 C 
ATOM     15  C19 IWX d   1      69.616  33.048  -0.667  0.00  0.00    -0.034 C 
ATOM     16  C20 IWX d   1      71.043  33.362  -1.130  0.00  0.00     0.020 C 
ATOM     17  H12 IWX d   1      69.468  33.411   0.361  0.00  0.00     0.037 H 
ATOM     18  H13 IWX d   1      68.890  33.533  -1.336  0.00  0.00     0.037 H 
ATOM     19  O21 IWX d   1      71.978  32.724  -0.261  0.00  0.00    -0.391 OA
ATOM     20  H14 IWX d   1      71.205  34.450  -1.107  0.00  0.00     0.074 H 
ATOM     21  H15 IWX d   1      71.185  32.992  -2.156  0.00  0.00     0.074 H 
ATOM     22  C22 IWX d   1      71.948  31.297  -0.306  0.00  0.00     0.020 C 
ATOM     23  C23 IWX d   1      70.549  30.794   0.080  0.00  0.00    -0.034 C 
ATOM     24  H16 IWX d   1      72.689  30.894   0.400  0.00  0.00     0.074 H 
ATOM     25  H17 IWX d   1      72.190  30.959  -1.324  0.00  0.00     0.074 H 
ATOM     26  H18 IWX d   1      70.490  29.715  -0.126  0.00  0.00     0.037 H 
ATOM     27  H19 IWX d   1      70.392  30.971   1.154  0.00  0.00     0.037 H 
ATOM     28  H11 IWX d   1      69.567  31.223  -1.766  0.00  0.00     0.054 H 
ENDBRANCH  11  14
ENDBRANCH   1  10
BRANCH   6  29
ATOM     29  N10 IWX d   1      65.951  29.058  -1.524  0.00  0.00    -0.397 N 
ATOM     30  H5  IWX d   1      66.842  29.488  -1.812  0.00  0.00     0.156 HD
ATOM     31  H6  IWX d   1      65.296  28.705  -2.236  0.00  0.00     0.156 HD
ENDBRANCH   6  29
BRANCH   3  32
ATOM     32  C11 IWX d   1      64.383  28.561   3.869  0.00  0.00    -0.026 A 
ATOM     33  C12 IWX d   1      63.019  28.748   4.205  0.00  0.00    -0.069 A 
ATOM     34  C13 IWX d   1      62.585  28.627   5.514  0.00  0.00    -0.045 A 
ATOM     35  H7  IWX d   1      62.305  28.989   3.426  0.00  0.00     0.085 H 
ATOM     36  C14 IWX d   1      63.499  28.330   6.511  0.00  0.00     0.116 A 
ATOM     37  H8  IWX d   1      61.537  28.764   5.757  0.00  0.00     0.088 H 
ATOM     38  F15 IWX d   1      63.064  28.216   7.773  0.00  0.00    -0.206 F 
ATOM     39  C16 IWX d   1      64.847  28.154   6.208  0.00  0.00    -0.045 A 
ATOM     40  C17 IWX d   1      65.295  28.265   4.899  0.00  0.00    -0.069 A 
ATOM     41  H9  IWX d   1      65.552  27.929   7.000  0.00  0.00     0.088 H 
ATOM     42  H10 IWX d   1      66.345  28.124   4.671  0.00  0.00     0.085 H 
ENDBRANCH   3  32
TORSDOF 4
