REMARK  4 active torsions:
REMARK  status: ('A' for Active; 'I' for Inactive)
REMARK    1  A    between atoms: C8_20  and  C5_4 
REMARK    2  A    between atoms: N11_21  and  C10_8 
REMARK       I    between atoms: C12_9  and  N11_21 
REMARK    3  A    between atoms: C14_22  and  C12_9 
REMARK    4  A    between atoms: C22_17  and  N23_24 
ROOT
ATOM      1  C9  6EZ d   1      66.024  29.155   2.103  0.00  0.00    -0.044 A 
ATOM      2  C10 6EZ d   1      66.448  29.287   0.784  0.00  0.00     0.062 A 
ATOM      3  C22 6EZ d   1      65.640  28.748  -0.231  0.00  0.00     0.052 A 
ATOM      4  C24 6EZ d   1      64.432  28.110   0.069  0.00  0.00    -0.055 A 
ATOM      5  C8  6EZ d   1      64.815  28.509   2.422  0.00  0.00    -0.024 A 
ATOM      6  C25 6EZ d   1      64.031  27.985   1.383  0.00  0.00    -0.070 A 
ATOM      7  H5  6EZ d   1      66.637  29.558   2.901  0.00  0.00     0.088 H 
ATOM      8  H16 6EZ d   1      63.813  27.715  -0.728  0.00  0.00     0.087 H 
ATOM      9  H21 6EZ d   1      63.102  27.477   1.615  0.00  0.00     0.084 H 
ENDROOT
BRANCH   2  10
ATOM     10  N11 6EZ d   1      67.690  29.932   0.591  0.00  0.00    -0.325 N 
ATOM     11  C12 6EZ d   1      67.970  30.967  -0.245  0.00  0.00     0.226 C 
ATOM     12  O13 6EZ d   1      67.086  31.453  -0.934  0.00  0.00    -0.273 OA
ATOM     13  H17 6EZ d   1      68.455  29.586   1.134  0.00  0.00     0.169 HD
BRANCH  11  14
ATOM     14  C14 6EZ d   1      69.399  31.491  -0.218  0.00  0.00     0.028 C 
ATOM     15  C15 6EZ d   1      70.371  30.419  -0.759  0.00  0.00    -0.029 C 
ATOM     16  C16 6EZ d   1      71.810  30.975  -0.900  0.00  0.00     0.040 C 
ATOM     17  H6  6EZ d   1      70.384  29.566  -0.065  0.00  0.00     0.038 H 
ATOM     18  H7  6EZ d   1      70.019  30.084  -1.746  0.00  0.00     0.038 H 
ATOM     19  C17 6EZ d   1      72.305  31.750   0.348  0.00  0.00    -0.038 C 
ATOM     20  O21 6EZ d   1      71.706  31.990  -1.930  0.00  0.00    -0.381 OA
ATOM     21  H8  6EZ d   1      72.513  30.172  -1.165  0.00  0.00     0.083 H 
ATOM     22  C18 6EZ d   1      71.903  33.212   0.047  0.00  0.00    -0.038 C 
ATOM     23  H9  6EZ d   1      73.395  31.657   0.462  0.00  0.00     0.036 H 
ATOM     24  H10 6EZ d   1      71.809  31.386   1.260  0.00  0.00     0.036 H 
ATOM     25  C19 6EZ d   1      71.105  33.130  -1.268  0.00  0.00     0.040 C 
ATOM     26  H11 6EZ d   1      72.796  33.843  -0.079  0.00  0.00     0.036 H 
ATOM     27  H12 6EZ d   1      71.278  33.618   0.856  0.00  0.00     0.036 H 
ATOM     28  C20 6EZ d   1      69.614  32.836  -0.952  0.00  0.00    -0.029 C 
ATOM     29  H13 6EZ d   1      71.199  34.049  -1.866  0.00  0.00     0.083 H 
ATOM     30  H14 6EZ d   1      69.055  32.811  -1.899  0.00  0.00     0.038 H 
ATOM     31  H15 6EZ d   1      69.225  33.646  -0.318  0.00  0.00     0.038 H 
ATOM     32  H18 6EZ d   1      69.651  31.665   0.838  0.00  0.00     0.054 H 
ENDBRANCH  11  14
ENDBRANCH   2  10
BRANCH   3  33
ATOM     33  N23 6EZ d   1      65.994  28.853  -1.555  0.00  0.00    -0.397 N 
ATOM     34  H19 6EZ d   1      66.876  29.316  -1.817  0.00  0.00     0.156 HD
ATOM     35  H20 6EZ d   1      65.377  28.469  -2.285  0.00  0.00     0.156 HD
ENDBRANCH   3  33
BRANCH   5  36
ATOM     36  C5  6EZ d   1      64.360  28.376   3.833  0.00  0.00    -0.026 A 
ATOM     37  C4  6EZ d   1      65.280  28.096   4.862  0.00  0.00    -0.069 A 
ATOM     38  C3  6EZ d   1      64.838  27.982   6.174  0.00  0.00    -0.045 A 
ATOM     39  H2  6EZ d   1      66.331  27.970   4.630  0.00  0.00     0.085 H 
ATOM     40  C2  6EZ d   1      63.488  28.139   6.478  0.00  0.00     0.116 A 
ATOM     41  H1  6EZ d   1      65.548  27.770   6.965  0.00  0.00     0.088 H 
ATOM     42  C7  6EZ d   1      62.569  28.412   5.479  0.00  0.00    -0.045 A 
ATOM     43  F1  6EZ d   1      63.052  28.020   7.740  0.00  0.00    -0.206 F 
ATOM     44  C6  6EZ d   1      62.998  28.535   4.169  0.00  0.00    -0.069 A 
ATOM     45  H4  6EZ d   1      61.519  28.529   5.722  0.00  0.00     0.088 H 
ATOM     46  H3  6EZ d   1      62.278  28.757   3.390  0.00  0.00     0.085 H 
ENDBRANCH   5  36
TORSDOF 4
