REMARK  27 active torsions:
REMARK  status: ('A' for Active; 'I' for Inactive)
REMARK    1  A    between atoms: N_9  and  C4_1 
REMARK       I    between atoms: C9_24  and  N1_4 
REMARK    2  A    between atoms: C1_16  and  C2_17 
REMARK       I    between atoms: N_27  and  C1_16 
REMARK    3  A    between atoms: C2_17  and  C3_18 
REMARK    4  A    between atoms: C3_18  and  C4_19 
REMARK    5  A    between atoms: C4_19  and  C5_20 
REMARK    6  A    between atoms: C5_20  and  C6_21 
REMARK    7  A    between atoms: C6_21  and  C7_22 
REMARK    8  A    between atoms: C7_22  and  C8_23 
REMARK    9  A    between atoms: C8_23  and  C9_24 
REMARK   10  A    between atoms: CA_28  and  N_27 
REMARK   11  A    between atoms: CA_28  and  CB_29 
REMARK   12  A    between atoms: C_36  and  CA_28 
REMARK   13  A    between atoms: CB_29  and  CG_30 
REMARK   14  A    between atoms: CG_30  and  CD_31 
REMARK   15  A    between atoms: CD_31  and  NE_32 
REMARK       I    between atoms: NE_32  and  CZ_33 
REMARK       I    between atoms: CZ_33  and  NH1_34 
REMARK       I    between atoms: CZ_33  and  NH2_35 
REMARK       I    between atoms: N6_45  and  C_36 
REMARK   16  A    between atoms: C2_40  and  C1_38 
REMARK       I    between atoms: C1_38  and  N_46 
REMARK   17  A    between atoms: C3_41  and  C2_40 
REMARK   18  A    between atoms: C4_42  and  C3_41 
REMARK   19  A    between atoms: C5_43  and  C4_42 
REMARK   20  A    between atoms: C6_44  and  C5_43 
REMARK   21  A    between atoms: C6_44  and  N6_45 
REMARK   22  A    between atoms: N_46  and  CA_47 
REMARK   23  A    between atoms: CA_47  and  CB_48 
REMARK   24  A    between atoms: CA_47  and  C_55 
REMARK   25  A    between atoms: CB_48  and  CG_49 
REMARK   26  A    between atoms: CG_49  and  CD_50 
REMARK   27  A    between atoms: CD_50  and  NE_51 
REMARK       I    between atoms: NE_51  and  CZ_52 
REMARK       I    between atoms: CZ_52  and  NH1_53 
REMARK       I    between atoms: C_55  and  N_57 
ROOT
ATOM      1  CA  DAR d   1     -15.587  56.967   1.781  0.00  0.00     0.089 C 
ATOM      2  H28 DAR d   1     -16.297  57.486   2.442  0.00  0.00     0.087 H 
ENDROOT
BRANCH   1   3
ATOM      3  N   DAR d   1     -14.450  56.540   2.587  0.00  0.00    -0.348 N 
ATOM      4  C1  AZ1 d   1     -13.803  57.338   3.450  0.00  0.00     0.218 C 
ATOM      5  O2  AZ1 d   1     -14.110  58.499   3.685  0.00  0.00    -0.274 OA
ATOM      6  H27 DAR d   1     -14.133  55.596   2.491  0.00  0.00     0.163 HD
BRANCH   4   7
ATOM      7  C2  AZ1 d   1     -12.617  56.773   4.205  0.00  0.00     0.009 C 
ATOM      8  H13 AZ1 d   1     -12.972  55.959   4.854  0.00  0.00     0.047 H 
ATOM      9  H14 AZ1 d   1     -12.183  57.573   4.823  0.00  0.00     0.047 H 
BRANCH   7  10
ATOM     10  C3  AZ1 d   1     -11.526  56.222   3.288  0.00  0.00    -0.057 C 
ATOM     11  H15 AZ1 d   1     -12.006  55.687   2.455  0.00  0.00     0.033 H 
ATOM     12  H16 AZ1 d   1     -10.905  55.521   3.865  0.00  0.00     0.033 H 
BRANCH  10  13
ATOM     13  C4  AZ1 d   1     -10.624  57.308   2.711  0.00  0.00    -0.065 C 
ATOM     14  H17 AZ1 d   1      -9.572  57.059   2.915  0.00  0.00     0.033 H 
ATOM     15  H18 AZ1 d   1     -10.869  58.275   3.175  0.00  0.00     0.033 H 
BRANCH  13  16
ATOM     16  C5  AZ1 d   1     -10.844  57.395   1.205  0.00  0.00    -0.065 C 
ATOM     17  H19 AZ1 d   1     -11.376  58.332   0.982  0.00  0.00     0.033 H 
ATOM     18  H20 AZ1 d   1     -11.460  56.540   0.890  0.00  0.00     0.033 H 
BRANCH  16  19
ATOM     19  C6  AZ1 d   1      -9.541  57.374   0.411  0.00  0.00    -0.065 C 
ATOM     20  H21 AZ1 d   1      -8.711  57.672   1.068  0.00  0.00     0.033 H 
ATOM     21  H22 AZ1 d   1      -9.616  58.081  -0.429  0.00  0.00     0.033 H 
BRANCH  19  22
ATOM     22  C7  AZ1 d   1      -9.276  55.976  -0.131  0.00  0.00    -0.057 C 
ATOM     23  H23 AZ1 d   1     -10.120  55.329   0.149  0.00  0.00     0.033 H 
ATOM     24  H24 AZ1 d   1      -8.353  55.594   0.329  0.00  0.00     0.033 H 
BRANCH  22  25
ATOM     25  C8  AZ1 d   1      -9.114  55.930  -1.652  0.00  0.00     0.009 C 
ATOM     26  H25 AZ1 d   1      -9.769  56.693  -2.099  0.00  0.00     0.047 H 
ATOM     27  H26 AZ1 d   1      -9.415  54.934  -2.008  0.00  0.00     0.047 H 
BRANCH  25  28
ATOM     28  C9  AZ1 d   1      -7.680  56.195  -2.099  0.00  0.00     0.219 C 
ATOM     29  N1  6J9 d   1      -6.684  55.296  -1.907  0.00  0.00    -0.349 N 
ATOM     30  C2  6J9 d   1      -5.292  55.672  -2.229  0.00  0.00     0.013 C 
ATOM     31  C3  6J9 d   1      -6.902  53.925  -1.394  0.00  0.00     0.013 C 
ATOM     32  C   6J9 d   1      -4.362  55.032  -1.196  0.00  0.00     0.011 C 
ATOM     33  H8  6J9 d   1      -5.186  56.766  -2.195  0.00  0.00     0.066 H 
ATOM     34  H9  6J9 d   1      -5.034  55.310  -3.235  0.00  0.00     0.066 H 
ATOM     35  N   6J9 d   1      -4.518  53.585  -1.350  0.00  0.00    -0.362 N 
ATOM     36  H6  6J9 d   1      -3.319  55.326  -1.387  0.00  0.00     0.066 H 
ATOM     37  H7  6J9 d   1      -4.650  55.341  -0.180  0.00  0.00     0.066 H 
ATOM     38  C1  6J9 d   1      -5.768  53.017  -1.864  0.00  0.00     0.011 C 
ATOM     39  H4  6J9 d   1      -5.911  52.000  -1.469  0.00  0.00     0.066 H 
ATOM     40  H5  6J9 d   1      -5.743  52.983  -2.963  0.00  0.00     0.066 H 
ATOM     41  H10 6J9 d   1      -7.860  53.540  -1.773  0.00  0.00     0.066 H 
ATOM     42  H11 6J9 d   1      -6.924  53.944  -0.294  0.00  0.00     0.066 H 
ATOM     43  O3  AZ1 d   1      -7.494  57.267  -2.656  0.00  0.00    -0.273 OA
BRANCH  35  44
ATOM     44  C4  6J9 d   1      -3.448  52.720  -1.044  0.00  0.00     0.141 A 
ATOM     45  C5  6J9 d   1      -3.599  51.545  -0.128  0.00  0.00     0.057 A 
ATOM     46  C6  6J9 d   1      -2.394  50.724   0.067  0.00  0.00     0.142 A 
ATOM     47  C7  6J9 d   1      -4.670  50.997   0.640  0.00  0.00    -0.051 A 
ATOM     48  N4  6J9 d   1      -1.234  51.055  -0.560  0.00  0.00    -0.223 NA
ATOM     49  N3  6J9 d   1      -2.771  49.757   0.918  0.00  0.00    -0.350 N 
ATOM     50  C9  6J9 d   1      -1.170  52.126  -1.375  0.00  0.00     0.091 A 
ATOM     51  N2  6J9 d   1      -2.229  52.925  -1.614  0.00  0.00    -0.224 NA
ATOM     52  H3  6J9 d   1      -0.227  52.355  -1.859  0.00  0.00     0.146 H 
ATOM     53  C8  6J9 d   1      -4.089  49.899   1.260  0.00  0.00    -0.020 A 
ATOM     54  H12 6J9 d   1      -2.153  49.010   1.266  0.00  0.00     0.166 HD
ATOM     55  H2  6J9 d   1      -4.618  49.231   1.937  0.00  0.00     0.111 H 
ATOM     56  H1  6J9 d   1      -5.696  51.354   0.720  0.00  0.00     0.087 H 
ENDBRANCH  35  44
ENDBRANCH  25  28
ENDBRANCH  22  25
ENDBRANCH  19  22
ENDBRANCH  16  19
ENDBRANCH  13  16
ENDBRANCH  10  13
ENDBRANCH   7  10
ENDBRANCH   4   7
ENDBRANCH   1   3
BRANCH   1  57
ATOM     57  CB  DAR d   1     -16.288  55.741   1.199  0.00  0.00    -0.036 C 
ATOM     58  H29 DAR d   1     -16.468  55.015   2.005  0.00  0.00     0.036 H 
ATOM     59  H30 DAR d   1     -15.640  55.287   0.434  0.00  0.00     0.036 H 
BRANCH  57  60
ATOM     60  CG  DAR d   1     -17.623  56.117   0.561  0.00  0.00    -0.048 C 
ATOM     61  H31 DAR d   1     -17.427  56.608  -0.404  0.00  0.00     0.035 H 
ATOM     62  H32 DAR d   1     -18.149  56.815   1.228  0.00  0.00     0.035 H 
BRANCH  60  63
ATOM     63  CD  DAR d   1     -18.513  54.907   0.321  0.00  0.00     0.009 C 
ATOM     64  H33 DAR d   1     -19.487  55.262  -0.046  0.00  0.00     0.064 H 
ATOM     65  H34 DAR d   1     -18.651  54.383   1.279  0.00  0.00     0.064 H 
BRANCH  63  66
ATOM     66  NE  DAR d   1     -17.976  53.957  -0.648  0.00  0.00    -0.227 N 
ATOM     67  CZ  DAR d   1     -18.280  53.922  -1.952  0.00  0.00     0.665 C 
ATOM     68  NH1 DAR d   1     -19.126  54.792  -2.510  0.00  0.00    -0.235 N 
ATOM     69  NH2 DAR d   1     -17.716  52.990  -2.720  0.00  0.00    -0.235 N 
ATOM     70  H36 DAR d   1     -19.335  54.733  -3.517  0.00  0.00     0.174 HD
ATOM     71  H37 DAR d   1     -19.569  55.522  -1.933  0.00  0.00     0.174 HD
ATOM     72  H38 DAR d   1     -17.061  52.310  -2.308  0.00  0.00     0.174 HD
ATOM     73  H39 DAR d   1     -17.935  52.950  -3.726  0.00  0.00     0.174 HD
ATOM     74  H35 DAR d   1     -17.308  53.255  -0.300  0.00  0.00     0.177 HD
ENDBRANCH  63  66
ENDBRANCH  60  63
ENDBRANCH  57  60
ENDBRANCH   1  57
BRANCH   1  75
ATOM     75  C   DAR d   1     -15.181  57.936   0.695  0.00  0.00     0.240 C 
ATOM     76  O   DAR d   1     -15.816  58.969   0.532  0.00  0.00    -0.271 OA
ATOM     77  N6  ACA d   1     -14.122  57.606  -0.054  0.00  0.00    -0.359 N 
ATOM     78  H50 ACA d   1     -13.493  56.914   0.299  0.00  0.00     0.162 HD
BRANCH  77  79
ATOM     79  C6  ACA d   1     -13.832  58.196  -1.354  0.00  0.00    -0.005 C 
ATOM     80  H48 ACA d   1     -14.228  59.222  -1.370  0.00  0.00     0.064 H 
ATOM     81  H49 ACA d   1     -12.741  58.222  -1.493  0.00  0.00     0.064 H 
BRANCH  79  82
ATOM     82  C5  ACA d   1     -14.452  57.416  -2.510  0.00  0.00    -0.050 C 
ATOM     83  H46 ACA d   1     -13.755  57.424  -3.361  0.00  0.00     0.035 H 
ATOM     84  H47 ACA d   1     -14.626  56.379  -2.188  0.00  0.00     0.035 H 
BRANCH  82  85
ATOM     85  C4  ACA d   1     -15.779  58.028  -2.950  0.00  0.00    -0.063 C 
ATOM     86  H44 ACA d   1     -16.554  57.775  -2.211  0.00  0.00     0.033 H 
ATOM     87  H45 ACA d   1     -15.669  59.121  -3.006  0.00  0.00     0.033 H 
BRANCH  85  88
ATOM     88  C3  ACA d   1     -16.203  57.499  -4.318  0.00  0.00    -0.057 C 
ATOM     89  H42 ACA d   1     -15.401  57.700  -5.044  0.00  0.00     0.033 H 
ATOM     90  H43 ACA d   1     -16.370  56.414  -4.246  0.00  0.00     0.033 H 
BRANCH  88  91
ATOM     91  C2  ACA d   1     -17.487  58.168  -4.799  0.00  0.00     0.009 C 
ATOM     92  H40 ACA d   1     -18.214  58.194  -3.974  0.00  0.00     0.047 H 
ATOM     93  H41 ACA d   1     -17.262  59.195  -5.123  0.00  0.00     0.047 H 
BRANCH  91  94
ATOM     94  C1  ACA d   1     -18.074  57.396  -5.958  0.00  0.00     0.218 C 
ATOM     95  O1  ACA d   1     -18.877  56.506  -5.712  0.00  0.00    -0.274 OA
ATOM     96  N   DAR d   1     -17.669  57.745  -7.185  0.00  0.00    -0.348 N 
ATOM     97  H51 DAR d   1     -16.844  58.304  -7.264  0.00  0.00     0.163 HD
BRANCH  96  98
ATOM     98  CA  DAR d   1     -18.355  57.362  -8.414  0.00  0.00     0.089 C 
ATOM     99  H52 DAR d   1     -18.648  56.305  -8.327  0.00  0.00     0.087 H 
BRANCH  98 100
ATOM    100  CB  DAR d   1     -17.413  57.505  -9.609  0.00  0.00    -0.036 C 
ATOM    101  H53 DAR d   1     -16.382  57.640  -9.249  0.00  0.00     0.036 H 
ATOM    102  H54 DAR d   1     -17.710  58.379 -10.207  0.00  0.00     0.036 H 
BRANCH 100 103
ATOM    103  CG  DAR d   1     -17.489  56.251 -10.472  0.00  0.00    -0.048 C 
ATOM    104  H55 DAR d   1     -18.463  56.231 -10.982  0.00  0.00     0.035 H 
ATOM    105  H56 DAR d   1     -17.398  55.368  -9.822  0.00  0.00     0.035 H 
BRANCH 103 106
ATOM    106  CD  DAR d   1     -16.386  56.203 -11.521  0.00  0.00     0.009 C 
ATOM    107  H57 DAR d   1     -15.768  57.108 -11.428  0.00  0.00     0.064 H 
ATOM    108  H58 DAR d   1     -16.846  56.174 -12.520  0.00  0.00     0.064 H 
BRANCH 106 109
ATOM    109  NE  DAR d   1     -15.534  55.033 -11.361  0.00  0.00    -0.227 N 
ATOM    110  CZ  DAR d   1     -15.488  53.979 -12.188  0.00  0.00     0.665 C 
ATOM    111  NH1 DAR d   1     -14.651  52.983 -11.913  0.00  0.00    -0.235 N 
ATOM    112  NH2 DAR d   1     -16.253  53.892 -13.279  0.00  0.00    -0.235 N 
ATOM    113  H60 DAR d   1     -14.601  52.165 -12.537  0.00  0.00     0.174 HD
ATOM    114  H61 DAR d   1     -14.052  53.030 -11.076  0.00  0.00     0.174 HD
ATOM    115  H62 DAR d   1     -16.908  54.652 -13.511  0.00  0.00     0.174 HD
ATOM    116  H63 DAR d   1     -16.188  53.065 -13.889  0.00  0.00     0.174 HD
ATOM    117  H59 DAR d   1     -14.912  55.014 -10.540  0.00  0.00     0.177 HD
ENDBRANCH 106 109
ENDBRANCH 103 106
ENDBRANCH 100 103
ENDBRANCH  98 100
BRANCH  98 118
ATOM    118  C   DAR d   1     -19.603  58.177  -8.632  0.00  0.00     0.238 C 
ATOM    119  O   DAR d   1     -20.546  57.707  -9.252  0.00  0.00    -0.271 OA
ATOM    120  N   NH2 d   1     -19.680  59.499  -8.115  0.00  0.00    -0.368 N 
ATOM    121  H64 NH2 d   1     -20.506  60.044  -8.257  0.00  0.00     0.159 HD
ATOM    122  H65 NH2 d   1     -18.908  59.884  -7.609  0.00  0.00     0.159 HD
ENDBRANCH  98 118
ENDBRANCH  96  98
ENDBRANCH  91  94
ENDBRANCH  88  91
ENDBRANCH  85  88
ENDBRANCH  82  85
ENDBRANCH  79  82
ENDBRANCH  77  79
ENDBRANCH   1  75
TORSDOF 27
