REMARK  21 active torsions:
REMARK  status: ('A' for Active; 'I' for Inactive)
REMARK    1  A    between atoms: N_9  and  C4_1 
REMARK       I    between atoms: C9_24  and  N1_4 
REMARK    2  A    between atoms: C2_17  and  C1_16 
REMARK       I    between atoms: C1_16  and  N_27 
REMARK    3  A    between atoms: C3_18  and  C2_17 
REMARK    4  A    between atoms: C4_19  and  C3_18 
REMARK    5  A    between atoms: C5_20  and  C4_19 
REMARK    6  A    between atoms: C6_21  and  C5_20 
REMARK    7  A    between atoms: C7_22  and  C6_21 
REMARK    8  A    between atoms: C8_23  and  C7_22 
REMARK    9  A    between atoms: C8_23  and  C9_24 
REMARK   10  A    between atoms: N_27  and  CA_28 
REMARK   11  A    between atoms: CA_28  and  CB_29 
REMARK   12  A    between atoms: CA_28  and  C_36 
REMARK   13  A    between atoms: CB_29  and  CG_30 
REMARK   14  A    between atoms: CG_30  and  CD_31 
REMARK   15  A    between atoms: CD_31  and  NE_32 
REMARK       I    between atoms: NE_32  and  CZ_33 
REMARK       I    between atoms: CZ_33  and  NH1_34 
REMARK       I    between atoms: CZ_33  and  NH2_35 
REMARK       I    between atoms: C_36  and  N_38 
REMARK   16  A    between atoms: N_38  and  CA_39 
REMARK   17  A    between atoms: CA_39  and  CB_40 
REMARK   18  A    between atoms: CA_39  and  C_47 
REMARK   19  A    between atoms: CB_40  and  CG_41 
REMARK   20  A    between atoms: CG_41  and  CD_42 
REMARK   21  A    between atoms: CD_42  and  NE_43 
REMARK       I    between atoms: NE_43  and  CZ_44 
REMARK       I    between atoms: CZ_44  and  NH1_45 
ROOT
ATOM      1  C1  AZ1 d   1      32.820 -12.274  99.128  0.00  0.00     0.218 C 
ATOM      2  O2  AZ1 d   1      33.622 -11.382  99.361  0.00  0.00    -0.274 OA
ATOM      3  N   DAR d   1      31.629 -12.419  99.724  0.00  0.00    -0.348 N 
ATOM      4  H27 DAR d   1      31.211 -13.327  99.725  0.00  0.00     0.163 HD
ENDROOT
BRANCH   1   5
ATOM      5  C2  AZ1 d   1      33.199 -13.295  98.084  0.00  0.00     0.009 C 
ATOM      6  H13 AZ1 d   1      32.923 -14.299  98.440  0.00  0.00     0.047 H 
ATOM      7  H14 AZ1 d   1      34.285 -13.253  97.911  0.00  0.00     0.047 H 
BRANCH   5   8
ATOM      8  C3  AZ1 d   1      32.470 -13.006  96.778  0.00  0.00    -0.057 C 
ATOM      9  H15 AZ1 d   1      31.504 -12.533  97.010  0.00  0.00     0.033 H 
ATOM     10  H16 AZ1 d   1      32.296 -13.957  96.252  0.00  0.00     0.033 H 
BRANCH   8  11
ATOM     11  C4  AZ1 d   1      33.260 -12.081  95.866  0.00  0.00    -0.065 C 
ATOM     12  H17 AZ1 d   1      34.295 -12.445  95.792  0.00  0.00     0.033 H 
ATOM     13  H18 AZ1 d   1      33.258 -11.066  96.291  0.00  0.00     0.033 H 
BRANCH  11  14
ATOM     14  C5  AZ1 d   1      32.643 -12.041  94.473  0.00  0.00    -0.065 C 
ATOM     15  H19 AZ1 d   1      32.087 -12.975  94.302  0.00  0.00     0.033 H 
ATOM     16  H20 AZ1 d   1      33.448 -11.952  93.729  0.00  0.00     0.033 H 
BRANCH  14  17
ATOM     17  C6  AZ1 d   1      31.691 -10.863  94.314  0.00  0.00    -0.065 C 
ATOM     18  H21 AZ1 d   1      32.192  -9.945  94.654  0.00  0.00     0.033 H 
ATOM     19  H22 AZ1 d   1      30.793 -11.039  94.924  0.00  0.00     0.033 H 
BRANCH  17  20
ATOM     20  C7  AZ1 d   1      31.282 -10.699  92.859  0.00  0.00    -0.057 C 
ATOM     21  H23 AZ1 d   1      31.868 -11.395  92.240  0.00  0.00     0.033 H 
ATOM     22  H24 AZ1 d   1      31.486  -9.665  92.543  0.00  0.00     0.033 H 
BRANCH  20  23
ATOM     23  C8  AZ1 d   1      29.800 -10.993  92.669  0.00  0.00     0.009 C 
ATOM     24  H25 AZ1 d   1      29.229 -10.558  93.502  0.00  0.00     0.047 H 
ATOM     25  H26 AZ1 d   1      29.641 -12.081  92.644  0.00  0.00     0.047 H 
BRANCH  23  26
ATOM     26  C9  AZ1 d   1      29.335 -10.383  91.362  0.00  0.00     0.219 C 
ATOM     27  N1  6J9 d   1      29.196 -11.158  90.277  0.00  0.00    -0.349 N 
ATOM     28  C2  6J9 d   1      29.493 -10.588  88.954  0.00  0.00     0.013 C 
ATOM     29  C3  6J9 d   1      28.738 -12.558  90.356  0.00  0.00     0.013 C 
ATOM     30  C   6J9 d   1      30.115 -11.678  88.091  0.00  0.00     0.011 C 
ATOM     31  H8  6J9 d   1      30.198  -9.750  89.060  0.00  0.00     0.066 H 
ATOM     32  H9  6J9 d   1      28.564 -10.229  88.487  0.00  0.00     0.066 H 
ATOM     33  N   6J9 d   1      29.116 -12.738  87.978  0.00  0.00    -0.362 N 
ATOM     34  H6  6J9 d   1      30.361 -11.280  87.096  0.00  0.00     0.066 H 
ATOM     35  H7  6J9 d   1      31.028 -12.065  88.567  0.00  0.00     0.066 H 
ATOM     36  C1  6J9 d   1      28.111 -12.961  89.022  0.00  0.00     0.011 C 
ATOM     37  H4  6J9 d   1      27.825 -14.023  89.047  0.00  0.00     0.066 H 
ATOM     38  H5  6J9 d   1      27.221 -12.346  88.824  0.00  0.00     0.066 H 
ATOM     39  H10 6J9 d   1      27.991 -12.655  91.157  0.00  0.00     0.066 H 
ATOM     40  H11 6J9 d   1      29.595 -13.213  90.572  0.00  0.00     0.066 H 
ATOM     41  O3  AZ1 d   1      29.102  -9.182  91.341  0.00  0.00    -0.273 OA
BRANCH  33  42
ATOM     42  C4  6J9 d   1      29.123 -13.549  86.830  0.00  0.00     0.141 A 
ATOM     43  C5  6J9 d   1      29.237 -15.037  86.912  0.00  0.00     0.057 A 
ATOM     44  C6  6J9 d   1      29.220 -15.749  85.626  0.00  0.00     0.142 A 
ATOM     45  C7  6J9 d   1      29.358 -15.980  87.973  0.00  0.00    -0.051 A 
ATOM     46  N4  6J9 d   1      29.124 -15.059  84.459  0.00  0.00    -0.223 NA
ATOM     47  N3  6J9 d   1      29.336 -17.045  85.960  0.00  0.00    -0.350 N 
ATOM     48  C9  6J9 d   1      29.027 -13.714  84.462  0.00  0.00     0.091 A 
ATOM     49  N2  6J9 d   1      29.021 -12.984  85.598  0.00  0.00    -0.224 NA
ATOM     50  H3  6J9 d   1      28.951 -13.197  83.512  0.00  0.00     0.146 H 
ATOM     51  C8  6J9 d   1      29.413 -17.200  87.313  0.00  0.00    -0.020 A 
ATOM     52  H12 6J9 d   1      29.363 -17.820  85.283  0.00  0.00     0.166 HD
ATOM     53  H2  6J9 d   1      29.506 -18.163  87.814  0.00  0.00     0.111 H 
ATOM     54  H1  6J9 d   1      29.398 -15.790  89.044  0.00  0.00     0.087 H 
ENDBRANCH  33  42
ENDBRANCH  23  26
ENDBRANCH  20  23
ENDBRANCH  17  20
ENDBRANCH  14  17
ENDBRANCH  11  14
ENDBRANCH   8  11
ENDBRANCH   5   8
ENDBRANCH   1   5
BRANCH   3  55
ATOM     55  CA  DAR d   1      30.904 -11.326 100.373  0.00  0.00     0.089 C 
ATOM     56  H28 DAR d   1      31.585 -10.873 101.108  0.00  0.00     0.087 H 
BRANCH  55  57
ATOM     57  CB  DAR d   1      29.681 -11.846 101.149  0.00  0.00    -0.036 C 
ATOM     58  H29 DAR d   1      29.227 -10.994 101.676  0.00  0.00     0.036 H 
ATOM     59  H30 DAR d   1      30.035 -12.585 101.883  0.00  0.00     0.036 H 
BRANCH  57  60
ATOM     60  CG  DAR d   1      28.593 -12.509 100.299  0.00  0.00    -0.048 C 
ATOM     61  H31 DAR d   1      29.055 -13.287  99.673  0.00  0.00     0.035 H 
ATOM     62  H32 DAR d   1      28.131 -11.746  99.655  0.00  0.00     0.035 H 
BRANCH  60  63
ATOM     63  CD  DAR d   1      27.507 -13.150 101.160  0.00  0.00     0.009 C 
ATOM     64  H33 DAR d   1      27.977 -13.579 102.057  0.00  0.00     0.064 H 
ATOM     65  H34 DAR d   1      27.026 -13.951 100.580  0.00  0.00     0.064 H 
BRANCH  63  66
ATOM     66  NE  DAR d   1      26.486 -12.200 101.578  0.00  0.00    -0.227 N 
ATOM     67  CZ  DAR d   1      25.376 -11.894 100.893  0.00  0.00     0.665 C 
ATOM     68  NH1 DAR d   1      24.527 -11.002 101.405  0.00  0.00    -0.235 N 
ATOM     69  NH2 DAR d   1      25.090 -12.449  99.712  0.00  0.00    -0.235 N 
ATOM     70  H36 DAR d   1      23.669 -10.755 100.892  0.00  0.00     0.174 HD
ATOM     71  H37 DAR d   1      24.730 -10.560 102.313  0.00  0.00     0.174 HD
ATOM     72  H38 DAR d   1      25.732 -13.140  99.299  0.00  0.00     0.174 HD
ATOM     73  H39 DAR d   1      24.227 -12.186  99.215  0.00  0.00     0.174 HD
ATOM     74  H35 DAR d   1      26.630 -11.722 102.479  0.00  0.00     0.177 HD
ENDBRANCH  63  66
ENDBRANCH  60  63
ENDBRANCH  57  60
ENDBRANCH  55  57
BRANCH  55  75
ATOM     75  C   DAR d   1      30.536 -10.244  99.382  0.00  0.00     0.241 C 
ATOM     76  O   DAR d   1      30.244 -10.528  98.213  0.00  0.00    -0.271 OA
ATOM     77  N   DAR d   1      30.564  -8.996  99.847  0.00  0.00    -0.345 N 
ATOM     78  H40 DAR d   1      30.854  -8.840 100.791  0.00  0.00     0.163 HD
BRANCH  77  79
ATOM     79  CA  DAR d   1      30.185  -7.844  99.025  0.00  0.00     0.096 C 
ATOM     80  H41 DAR d   1      30.505  -8.034  97.990  0.00  0.00     0.089 H 
BRANCH  79  81
ATOM     81  CB  DAR d   1      30.869  -6.570  99.517  0.00  0.00    -0.035 C 
ATOM     82  H42 DAR d   1      31.790  -6.837 100.057  0.00  0.00     0.036 H 
ATOM     83  H43 DAR d   1      30.190  -6.031 100.194  0.00  0.00     0.036 H 
BRANCH  81  84
ATOM     84  CG  DAR d   1      31.220  -5.671  98.335  0.00  0.00    -0.047 C 
ATOM     85  H44 DAR d   1      30.290  -5.339  97.852  0.00  0.00     0.035 H 
ATOM     86  H45 DAR d   1      31.822  -6.246  97.616  0.00  0.00     0.035 H 
BRANCH  84  87
ATOM     87  CD  DAR d   1      32.013  -4.446  98.773  0.00  0.00     0.009 C 
ATOM     88  H46 DAR d   1      31.922  -4.336  99.864  0.00  0.00     0.064 H 
ATOM     89  H47 DAR d   1      31.594  -3.557  98.278  0.00  0.00     0.064 H 
BRANCH  87  90
ATOM     90  NE  DAR d   1      33.423  -4.553  98.429  0.00  0.00    -0.227 N 
ATOM     91  CZ  DAR d   1      34.423  -4.585  99.320  0.00  0.00     0.665 C 
ATOM     92  NH1 DAR d   1      34.208  -4.521 100.638  0.00  0.00    -0.235 N 
ATOM     93  NH2 DAR d   1      35.676  -4.685  98.879  0.00  0.00    -0.235 N 
ATOM     94  H49 DAR d   1      35.004  -4.549 101.291  0.00  0.00     0.174 HD
ATOM     95  H50 DAR d   1      33.247  -4.444 101.000  0.00  0.00     0.174 HD
ATOM     96  H51 DAR d   1      35.864  -4.736  97.868  0.00  0.00     0.174 HD
ATOM     97  H52 DAR d   1      36.457  -4.712  99.549  0.00  0.00     0.174 HD
ATOM     98  H48 DAR d   1      33.669  -4.608  97.430  0.00  0.00     0.177 HD
ENDBRANCH  87  90
ENDBRANCH  84  87
ENDBRANCH  81  84
ENDBRANCH  79  81
BRANCH  79  99
ATOM     99  C   DAR d   1      28.692  -7.668  99.043  0.00  0.00     0.196 C 
ATOM    100  O   DAR d   1      28.108  -7.287  98.042  0.00  0.00    -0.646 OA
ATOM    101  OXT DAR d   1      28.059  -7.906 100.059  0.00  0.00    -0.646 OA
ENDBRANCH  79  99
ENDBRANCH  77  79
ENDBRANCH  55  75
ENDBRANCH   3  55
TORSDOF 21
