REMARK  10 active torsions:
REMARK  status: ('A' for Active; 'I' for Inactive)
REMARK    1  A    between atoms: C21_27  and  O3_1 
REMARK    2  A    between atoms: O3_1  and  C26_28 
REMARK       I    between atoms: C12_13  and  N1_6 
REMARK    3  A    between atoms: N1_6  and  C13_14 
REMARK    4  A    between atoms: N2_9  and  C17_34 
REMARK    5  A    between atoms: C19_21  and  C9_10 
REMARK    6  A    between atoms: C11_12  and  C12_13 
REMARK    7  A    between atoms: C2_17  and  C1_18 
REMARK       I    between atoms: N_20  and  C2_17 
REMARK    8  A    between atoms: C1_18  and  C_19 
REMARK    9  A    between atoms: C23_23  and  O2_24 
REMARK   10  A    between atoms: O2_24  and  C25_25 
ROOT
ATOM      1  C4  6F9 d   1      10.935  18.014  26.064  0.00  0.00     0.041 C 
ATOM      2  C5  6F9 d   1      11.236  15.911  24.970  0.00  0.00     0.092 A 
ATOM      3  O4  6F9 d   1      11.313  20.609  23.425  0.00  0.00    -0.273 OA
ATOM      4  C6  6F9 d   1      10.951  16.187  23.639  0.00  0.00    -0.005 A 
ATOM      5  C7  6F9 d   1       9.953  17.258  23.273  0.00  0.00     0.024 C 
ATOM      6  C8  6F9 d   1      11.599  15.456  22.653  0.00  0.00    -0.062 A 
ATOM      7  C9  6F9 d   1      12.522  14.457  22.971  0.00  0.00    -0.024 A 
ATOM      8  C10 6F9 d   1      12.796  14.200  24.321  0.00  0.00    -0.054 A 
ATOM      9  C11 6F9 d   1      12.154  14.925  25.337  0.00  0.00     0.066 A 
ATOM     10  C2  6F9 d   1      10.984  19.513  22.976  0.00  0.00     0.219 C 
ATOM     11  N   6F9 d   1      10.365  18.591  23.739  0.00  0.00    -0.346 N 
ATOM     12  O   6F9 d   1      10.590  16.617  25.963  0.00  0.00    -0.348 OA
ATOM     13  C3  6F9 d   1      10.070  18.856  25.154  0.00  0.00     0.018 C 
ATOM     14  H1  6F9 d   1      11.989  18.145  25.779  0.00  0.00     0.077 H 
ATOM     15  H2  6F9 d   1      10.792  18.345  27.103  0.00  0.00     0.077 H 
ATOM     16  H4  6F9 d   1       8.984  17.008  23.729  0.00  0.00     0.071 H 
ATOM     17  H5  6F9 d   1       9.848  17.284  22.178  0.00  0.00     0.071 H 
ATOM     18  H6  6F9 d   1      11.384  15.665  21.611  0.00  0.00     0.085 H 
ATOM     19  H8  6F9 d   1      13.513  13.431  24.584  0.00  0.00     0.086 H 
ATOM     20  H28 6F9 d   1      10.257  19.919  25.366  0.00  0.00     0.067 H 
ATOM     21  H29 6F9 d   1       9.013  18.623  25.349  0.00  0.00     0.067 H 
ENDROOT
BRANCH   9  22
ATOM     22  C12 6F9 d   1      12.437  14.607  26.774  0.00  0.00     0.254 C 
ATOM     23  N1  6F9 d   1      12.087  13.394  27.219  0.00  0.00    -0.351 N 
ATOM     24  H3  6F9 d   1      11.857  12.684  26.553  0.00  0.00     0.163 HD
ATOM     25  O1  6F9 d   1      12.877  15.468  27.526  0.00  0.00    -0.268 OA
BRANCH  23  26
ATOM     26  C13 6F9 d   1      12.029  13.069  28.647  0.00  0.00     0.036 C 
ATOM     27  C14 6F9 d   1      10.938  13.864  29.353  0.00  0.00    -0.043 C 
ATOM     28  C15 6F9 d   1      10.814  13.453  30.819  0.00  0.00    -0.041 C 
ATOM     29  H10 6F9 d   1       9.978  13.683  28.847  0.00  0.00     0.036 H 
ATOM     30  H11 6F9 d   1      11.184  14.935  29.300  0.00  0.00     0.036 H 
ATOM     31  C16 6F9 d   1      10.653  11.950  30.949  0.00  0.00     0.083 C 
ATOM     32  H12 6F9 d   1       9.936  13.948  31.259  0.00  0.00     0.035 H 
ATOM     33  H13 6F9 d   1      11.720  13.766  31.358  0.00  0.00     0.035 H 
ATOM     34  N2  6F9 d   1      11.708  11.225  30.243  0.00  0.00    -0.073 N 
ATOM     35  H35 6F9 d   1      10.688  11.680  32.015  0.00  0.00     0.075 H 
ATOM     36  H36 6F9 d   1       9.679  11.659  30.529  0.00  0.00     0.075 H 
ATOM     37  C18 6F9 d   1      11.708  11.595  28.827  0.00  0.00     0.101 C 
ATOM     38  H7  6F9 d   1      12.596  11.485  30.642  0.00  0.00     0.279 HD
ATOM     39  H30 6F9 d   1      10.715  11.389  28.402  0.00  0.00     0.079 H 
ATOM     40  H31 6F9 d   1      12.464  10.996  28.299  0.00  0.00     0.079 H 
ATOM     41  H9  6F9 d   1      13.003  13.296  29.106  0.00  0.00     0.075 H 
BRANCH  34  42
ATOM     42  C17 6F9 d   1      11.538   9.770  30.396  0.00  0.00     0.066 C 
ATOM     43  H32 6F9 d   1      11.540   9.511  31.465  0.00  0.00     0.068 H 
ATOM     44  H33 6F9 d   1      12.365   9.249  29.891  0.00  0.00     0.068 H 
ATOM     45  H34 6F9 d   1      10.582   9.463  29.947  0.00  0.00     0.068 H 
ENDBRANCH  34  42
ENDBRANCH  23  26
ENDBRANCH   9  22
BRANCH   7  46
ATOM     46  C19 6F9 d   1      13.143  13.649  21.890  0.00  0.00    -0.021 A 
ATOM     47  C24 6F9 d   1      14.493  13.281  21.933  0.00  0.00    -0.040 A 
ATOM     48  C23 6F9 d   1      15.055  12.564  20.883  0.00  0.00     0.071 A 
ATOM     49  H19 6F9 d   1      15.101  13.556  22.787  0.00  0.00     0.089 H 
ATOM     50  C22 6F9 d   1      14.290  12.193  19.786  0.00  0.00    -0.019 A 
ATOM     51  C21 6F9 d   1      12.958  12.553  19.755  0.00  0.00     0.071 A 
ATOM     52  H23 6F9 d   1      14.730  11.632  18.970  0.00  0.00     0.092 H 
ATOM     53  C20 6F9 d   1      12.380  13.267  20.790  0.00  0.00    -0.040 A 
ATOM     54  H27 6F9 d   1      11.329  13.530  20.744  0.00  0.00     0.089 H 
BRANCH  48  55
ATOM     55  O2  6F9 d   1      16.377  12.244  21.031  0.00  0.00    -0.356 OA
BRANCH  55  56
ATOM     56  C25 6F9 d   1      17.000  11.366  20.096  0.00  0.00     0.010 C 
ATOM     57  H20 6F9 d   1      18.055  11.225  20.372  0.00  0.00     0.066 H 
ATOM     58  H21 6F9 d   1      16.940  11.802  19.088  0.00  0.00     0.066 H 
ATOM     59  H22 6F9 d   1      16.485  10.394  20.107  0.00  0.00     0.066 H 
ENDBRANCH  55  56
ENDBRANCH  48  55
BRANCH  51  60
ATOM     60  O3  6F9 d   1      12.326  12.113  18.624  0.00  0.00    -0.356 OA
BRANCH  60  61
ATOM     61  C26 6F9 d   1      10.918  12.299  18.497  0.00  0.00     0.010 C 
ATOM     62  H24 6F9 d   1      10.579  11.889  17.534  0.00  0.00     0.066 H 
ATOM     63  H25 6F9 d   1      10.685  13.373  18.541  0.00  0.00     0.066 H 
ATOM     64  H26 6F9 d   1      10.404  11.778  19.318  0.00  0.00     0.066 H 
ENDBRANCH  60  61
ENDBRANCH  51  60
ENDBRANCH   7  46
BRANCH  10  65
ATOM     65  C1  6F9 d   1      11.315  19.145  21.542  0.00  0.00     0.006 C 
ATOM     66  H14 6F9 d   1      10.418  18.702  21.086  0.00  0.00     0.046 H 
ATOM     67  H15 6F9 d   1      12.125  18.401  21.557  0.00  0.00     0.046 H 
BRANCH  65  68
ATOM     68  C   6F9 d   1      11.753  20.294  20.689  0.00  0.00    -0.068 C 
ATOM     69  H16 6F9 d   1      11.970  19.934  19.672  0.00  0.00     0.028 H 
ATOM     70  H17 6F9 d   1      12.659  20.746  21.119  0.00  0.00     0.028 H 
ATOM     71  H18 6F9 d   1      10.952  21.047  20.648  0.00  0.00     0.028 H 
ENDBRANCH  65  68
ENDBRANCH  10  65
TORSDOF 10
