REMARK  8 active torsions:
REMARK  status: ('A' for Active; 'I' for Inactive)
REMARK    1  A    between atoms: C2_2  and  O12_18 
REMARK    2  A    between atoms: C20_9  and  C7_4 
REMARK    3  A    between atoms: C5_13  and  C8_5 
REMARK    4  A    between atoms: N10_16  and  C16_7 
REMARK       I    between atoms: N21_23  and  C20_9 
REMARK    5  A    between atoms: C23_25  and  C24_10 
REMARK    6  A    between atoms: C4_12  and  O11_17 
REMARK    7  A    between atoms: N21_23  and  C23_25 
REMARK    8  A    between atoms: N21_23  and  C26_27 
ROOT
ATOM      1  C2  6FJ d   1      -0.197  31.890  26.058  0.00  0.00     0.084 A 
ATOM      2  C3  6FJ d   1      -1.453  32.235  25.502  0.00  0.00    -0.017 A 
ATOM      3  C7  6FJ d   1       0.997  32.359  25.462  0.00  0.00     0.066 A 
ATOM      4  C4  6FJ d   1      -1.495  32.964  24.296  0.00  0.00     0.082 A 
ATOM      5  C5  6FJ d   1      -0.309  33.451  23.717  0.00  0.00     0.046 A 
ATOM      6  C6  6FJ d   1       0.931  33.095  24.268  0.00  0.00    -0.049 A 
ATOM      7  H2  6FJ d   1      -2.371  31.942  25.998  0.00  0.00     0.092 H 
ATOM      8  H5  6FJ d   1       1.846  33.391  23.768  0.00  0.00     0.086 H 
ENDROOT
BRANCH   3   9
ATOM      9  C20 6FJ d   1       2.370  31.979  25.900  0.00  0.00     0.256 C 
ATOM     10  N21 6FJ d   1       2.940  30.798  25.507  0.00  0.00    -0.346 N 
ATOM     11  O22 6FJ d   1       3.026  32.814  26.503  0.00  0.00    -0.267 OA
BRANCH  10  12
ATOM     12  C23 6FJ d   1       4.347  30.492  25.833  0.00  0.00     0.042 C 
ATOM     13  H10 6FJ d   1       4.776  31.311  26.429  0.00  0.00     0.074 H 
ATOM     14  H11 6FJ d   1       4.399  29.555  26.406  0.00  0.00     0.074 H 
BRANCH  12  15
ATOM     15  C24 6FJ d   1       5.121  30.343  24.541  0.00  0.00     0.070 A 
ATOM     16  C30 6FJ d   1       5.763  29.222  24.136  0.00  0.00    -0.051 A 
ATOM     17  C29 6FJ d   1       6.332  29.535  22.875  0.00  0.00    -0.059 A 
ATOM     18  H4  6FJ d   1       5.829  28.275  24.669  0.00  0.00     0.087 H 
ATOM     19  C28 6FJ d   1       6.021  30.824  22.596  0.00  0.00     0.019 A 
ATOM     20  H17 6FJ d   1       6.913  28.862  22.246  0.00  0.00     0.086 H 
ATOM     21  O27 6FJ d   1       5.276  31.304  23.601  0.00  0.00    -0.325 OA
ATOM     22  H16 6FJ d   1       6.324  31.375  21.707  0.00  0.00     0.123 H 
ENDBRANCH  12  15
ENDBRANCH  10  12
BRANCH  10  23
ATOM     23  C26 6FJ d   1       2.197  29.730  24.840  0.00  0.00    -0.015 C 
ATOM     24  H13 6FJ d   1       1.167  30.065  24.646  0.00  0.00     0.056 H 
ATOM     25  H14 6FJ d   1       2.177  28.839  25.485  0.00  0.00     0.056 H 
ATOM     26  H15 6FJ d   1       2.687  29.482  23.887  0.00  0.00     0.056 H 
ENDBRANCH  10  23
ENDBRANCH   3   9
BRANCH   1  27
ATOM     27  O12 6FJ d   1      -0.097  31.169  27.192  0.00  0.00    -0.360 OA
ATOM     28  H7  6FJ d   1      -0.966  30.919  27.484  0.00  0.00     0.217 HD
ENDBRANCH   1  27
BRANCH   5  29
ATOM     29  C8  6FJ d   1      -0.344  34.322  22.515  0.00  0.00     0.172 A 
ATOM     30  N9  6FJ d   1      -0.953  34.086  21.365  0.00  0.00    -0.151 NA
ATOM     31  N13 6FJ d   1      -0.704  35.194  20.537  0.00  0.00    -0.226 N 
ATOM     32  C14 6FJ d   1       0.044  36.077  21.244  0.00  0.00     0.349 A 
ATOM     33  H8  6FJ d   1      -1.021  35.310  19.596  0.00  0.00     0.194 HD
ATOM     34  N10 6FJ d   1       0.283  35.560  22.463  0.00  0.00    -0.241 N 
ATOM     35  O15 6FJ d   1       0.423  37.188  20.877  0.00  0.00    -0.245 OA
BRANCH  34  36
ATOM     36  C16 6FJ d   1       0.929  36.218  23.548  0.00  0.00     0.084 A 
ATOM     37  C1  6FJ d   1       0.172  36.969  24.466  0.00  0.00    -0.053 A 
ATOM     38  C25 6FJ d   1       0.799  37.606  25.540  0.00  0.00    -0.081 A 
ATOM     39  H1  6FJ d   1      -0.901  37.054  24.340  0.00  0.00     0.087 H 
ATOM     40  C19 6FJ d   1       2.170  37.527  25.724  0.00  0.00    -0.080 A 
ATOM     41  H12 6FJ d   1       0.201  38.173  26.244  0.00  0.00     0.083 H 
ATOM     42  C18 6FJ d   1       2.937  36.783  24.823  0.00  0.00    -0.043 A 
ATOM     43  H3  6FJ d   1       2.642  38.036  26.557  0.00  0.00     0.083 H 
ATOM     44  C17 6FJ d   1       2.317  36.136  23.745  0.00  0.00     0.143 A 
ATOM     45  H9  6FJ d   1       4.010  36.706  24.958  0.00  0.00     0.088 H 
ATOM     46  F31 6FJ d   1       3.053  35.430  22.863  0.00  0.00    -0.204 F 
ENDBRANCH  34  36
ENDBRANCH   5  29
BRANCH   4  47
ATOM     47  O11 6FJ d   1      -2.691  33.300  23.723  0.00  0.00    -0.360 OA
ATOM     48  H6  6FJ d   1      -3.400  32.904  24.216  0.00  0.00     0.217 HD
ENDBRANCH   4  47
TORSDOF 8
