REMARK  10 active torsions:
REMARK  status: ('A' for Active; 'I' for Inactive)
REMARK    1  A    between atoms: C1_1  and  O7_14 
REMARK    2  A    between atoms: C3_3  and  O8_15 
REMARK    3  A    between atoms: C4_11  and  C9_4 
REMARK    4  A    between atoms: N13_18  and  C14_6 
REMARK    5  A    between atoms: C26_27  and  C27_10 
REMARK    6  A    between atoms: S21_22  and  C6_13 
REMARK    7  A    between atoms: N24_25  and  S21_22 
REMARK    8  A    between atoms: C25_26  and  N24_25 
REMARK    9  A    between atoms: N24_25  and  C28_28 
REMARK   10  A    between atoms: C25_26  and  C26_27 
ROOT
ATOM      1  C1  6FF d   1      -0.030  32.140  25.665  0.00  0.00     0.091 C 
ATOM      2  C2  6FF d   1      -1.267  32.359  25.020  0.00  0.00    -0.017 C 
ATOM      3  C3  6FF d   1      -1.289  33.082  23.829  0.00  0.00     0.082 C 
ATOM      4  C4  6FF d   1      -0.104  33.654  23.331  0.00  0.00     0.047 C 
ATOM      5  C5  6FF d   1       1.117  33.400  23.957  0.00  0.00    -0.041 C 
ATOM      6  C6  6FF d   1       1.154  32.732  25.171  0.00  0.00     0.113 C 
ATOM      7  H1  6FF d   1      -2.186  31.971  25.445  0.00  0.00     0.092 H 
ATOM      8  H7  6FF d   1       2.040  33.726  23.492  0.00  0.00     0.087 H 
ENDROOT
BRANCH   4   9
ATOM      9  C9  6FF d   1      -0.125  34.512  22.133  0.00  0.00     0.172 A 
ATOM     10  N10 6FF d   1      -0.727  34.250  20.994  0.00  0.00    -0.151 NA
ATOM     11  N11 6FF d   1      -0.483  35.342  20.151  0.00  0.00    -0.226 N 
ATOM     12  C12 6FF d   1       0.243  36.262  20.828  0.00  0.00     0.349 A 
ATOM     13  H10 6FF d   1      -0.794  35.428  19.204  0.00  0.00     0.194 HD
ATOM     14  N13 6FF d   1       0.465  35.771  22.069  0.00  0.00    -0.241 N 
ATOM     15  O20 6FF d   1       0.630  37.349  20.410  0.00  0.00    -0.245 OA
BRANCH  14  16
ATOM     16  C14 6FF d   1       1.171  36.440  23.094  0.00  0.00     0.084 A 
ATOM     17  C15 6FF d   1       2.547  36.626  22.955  0.00  0.00     0.143 A 
ATOM     18  C16 6FF d   1       3.280  37.298  23.950  0.00  0.00    -0.043 A 
ATOM     19  F29 6FF d   1       3.146  36.113  21.863  0.00  0.00    -0.204 F 
ATOM     20  C17 6FF d   1       2.615  37.799  25.069  0.00  0.00    -0.080 A 
ATOM     21  H2  6FF d   1       4.352  37.425  23.848  0.00  0.00     0.088 H 
ATOM     22  C18 6FF d   1       1.240  37.629  25.207  0.00  0.00    -0.081 A 
ATOM     23  H11 6FF d   1       3.172  38.324  25.836  0.00  0.00     0.083 H 
ATOM     24  C19 6FF d   1       0.510  36.967  24.217  0.00  0.00    -0.053 A 
ATOM     25  H12 6FF d   1       0.734  38.012  26.086  0.00  0.00     0.083 H 
ATOM     26  H3  6FF d   1      -0.564  36.860  24.315  0.00  0.00     0.087 H 
ENDBRANCH  14  16
ENDBRANCH   4   9
BRANCH   3  27
ATOM     27  O8  6FF d   1      -2.450  33.277  23.152  0.00  0.00    -0.360 OA
ATOM     28  H9  6FF d   1      -3.158  32.834  23.605  0.00  0.00     0.217 HD
ENDBRANCH   3  27
BRANCH   6  29
ATOM     29  S21 6FF d   1       2.757  32.463  25.894  0.00  0.00     0.263 S 
ATOM     30  O22 6FF d   1       3.642  33.463  25.367  0.00  0.00    -0.200 OA
ATOM     31  O23 6FF d   1       2.506  32.369  27.296  0.00  0.00    -0.200 OA
BRANCH  29  32
ATOM     32  N24 6FF d   1       3.175  30.995  25.238  0.00  0.00    -0.311 N 
BRANCH  32  33
ATOM     33  C25 6FF d   1       4.110  30.934  24.097  0.00  0.00     0.004 C 
ATOM     34  H13 6FF d   1       4.491  31.949  23.908  0.00  0.00     0.065 H 
ATOM     35  H14 6FF d   1       3.556  30.580  23.215  0.00  0.00     0.065 H 
BRANCH  33  36
ATOM     36  C26 6FF d   1       5.315  29.999  24.318  0.00  0.00    -0.053 C 
ATOM     37  H15 6FF d   1       5.973  30.419  25.093  0.00  0.00     0.034 H 
ATOM     38  H16 6FF d   1       4.962  29.007  24.635  0.00  0.00     0.034 H 
BRANCH  36  39
ATOM     39  C27 6FF d   1       6.081  29.877  23.000  0.00  0.00    -0.075 C 
ATOM     40  H4  6FF d   1       6.946  29.212  23.139  0.00  0.00     0.027 H 
ATOM     41  H5  6FF d   1       6.430  30.872  22.685  0.00  0.00     0.027 H 
ATOM     42  H6  6FF d   1       5.418  29.459  22.228  0.00  0.00     0.027 H 
ENDBRANCH  36  39
ENDBRANCH  33  36
ENDBRANCH  32  33
BRANCH  32  43
ATOM     43  C28 6FF d   1       2.464  29.779  25.675  0.00  0.00    -0.009 C 
ATOM     44  H17 6FF d   1       2.868  28.906  25.141  0.00  0.00     0.057 H 
ATOM     45  H18 6FF d   1       1.392  29.881  25.452  0.00  0.00     0.057 H 
ATOM     46  H19 6FF d   1       2.602  29.642  26.758  0.00  0.00     0.057 H 
ENDBRANCH  32  43
ENDBRANCH  29  32
ENDBRANCH   6  29
BRANCH   1  47
ATOM     47  O7  6FF d   1      -0.015  31.436  26.822  0.00  0.00    -0.359 OA
ATOM     48  H8  6FF d   1      -0.889  31.110  27.005  0.00  0.00     0.217 HD
ENDBRANCH   1  47
TORSDOF 10
