REMARK  4 active torsions:
REMARK  status: ('A' for Active; 'I' for Inactive)
REMARK    1  A    between atoms: C1_1  and  O7_13 
REMARK    2  A    between atoms: C3_3  and  O8_14 
REMARK    3  A    between atoms: C9_4  and  C4_10 
REMARK    4  A    between atoms: C14_6  and  N13_17 
ROOT
ATOM      1  C9  6DL d   1       1.767   9.608  24.086  0.00  0.00     0.172 A 
ATOM      2  C12 6DL d   1       1.540   7.797  22.827  0.00  0.00     0.349 A 
ATOM      3  N10 6DL d   1       2.530   9.788  23.046  0.00  0.00    -0.151 NA
ATOM      4  N11 6DL d   1       2.383   8.659  22.236  0.00  0.00    -0.226 N 
ATOM      5  N13 6DL d   1       1.144   8.359  23.990  0.00  0.00    -0.241 N 
ATOM      6  O20 6DL d   1       1.211   6.700  22.403  0.00  0.00    -0.245 OA
ATOM      7  H7  6DL d   1       2.834   8.516  21.355  0.00  0.00     0.194 HD
ENDROOT
BRANCH   1   8
ATOM      8  C4  6DL d   1       1.700  10.561  25.206  0.00  0.00     0.047 A 
ATOM      9  C3  6DL d   1       2.855  10.841  25.966  0.00  0.00     0.082 A 
ATOM     10  C2  6DL d   1       2.812  11.694  27.060  0.00  0.00    -0.017 A 
ATOM     11  C1  6DL d   1       1.576  12.231  27.400  0.00  0.00     0.085 A 
ATOM     12  H1  6DL d   1       3.705  11.932  27.626  0.00  0.00     0.092 H 
ATOM     13  C6  6DL d   1       0.437  11.934  26.676  0.00  0.00     0.045 A 
ATOM     14  C5  6DL d   1       0.464  11.071  25.606  0.00  0.00    -0.047 A 
ATOM     15 BR   6DL d   1      -1.152  12.835  27.095  0.00  0.00    -0.048 Br
ATOM     16  H4  6DL d   1      -0.448  10.795  25.088  0.00  0.00     0.087 H 
BRANCH   9  17
ATOM     17  O8  6DL d   1       4.048  10.339  25.580  0.00  0.00    -0.360 OA
ATOM     18  H6  6DL d   1       4.720  10.616  26.192  0.00  0.00     0.217 HD
ENDBRANCH   9  17
BRANCH  11  19
ATOM     19  O7  6DL d   1       1.430  13.036  28.472  0.00  0.00    -0.359 OA
ATOM     20  H5  6DL d   1       2.275  13.167  28.886  0.00  0.00     0.217 HD
ENDBRANCH  11  19
ENDBRANCH   1   8
BRANCH   5  21
ATOM     21  C14 6DL d   1       0.221   7.761  24.882  0.00  0.00     0.084 A 
ATOM     22  C15 6DL d   1      -1.092   7.481  24.463  0.00  0.00     0.143 A 
ATOM     23  C16 6DL d   1      -2.001   6.862  25.311  0.00  0.00    -0.043 A 
ATOM     24  F21 6DL d   1      -1.504   7.823  23.229  0.00  0.00    -0.204 F 
ATOM     25  C17 6DL d   1      -1.575   6.502  26.584  0.00  0.00    -0.080 A 
ATOM     26  H2  6DL d   1      -3.017   6.665  24.988  0.00  0.00     0.088 H 
ATOM     27  C18 6DL d   1      -0.273   6.752  27.013  0.00  0.00    -0.081 A 
ATOM     28  H8  6DL d   1      -2.271   6.016  27.258  0.00  0.00     0.083 H 
ATOM     29  C19 6DL d   1       0.630   7.364  26.156  0.00  0.00    -0.053 A 
ATOM     30  H9  6DL d   1       0.033   6.469  28.014  0.00  0.00     0.083 H 
ATOM     31  H3  6DL d   1       1.652   7.534  26.475  0.00  0.00     0.087 H 
ENDBRANCH   5  21
TORSDOF 4
