REMARK  4 active torsions:
REMARK  status: ('A' for Active; 'I' for Inactive)
REMARK    1  A    between atoms: C1_1  and  O7_13 
REMARK    2  A    between atoms: C3_3  and  O8_14 
REMARK    3  A    between atoms: C9_4  and  C4_10 
REMARK    4  A    between atoms: C14_6  and  N13_17 
ROOT
ATOM      1  C9  6G7 d   1      -1.802   9.450  26.046  0.00  0.00     0.172 A 
ATOM      2  C12 6G7 d   1      -1.545   7.638  27.330  0.00  0.00     0.349 A 
ATOM      3  N10 6G7 d   1      -2.564   9.630  27.097  0.00  0.00    -0.151 NA
ATOM      4  N11 6G7 d   1      -2.371   8.503  27.927  0.00  0.00    -0.226 N 
ATOM      5  N13 6G7 d   1      -1.161   8.197  26.151  0.00  0.00    -0.241 N 
ATOM      6  O20 6G7 d   1      -1.191   6.561  27.782  0.00  0.00    -0.245 OA
ATOM      7  H8  6G7 d   1      -2.789   8.372  28.826  0.00  0.00     0.194 HD
ENDROOT
BRANCH   1   8
ATOM      8  C4  6G7 d   1      -1.737  10.359  24.911  0.00  0.00     0.045 A 
ATOM      9  C3  6G7 d   1      -2.882  10.787  24.241  0.00  0.00     0.082 A 
ATOM     10  C2  6G7 d   1      -2.776  11.569  23.112  0.00  0.00    -0.018 A 
ATOM     11  C1  6G7 d   1      -1.502  11.896  22.625  0.00  0.00     0.068 A 
ATOM     12  H1  6G7 d   1      -3.666  11.927  22.607  0.00  0.00     0.092 H 
ATOM     13  C6  6G7 d   1      -0.361  11.470  23.284  0.00  0.00    -0.050 A 
ATOM     14  C5  6G7 d   1      -0.468  10.683  24.414  0.00  0.00    -0.064 A 
ATOM     15  H5  6G7 d   1       0.617  11.754  22.913  0.00  0.00     0.087 H 
ATOM     16  H4  6G7 d   1       0.423  10.319  24.912  0.00  0.00     0.085 H 
BRANCH   9  17
ATOM     17  O8  6G7 d   1      -4.113  10.473  24.747  0.00  0.00    -0.360 OA
ATOM     18  H7  6G7 d   1      -4.787  10.832  24.182  0.00  0.00     0.217 HD
ENDBRANCH   9  17
BRANCH  11  19
ATOM     19  O7  6G7 d   1      -1.374  12.604  21.473  0.00  0.00    -0.361 OA
ATOM     20  H6  6G7 d   1      -2.236  12.824  21.140  0.00  0.00     0.217 HD
ENDBRANCH  11  19
ENDBRANCH   1   8
BRANCH   5  21
ATOM     21  C14 6G7 d   1      -0.295   7.573  25.208  0.00  0.00     0.084 A 
ATOM     22  C15 6G7 d   1       1.020   7.408  25.589  0.00  0.00     0.143 A 
ATOM     23  C16 6G7 d   1       1.951   6.863  24.707  0.00  0.00    -0.043 A 
ATOM     24  F21 6G7 d   1       1.379   7.753  26.841  0.00  0.00    -0.204 F 
ATOM     25  C17 6G7 d   1       1.533   6.462  23.433  0.00  0.00    -0.080 A 
ATOM     26  H2  6G7 d   1       2.987   6.751  25.004  0.00  0.00     0.088 H 
ATOM     27  C18 6G7 d   1       0.203   6.622  23.077  0.00  0.00    -0.081 A 
ATOM     28  H9  6G7 d   1       2.240   6.032  22.733  0.00  0.00     0.083 H 
ATOM     29  C19 6G7 d   1      -0.719   7.192  23.942  0.00  0.00    -0.053 A 
ATOM     30  H10 6G7 d   1      -0.125   6.293  22.098  0.00  0.00     0.083 H 
ATOM     31  H3  6G7 d   1      -1.749   7.337  23.636  0.00  0.00     0.087 H 
ENDBRANCH   5  21
TORSDOF 4
