REMARK  10 active torsions:
REMARK  status: ('A' for Active; 'I' for Inactive)
REMARK    1  A    between atoms: C01_1  and  O35_35 
REMARK    2  A    between atoms: S07_13  and  C04_3 
REMARK    3  A    between atoms: C03_11  and  O34_34 
REMARK    4  A    between atoms: S07_13  and  N10_15 
REMARK    5  A    between atoms: C17_17  and  N19_19 
REMARK    6  A    between atoms: N19_19  and  C20_20 
REMARK       I    between atoms: N23_23  and  C26_26 
REMARK    7  A    between atoms: C26_26  and  C27_27 
REMARK    8  A    between atoms: C27_27  and  C28_28 
REMARK    9  A    between atoms: C27_27  and  N32_32 
REMARK   10  A    between atoms: C28_28  and  C29_29 
REMARK       I    between atoms: C29_29  and  N31_31 
ROOT
ATOM      1  N19 P46 d   1     -68.640  14.273  11.854  0.00  0.00    -0.385 N 
ATOM      2  H11 P46 d   1     -68.841  15.265  12.046  0.00  0.00     0.160 HD
ENDROOT
BRANCH   1   3
ATOM      3  C17 P46 d   1     -67.351  13.967  11.355  0.00  0.00     0.028 A 
ATOM      4  C16 P46 d   1     -66.413  14.926  10.972  0.00  0.00    -0.057 A 
ATOM      5  C15 P46 d   1     -65.146  14.552  10.472  0.00  0.00    -0.072 A 
ATOM      6  H9  P46 d   1     -66.661  15.978  11.060  0.00  0.00     0.086 H 
ATOM      7  C13 P46 d   1     -64.813  13.197  10.352  0.00  0.00    -0.032 A 
ATOM      8  H7  P46 d   1     -64.432  15.314  10.181  0.00  0.00     0.084 H 
ATOM      9  C12 P46 d   1     -65.736  12.223  10.727  0.00  0.00    -0.029 A 
ATOM     10  C14 P46 d   1     -63.540  12.544   9.859  0.00  0.00     0.030 C 
ATOM     11  C11 P46 d   1     -65.118  10.843  10.493  0.00  0.00     0.030 C 
ATOM     12  C18 P46 d   1     -66.977  12.579  11.213  0.00  0.00    -0.049 A 
ATOM     13  N10 P46 d   1     -63.712  11.051  10.066  0.00  0.00    -0.298 N 
ATOM     14  H3  P46 d   1     -65.674  10.311   9.707  0.00  0.00     0.072 H 
ATOM     15  H4  P46 d   1     -65.145  10.257  11.423  0.00  0.00     0.072 H 
ATOM     16  H10 P46 d   1     -67.683  11.805  11.493  0.00  0.00     0.087 H 
ATOM     17  H5  P46 d   1     -62.678  12.910  10.435  0.00  0.00     0.072 H 
ATOM     18  H6  P46 d   1     -63.389  12.764   8.792  0.00  0.00     0.072 H 
BRANCH  13  19
ATOM     19  S07 P46 d   1     -62.839   9.952   9.203  0.00  0.00     0.264 S 
ATOM     20  O09 P46 d   1     -63.305  10.105   7.871  0.00  0.00    -0.200 OA
ATOM     21  O08 P46 d   1     -62.989   8.708   9.874  0.00  0.00    -0.200 OA
BRANCH  19  22
ATOM     22  C04 P46 d   1     -61.221  10.388   9.236  0.00  0.00     0.112 A 
ATOM     23  C05 P46 d   1     -60.580  10.837   8.073  0.00  0.00    -0.055 A 
ATOM     24  C06 P46 d   1     -59.255  11.233   8.023  0.00  0.00    -0.049 A 
ATOM     25  H2  P46 d   1     -61.158  10.876   7.157  0.00  0.00     0.086 H 
ATOM     26  C01 P46 d   1     -58.497  11.199   9.186  0.00  0.00     0.068 A 
ATOM     27  H8  P46 d   1     -58.815  11.565   7.090  0.00  0.00     0.087 H 
ATOM     28  C02 P46 d   1     -59.066  10.783  10.396  0.00  0.00    -0.018 A 
ATOM     29  C03 P46 d   1     -60.419  10.409  10.390  0.00  0.00     0.091 A 
ATOM     30  H1  P46 d   1     -58.481  10.751  11.308  0.00  0.00     0.092 H 
BRANCH  26  31
ATOM     31  O35 P46 d   1     -57.201  11.582   9.147  0.00  0.00    -0.361 OA
ATOM     32  H30 P46 d   1     -56.822  11.503  10.015  0.00  0.00     0.217 HD
ENDBRANCH  26  31
BRANCH  29  33
ATOM     33  O34 P46 d   1     -61.022   9.992  11.572  0.00  0.00    -0.359 OA
ATOM     34  H29 P46 d   1     -60.394  10.046  12.283  0.00  0.00     0.217 HD
ENDBRANCH  29  33
ENDBRANCH  19  22
ENDBRANCH  13  19
ENDBRANCH   1   3
BRANCH   1  35
ATOM     35  C20 P46 d   1     -69.708  13.323  12.122  0.00  0.00     0.012 C 
ATOM     36  C21 P46 d   1     -71.150  13.930  12.191  0.00  0.00    -0.031 C 
ATOM     37  C22 P46 d   1     -72.235  12.942  12.597  0.00  0.00    -0.001 C 
ATOM     38  H13 P46 d   1     -71.403  14.328  11.197  0.00  0.00     0.038 H 
ATOM     39  H14 P46 d   1     -71.142  14.751  12.923  0.00  0.00     0.038 H 
ATOM     40  N23 P46 d   1     -71.939  12.275  13.879  0.00  0.00    -0.350 N 
ATOM     41  H15 P46 d   1     -72.326  12.176  11.813  0.00  0.00     0.064 H 
ATOM     42  H16 P46 d   1     -73.188  13.483  12.693  0.00  0.00     0.064 H 
ATOM     43  C24 P46 d   1     -70.650  11.569  13.806  0.00  0.00    -0.001 C 
ATOM     44  C26 P46 d   1     -72.787  12.340  14.992  0.00  0.00     0.251 C 
ATOM     45  C25 P46 d   1     -69.521  12.531  13.449  0.00  0.00    -0.031 C 
ATOM     46  H17 P46 d   1     -70.712  10.785  13.037  0.00  0.00     0.064 H 
ATOM     47  H18 P46 d   1     -70.436  11.109  14.782  0.00  0.00     0.064 H 
ATOM     48  H19 P46 d   1     -69.425  13.259  14.268  0.00  0.00     0.038 H 
ATOM     49  H20 P46 d   1     -68.592  11.947  13.367  0.00  0.00     0.038 H 
ATOM     50  O33 P46 d   1     -72.428  11.740  16.014  0.00  0.00    -0.271 OA
ATOM     51  H12 P46 d   1     -69.690  12.602  11.291  0.00  0.00     0.072 H 
BRANCH  44  52
ATOM     52  C27 P46 d   1     -74.169  13.106  15.034  0.00  0.00     0.184 C 
ATOM     53  H21 P46 d   1     -74.686  12.952  14.075  0.00  0.00     0.099 H 
BRANCH  52  54
ATOM     54  C28 P46 d   1     -73.982  14.654  15.248  0.00  0.00     0.044 C 
ATOM     55  H22 P46 d   1     -72.954  14.848  15.588  0.00  0.00     0.051 H 
ATOM     56  H23 P46 d   1     -74.692  14.999  16.014  0.00  0.00     0.051 H 
BRANCH  54  57
ATOM     57  C29 P46 d   1     -74.230  15.417  13.964  0.00  0.00     0.217 C 
ATOM     58  O30 P46 d   1     -73.328  15.969  13.338  0.00  0.00    -0.274 OA
ATOM     59  N31 P46 d   1     -75.528  15.478  13.465  0.00  0.00    -0.370 N 
ATOM     60  H24 P46 d   1     -75.715  15.976  12.618  0.00  0.00     0.159 HD
ATOM     61  H25 P46 d   1     -76.273  15.024  13.953  0.00  0.00     0.159 HD
ENDBRANCH  54  57
ENDBRANCH  52  54
BRANCH  52  62
ATOM     62  N32 P46 d   1     -74.976  12.534  16.102  0.00  0.00    -0.066 N 
ATOM     63  H26 P46 d   1     -75.084  11.544  15.948  0.00  0.00     0.275 HD
ATOM     64  H27 P46 d   1     -75.883  12.974  16.110  0.00  0.00     0.275 HD
ATOM     65  H28 P46 d   1     -74.519  12.688  16.987  0.00  0.00     0.275 HD
ENDBRANCH  52  62
ENDBRANCH  44  52
ENDBRANCH   1  35
TORSDOF 10
