REMARK  10 active torsions:
REMARK  status: ('A' for Active; 'I' for Inactive)
REMARK    1  A    between atoms: C2_2  and  O12_18 
REMARK    2  A    between atoms: C20_9  and  C7_4 
REMARK    3  A    between atoms: C5_13  and  C8_5 
REMARK    4  A    between atoms: N10_16  and  C16_7 
REMARK       I    between atoms: N21_23  and  C20_9 
REMARK    5  A    between atoms: C23_25  and  C24_10 
REMARK    6  A    between atoms: C24_10  and  C28_28 
REMARK    7  A    between atoms: C28_28  and  C27_11 
REMARK    8  A    between atoms: C4_12  and  O11_17 
REMARK    9  A    between atoms: N21_23  and  C23_25 
REMARK   10  A    between atoms: N21_23  and  C26_27 
ROOT
ATOM      1  C2  6GC d   1     -33.066 -12.208  23.138  0.00  0.00     0.084 A 
ATOM      2  C3  6GC d   1     -31.776 -11.878  23.597  0.00  0.00    -0.017 A 
ATOM      3  C7  6GC d   1     -34.209 -11.766  23.848  0.00  0.00     0.066 A 
ATOM      4  C4  6GC d   1     -31.619 -11.136  24.769  0.00  0.00     0.082 A 
ATOM      5  C5  6GC d   1     -32.759 -10.691  25.474  0.00  0.00     0.046 A 
ATOM      6  C6  6GC d   1     -34.032 -11.038  25.026  0.00  0.00    -0.049 A 
ATOM      7  H2  6GC d   1     -30.904 -12.201  23.040  0.00  0.00     0.092 H 
ATOM      8  H9  6GC d   1     -34.900 -10.738  25.602  0.00  0.00     0.086 H 
ENDROOT
BRANCH   3   9
ATOM      9  C20 6GC d   1     -35.616 -12.145  23.573  0.00  0.00     0.256 C 
ATOM     10  N21 6GC d   1     -36.082 -13.366  23.990  0.00  0.00    -0.352 N 
ATOM     11  O22 6GC d   1     -36.396 -11.311  23.127  0.00  0.00    -0.267 OA
BRANCH  10  12
ATOM     12  C23 6GC d   1     -37.508 -13.712  23.888  0.00  0.00    -0.003 C 
ATOM     13  H14 6GC d   1     -37.973 -13.108  23.095  0.00  0.00     0.064 H 
ATOM     14  H15 6GC d   1     -37.606 -14.779  23.641  0.00  0.00     0.064 H 
BRANCH  12  15
ATOM     15  C24 6GC d   1     -38.221 -13.431  25.228  0.00  0.00    -0.050 C 
ATOM     16  H4  6GC d   1     -38.318 -12.345  25.374  0.00  0.00     0.035 H 
ATOM     17  H5  6GC d   1     -37.637 -13.861  26.055  0.00  0.00     0.035 H 
BRANCH  15  18
ATOM     18  C28 6GC d   1     -39.614 -14.073  25.192  0.00  0.00    -0.067 C 
ATOM     19  H20 6GC d   1     -39.751 -14.612  24.243  0.00  0.00     0.032 H 
ATOM     20  H21 6GC d   1     -40.385 -13.294  25.285  0.00  0.00     0.032 H 
BRANCH  18  21
ATOM     21  C27 6GC d   1     -39.722 -15.046  26.357  0.00  0.00    -0.076 C 
ATOM     22  H6  6GC d   1     -40.715 -15.518  26.349  0.00  0.00     0.027 H 
ATOM     23  H7  6GC d   1     -39.582 -14.502  27.303  0.00  0.00     0.027 H 
ATOM     24  H8  6GC d   1     -38.947 -15.821  26.261  0.00  0.00     0.027 H 
ENDBRANCH  18  21
ENDBRANCH  15  18
ENDBRANCH  12  15
ENDBRANCH  10  12
BRANCH  10  25
ATOM     25  C26 6GC d   1     -35.185 -14.407  24.520  0.00  0.00    -0.016 C 
ATOM     26  H17 6GC d   1     -34.154 -14.025  24.545  0.00  0.00     0.056 H 
ATOM     27  H18 6GC d   1     -35.231 -15.295  23.873  0.00  0.00     0.056 H 
ATOM     28  H19 6GC d   1     -35.500 -14.679  25.538  0.00  0.00     0.056 H 
ENDBRANCH  10  25
ENDBRANCH   3   9
BRANCH   1  29
ATOM     29  O12 6GC d   1     -33.228 -12.936  22.019  0.00  0.00    -0.360 OA
ATOM     30  H11 6GC d   1     -32.377 -13.155  21.659  0.00  0.00     0.217 HD
ENDBRANCH   1  29
BRANCH   5  31
ATOM     31  C8  6GC d   1     -32.658  -9.824  26.669  0.00  0.00     0.172 A 
ATOM     32  N9  6GC d   1     -31.966 -10.057  27.760  0.00  0.00    -0.151 NA
ATOM     33  N13 6GC d   1     -32.196  -8.986  28.627  0.00  0.00    -0.226 N 
ATOM     34  C14 6GC d   1     -33.032  -8.109  28.015  0.00  0.00     0.349 A 
ATOM     35  H12 6GC d   1     -31.810  -8.883  29.544  0.00  0.00     0.194 HD
ATOM     36  N10 6GC d   1     -33.318  -8.603  26.786  0.00  0.00    -0.241 N 
ATOM     37  O15 6GC d   1     -33.447  -7.046  28.477  0.00  0.00    -0.245 OA
BRANCH  36  38
ATOM     38  C16 6GC d   1     -34.132  -7.977  25.803  0.00  0.00     0.084 A 
ATOM     39  C1  6GC d   1     -33.565  -7.434  24.635  0.00  0.00    -0.053 A 
ATOM     40  C25 6GC d   1     -34.364  -6.835  23.664  0.00  0.00    -0.081 A 
ATOM     41  H1  6GC d   1     -32.492  -7.483  24.489  0.00  0.00     0.087 H 
ATOM     42  C19 6GC d   1     -35.743  -6.769  23.855  0.00  0.00    -0.080 A 
ATOM     43  H16 6GC d   1     -33.917  -6.423  22.767  0.00  0.00     0.083 H 
ATOM     44  C18 6GC d   1     -36.332  -7.309  25.004  0.00  0.00    -0.043 A 
ATOM     45  H3  6GC d   1     -36.366  -6.294  23.106  0.00  0.00     0.083 H 
ATOM     46  C17 6GC d   1     -35.525  -7.913  25.973  0.00  0.00     0.143 A 
ATOM     47  H13 6GC d   1     -37.406  -7.259  25.142  0.00  0.00     0.088 H 
ATOM     48  F29 6GC d   1     -36.079  -8.430  27.085  0.00  0.00    -0.204 F 
ENDBRANCH  36  38
ENDBRANCH   5  31
BRANCH   4  49
ATOM     49  O11 6GC d   1     -30.388 -10.820  25.241  0.00  0.00    -0.360 OA
ATOM     50  H10 6GC d   1     -29.726 -11.185  24.666  0.00  0.00     0.217 HD
ENDBRANCH   4  49
TORSDOF 10
