REMARK  8 active torsions:
REMARK  status: ('A' for Active; 'I' for Inactive)
REMARK    1  A    between atoms: C2_2  and  O12_18 
REMARK    2  A    between atoms: C20_9  and  C7_4 
REMARK    3  A    between atoms: C5_13  and  C8_5 
REMARK    4  A    between atoms: N10_16  and  C16_7 
REMARK       I    between atoms: N21_23  and  C20_9 
REMARK    5  A    between atoms: C23_25  and  C24_10 
REMARK    6  A    between atoms: C4_12  and  O11_17 
REMARK    7  A    between atoms: N21_23  and  C23_25 
REMARK    8  A    between atoms: N21_23  and  C26_27 
ROOT
ATOM      1  C2  6FJ d   1      -0.604  32.571  26.052  0.00  0.00     0.084 A 
ATOM      2  C3  6FJ d   1      -1.891  32.865  25.570  0.00  0.00    -0.017 A 
ATOM      3  C7  6FJ d   1       0.538  33.039  25.373  0.00  0.00     0.066 A 
ATOM      4  C4  6FJ d   1      -2.017  33.591  24.375  0.00  0.00     0.082 A 
ATOM      5  C5  6FJ d   1      -0.872  34.069  23.706  0.00  0.00     0.046 A 
ATOM      6  C6  6FJ d   1       0.404  33.727  24.167  0.00  0.00    -0.049 A 
ATOM      7  H2  6FJ d   1      -2.771  32.537  26.111  0.00  0.00     0.092 H 
ATOM      8  H5  6FJ d   1       1.282  33.995  23.591  0.00  0.00     0.086 H 
ENDROOT
BRANCH   3   9
ATOM      9  C20 6FJ d   1       1.935  32.715  25.737  0.00  0.00     0.256 C 
ATOM     10  N21 6FJ d   1       2.449  31.497  25.373  0.00  0.00    -0.346 N 
ATOM     11  O22 6FJ d   1       2.634  33.603  26.225  0.00  0.00    -0.267 OA
BRANCH  10  12
ATOM     12  C23 6FJ d   1       3.876  31.181  25.566  0.00  0.00     0.042 C 
ATOM     13  H10 6FJ d   1       4.392  32.038  26.023  0.00  0.00     0.074 H 
ATOM     14  H11 6FJ d   1       3.981  30.301  26.217  0.00  0.00     0.074 H 
BRANCH  12  15
ATOM     15  C24 6FJ d   1       4.465  30.889  24.202  0.00  0.00     0.070 A 
ATOM     16  C30 6FJ d   1       5.113  29.761  23.838  0.00  0.00    -0.051 A 
ATOM     17  C29 6FJ d   1       5.469  29.908  22.467  0.00  0.00    -0.059 A 
ATOM     18  H4  6FJ d   1       5.323  28.902  24.473  0.00  0.00     0.087 H 
ATOM     19  C28 6FJ d   1       4.989  31.109  22.089  0.00  0.00     0.019 A 
ATOM     20  H17 6FJ d   1       6.016  29.196  21.851  0.00  0.00     0.086 H 
ATOM     21  O27 6FJ d   1       4.367  31.701  23.142  0.00  0.00    -0.325 OA
ATOM     22  H16 6FJ d   1       5.085  31.539  21.093  0.00  0.00     0.123 H 
ENDBRANCH  12  15
ENDBRANCH  10  12
BRANCH  10  23
ATOM     23  C26 6FJ d   1       1.617  30.414  24.829  0.00  0.00    -0.015 C 
ATOM     24  H13 6FJ d   1       0.579  30.764  24.729  0.00  0.00     0.056 H 
ATOM     25  H14 6FJ d   1       1.649  29.550  25.509  0.00  0.00     0.056 H 
ATOM     26  H15 6FJ d   1       2.000  30.118  23.841  0.00  0.00     0.056 H 
ENDBRANCH  10  23
ENDBRANCH   3   9
BRANCH   1  27
ATOM     27  O12 6FJ d   1      -0.413  31.899  27.202  0.00  0.00    -0.360 OA
ATOM     28  H7  6FJ d   1      -1.254  31.639  27.559  0.00  0.00     0.217 HD
ENDBRANCH   1  27
BRANCH   5  29
ATOM     29  C8  6FJ d   1      -0.988  34.911  22.497  0.00  0.00     0.172 A 
ATOM     30  N9  6FJ d   1      -1.635  34.627  21.405  0.00  0.00    -0.151 NA
ATOM     31  N13 6FJ d   1      -1.490  35.716  20.532  0.00  0.00    -0.226 N 
ATOM     32  C14 6FJ d   1      -0.757  36.665  21.177  0.00  0.00     0.349 A 
ATOM     33  H8  6FJ d   1      -1.858  35.783  19.605  0.00  0.00     0.194 HD
ATOM     34  N10 6FJ d   1      -0.421  36.175  22.392  0.00  0.00    -0.241 N 
ATOM     35  O15 6FJ d   1      -0.430  37.769  20.751  0.00  0.00    -0.245 OA
BRANCH  34  36
ATOM     36  C16 6FJ d   1       0.363  36.834  23.383  0.00  0.00     0.084 A 
ATOM     37  C1  6FJ d   1      -0.245  37.532  24.431  0.00  0.00    -0.053 A 
ATOM     38  C25 6FJ d   1       0.542  38.144  25.406  0.00  0.00    -0.081 A 
ATOM     39  H1  6FJ d   1      -1.326  37.597  24.485  0.00  0.00     0.087 H 
ATOM     40  C19 6FJ d   1       1.934  38.072  25.332  0.00  0.00    -0.080 A 
ATOM     41  H12 6FJ d   1       0.071  38.677  26.224  0.00  0.00     0.083 H 
ATOM     42  C18 6FJ d   1       2.552  37.358  24.304  0.00  0.00    -0.043 A 
ATOM     43  H3  6FJ d   1       2.539  38.574  26.078  0.00  0.00     0.083 H 
ATOM     44  C17 6FJ d   1       1.759  36.753  23.326  0.00  0.00     0.143 A 
ATOM     45  H9  6FJ d   1       3.632  37.274  24.265  0.00  0.00     0.088 H 
ATOM     46  F31 6FJ d   1       2.316  36.075  22.302  0.00  0.00    -0.204 F 
ENDBRANCH  34  36
ENDBRANCH   5  29
BRANCH   4  47
ATOM     47  O11 6FJ d   1      -3.244  33.888  23.863  0.00  0.00    -0.360 OA
ATOM     48  H6  6FJ d   1      -3.917  33.504  24.413  0.00  0.00     0.217 HD
ENDBRANCH   4  47
TORSDOF 8
