REMARK  10 active torsions:
REMARK  status: ('A' for Active; 'I' for Inactive)
REMARK    1  A    between atoms: C1_1  and  O7_14 
REMARK    2  A    between atoms: C3_3  and  O8_15 
REMARK    3  A    between atoms: C4_11  and  C9_4 
REMARK    4  A    between atoms: N13_18  and  C14_6 
REMARK    5  A    between atoms: C26_27  and  C27_10 
REMARK    6  A    between atoms: S21_22  and  C6_13 
REMARK    7  A    between atoms: N24_25  and  S21_22 
REMARK    8  A    between atoms: C25_26  and  N24_25 
REMARK    9  A    between atoms: N24_25  and  C28_28 
REMARK   10  A    between atoms: C25_26  and  C26_27 
ROOT
ATOM      1  C1  6FF d   1      -0.825  31.998  26.520  0.00  0.00     0.091 A 
ATOM      2  C2  6FF d   1      -2.058  32.306  25.949  0.00  0.00    -0.017 A 
ATOM      3  C3  6FF d   1      -2.097  33.050  24.787  0.00  0.00     0.082 A 
ATOM      4  C4  6FF d   1      -0.891  33.454  24.167  0.00  0.00     0.047 A 
ATOM      5  C5  6FF d   1       0.333  33.136  24.750  0.00  0.00    -0.041 A 
ATOM      6  C6  6FF d   1       0.377  32.456  25.943  0.00  0.00     0.113 A 
ATOM      7  H1  6FF d   1      -2.977  31.965  26.412  0.00  0.00     0.092 H 
ATOM      8  H7  6FF d   1       1.255  33.426  24.260  0.00  0.00     0.087 H 
ENDROOT
BRANCH   4   9
ATOM      9  C9  6FF d   1      -0.887  34.320  22.976  0.00  0.00     0.172 A 
ATOM     10  N10 6FF d   1      -1.555  34.100  21.875  0.00  0.00    -0.151 NA
ATOM     11  N11 6FF d   1      -1.314  35.167  21.022  0.00  0.00    -0.226 N 
ATOM     12  C12 6FF d   1      -0.504  36.052  21.647  0.00  0.00     0.349 A 
ATOM     13  H10 6FF d   1      -1.679  35.266  20.096  0.00  0.00     0.194 HD
ATOM     14  N13 6FF d   1      -0.230  35.552  22.875  0.00  0.00    -0.241 N 
ATOM     15  O20 6FF d   1      -0.116  37.119  21.188  0.00  0.00    -0.245 OA
BRANCH  14  16
ATOM     16  C14 6FF d   1       0.533  36.181  23.883  0.00  0.00     0.084 A 
ATOM     17  C15 6FF d   1       1.929  36.111  23.846  0.00  0.00     0.143 A 
ATOM     18  C16 6FF d   1       2.693  36.720  24.849  0.00  0.00    -0.043 A 
ATOM     19  F29 6FF d   1       2.520  35.498  22.795  0.00  0.00    -0.204 F 
ATOM     20  C17 6FF d   1       2.058  37.359  25.916  0.00  0.00    -0.080 A 
ATOM     21  H2  6FF d   1       3.776  36.696  24.797  0.00  0.00     0.088 H 
ATOM     22  C18 6FF d   1       0.668  37.441  25.959  0.00  0.00    -0.081 A 
ATOM     23  H11 6FF d   1       2.649  37.793  26.714  0.00  0.00     0.083 H 
ATOM     24  C19 6FF d   1      -0.093  36.860  24.939  0.00  0.00    -0.053 A 
ATOM     25  H12 6FF d   1       0.178  37.953  26.779  0.00  0.00     0.083 H 
ATOM     26  H3  6FF d   1      -1.174  36.935  24.965  0.00  0.00     0.087 H 
ENDBRANCH  14  16
ENDBRANCH   4   9
BRANCH   3  27
ATOM     27  O8  6FF d   1      -3.314  33.350  24.263  0.00  0.00    -0.360 OA
ATOM     28  H9  6FF d   1      -3.995  32.993  24.822  0.00  0.00     0.217 HD
ENDBRANCH   3  27
BRANCH   6  29
ATOM     29  S21 6FF d   1       1.982  32.065  26.581  0.00  0.00     0.263 S 
ATOM     30  O22 6FF d   1       2.884  33.017  25.987  0.00  0.00    -0.200 OA
ATOM     31  O23 6FF d   1       1.818  32.021  27.997  0.00  0.00    -0.200 OA
BRANCH  29  32
ATOM     32  N24 6FF d   1       2.244  30.587  25.890  0.00  0.00    -0.311 N 
BRANCH  32  33
ATOM     33  C25 6FF d   1       3.075  30.426  24.666  0.00  0.00     0.004 C 
ATOM     34  H13 6FF d   1       3.351  31.423  24.293  0.00  0.00     0.065 H 
ATOM     35  H14 6FF d   1       2.482  29.900  23.903  0.00  0.00     0.065 H 
BRANCH  33  36
ATOM     36  C26 6FF d   1       4.364  29.622  24.932  0.00  0.00    -0.053 C 
ATOM     37  H15 6FF d   1       5.060  30.225  25.533  0.00  0.00     0.034 H 
ATOM     38  H16 6FF d   1       4.119  28.696  25.473  0.00  0.00     0.034 H 
BRANCH  36  39
ATOM     39  C27 6FF d   1       5.007  29.279  23.589  0.00  0.00    -0.075 C 
ATOM     40  H4  6FF d   1       5.929  28.704  23.760  0.00  0.00     0.027 H 
ATOM     41  H5  6FF d   1       5.248  30.207  23.050  0.00  0.00     0.027 H 
ATOM     42  H6  6FF d   1       4.307  28.678  22.990  0.00  0.00     0.027 H 
ENDBRANCH  36  39
ENDBRANCH  33  36
ENDBRANCH  32  33
BRANCH  32  43
ATOM     43  C28 6FF d   1       1.516  29.450  26.420  0.00  0.00    -0.009 C 
ATOM     44  H17 6FF d   1       1.794  28.544  25.862  0.00  0.00     0.057 H 
ATOM     45  H18 6FF d   1       0.435  29.626  26.317  0.00  0.00     0.057 H 
ATOM     46  H19 6FF d   1       1.766  29.317  27.483  0.00  0.00     0.057 H 
ENDBRANCH  32  43
ENDBRANCH  29  32
ENDBRANCH   6  29
BRANCH   1  47
ATOM     47  O7  6FF d   1      -0.833  31.322  27.690  0.00  0.00    -0.359 OA
ATOM     48  H8  6FF d   1      -1.727  31.097  27.918  0.00  0.00     0.217 HD
ENDBRANCH   1  47
TORSDOF 10
