REMARK  3 active torsions:
REMARK  status: ('A' for Active; 'I' for Inactive)
REMARK    1  A    between atoms: C2_1  and  C10_9 
REMARK    2  A    between atoms: C4_3  and  O9_8 
REMARK    3  A    between atoms: C5_4  and  O8_7 
ROOT
ATOM      1  C10 6H2 d   1     -18.935  -0.585 -24.642  0.00  0.00     0.085 A 
ATOM      2  N11 6H2 d   1     -19.729  -1.342 -23.824  0.00  0.00    -0.229 NA
ATOM      3  C12 6H2 d   1     -19.629  -0.807 -22.602  0.00  0.00     0.134 A 
ATOM      4  N13 6H2 d   1     -18.777   0.289 -22.645  0.00  0.00    -0.315 N 
ATOM      5  C14 6H2 d   1     -18.342   0.377 -23.925  0.00  0.00     0.015 A 
ATOM      6  C15 6H2 d   1     -20.200  -1.096 -21.377  0.00  0.00    -0.038 A 
ATOM      7  C16 6H2 d   1     -19.875  -0.320 -20.284  0.00  0.00    -0.078 A 
ATOM      8  C17 6H2 d   1     -19.005   0.751 -20.367  0.00  0.00    -0.067 A 
ATOM      9  C18 6H2 d   1     -18.460   1.046 -21.566  0.00  0.00    -0.014 A 
ATOM     10  H6  6H2 d   1     -17.630   1.107 -24.306  0.00  0.00     0.116 H 
ATOM     11  H7  6H2 d   1     -20.898  -1.926 -21.276  0.00  0.00     0.089 H 
ATOM     12  H8  6H2 d   1     -20.320  -0.560 -19.320  0.00  0.00     0.083 H 
ATOM     13  H9  6H2 d   1     -18.765   1.343 -19.485  0.00  0.00     0.085 H 
ATOM     14  H10 6H2 d   1     -17.772   1.884 -21.666  0.00  0.00     0.112 H 
ENDROOT
BRANCH   1  15
ATOM     15  C2  6H2 d   1     -18.676  -0.926 -26.060  0.00  0.00    -0.003 A 
ATOM     16  C3  6H2 d   1     -18.339   0.109 -26.933  0.00  0.00    -0.036 A 
ATOM     17  C4  6H2 d   1     -17.991  -0.162 -28.249  0.00  0.00     0.099 A 
ATOM     18  H1  6H2 d   1     -18.349   1.134 -26.580  0.00  0.00     0.089 H 
ATOM     19  C5  6H2 d   1     -17.894  -1.474 -28.698  0.00  0.00     0.098 A 
ATOM     20  C6  6H2 d   1     -18.170  -2.535 -27.823  0.00  0.00    -0.047 A 
ATOM     21  C7  6H2 d   1     -18.531  -2.260 -26.490  0.00  0.00    -0.068 A 
ATOM     22  H2  6H2 d   1     -18.106  -3.560 -28.171  0.00  0.00     0.087 H 
ATOM     23  H3  6H2 d   1     -18.697  -3.075 -25.794  0.00  0.00     0.085 H 
BRANCH  17  24
ATOM     24  O9  6H2 d   1     -17.739   0.884 -29.086  0.00  0.00    -0.358 OA
ATOM     25  H5  6H2 d   1     -17.852   1.700 -28.614  0.00  0.00     0.217 HD
ENDBRANCH  17  24
BRANCH  19  26
ATOM     26  O8  6H2 d   1     -17.552  -1.692 -30.007  0.00  0.00    -0.358 OA
ATOM     27  H4  6H2 d   1     -17.404  -0.858 -30.438  0.00  0.00     0.217 HD
ENDBRANCH  19  26
ENDBRANCH   1  15
TORSDOF 3
