REMARK  10 active torsions:
REMARK  status: ('A' for Active; 'I' for Inactive)
REMARK    1  A    between atoms: C9_13  and  C6_9 
REMARK    2  A    between atoms: N10_14  and  C9_13 
REMARK    3  A    between atoms: N10_14  and  CM_15 
REMARK    4  A    between atoms: C14_19  and  N10_14 
REMARK    5  A    between atoms: C11_16  and  C_22 
REMARK    6  A    between atoms: N_24  and  CA_25 
REMARK    7  A    between atoms: CA_25  and  CT_26 
REMARK    8  A    between atoms: CA_25  and  CB_29 
REMARK    9  A    between atoms: CB_29  and  CG_30 
REMARK   10  A    between atoms: CG_30  and  CD_31 
ROOT
ATOM      1  C11 MTX d   1     -18.465  18.647  24.540  0.00  0.00     0.018 A 
ATOM      2  C12 MTX d   1     -17.483  19.297  23.772  0.00  0.00    -0.067 A 
ATOM      3  C13 MTX d   1     -16.650  20.294  24.324  0.00  0.00    -0.056 A 
ATOM      4  C14 MTX d   1     -16.765  20.627  25.685  0.00  0.00     0.030 A 
ATOM      5  C15 MTX d   1     -17.769  19.979  26.440  0.00  0.00    -0.056 A 
ATOM      6  C16 MTX d   1     -18.605  19.014  25.872  0.00  0.00    -0.067 A 
ATOM      7  H11 MTX d   1     -17.363  19.026  22.730  0.00  0.00     0.085 H 
ATOM      8  H12 MTX d   1     -15.923  20.802  23.700  0.00  0.00     0.086 H 
ATOM      9  H13 MTX d   1     -17.893  20.237  27.485  0.00  0.00     0.086 H 
ATOM     10  H14 MTX d   1     -19.372  18.546  26.479  0.00  0.00     0.085 H 
ENDROOT
BRANCH   4  11
ATOM     11  N10 MTX d   1     -16.037  21.683  26.365  0.00  0.00    -0.379 N 
BRANCH  11  12
ATOM     12  C9  MTX d   1     -14.629  21.965  26.651  0.00  0.00     0.036 C 
ATOM     13  H6  MTX d   1     -13.974  21.711  25.805  0.00  0.00     0.073 H 
ATOM     14  H7  MTX d   1     -14.466  23.014  26.939  0.00  0.00     0.073 H 
BRANCH  12  15
ATOM     15  C6  MTX d   1     -14.456  21.047  27.780  0.00  0.00     0.070 A 
ATOM     16  N5  MTX d   1     -14.232  19.807  27.304  0.00  0.00    -0.242 NA
ATOM     17  C4A MTX d   1     -14.097  18.778  28.155  0.00  0.00     0.151 A 
ATOM     18  C4  MTX d   1     -13.856  17.557  27.575  0.00  0.00     0.173 A 
ATOM     19  C8A MTX d   1     -14.212  18.985  29.532  0.00  0.00     0.201 A 
ATOM     20  N3  MTX d   1     -13.718  16.471  28.413  0.00  0.00    -0.043 NA
ATOM     21  NA4 MTX d   1     -13.783  17.458  26.239  0.00  0.00    -0.381 N 
ATOM     22  C2  MTX d   1     -13.814  16.641  29.777  0.00  0.00     0.724 A 
ATOM     23  N1  MTX d   1     -14.057  17.881  30.345  0.00  0.00    -0.041 NA
ATOM     24  NA2 MTX d   1     -13.666  15.587  30.548  0.00  0.00    -0.231 N 
ATOM     25  H1  MTX d   1     -13.733  15.684  31.571  0.00  0.00     0.174 HD
ATOM     26  H2  MTX d   1     -13.483  14.664  30.129  0.00  0.00     0.174 HD
ATOM     27  H3  MTX d   1     -13.893  18.298  25.654  0.00  0.00     0.157 HD
ATOM     28  H4  MTX d   1     -13.617  16.542  25.799  0.00  0.00     0.157 HD
ATOM     29  N8  MTX d   1     -14.467  20.273  30.027  0.00  0.00    -0.237 NA
ATOM     30  C7  MTX d   1     -14.605  21.339  29.137  0.00  0.00     0.030 A 
ATOM     31  H5  MTX d   1     -14.817  22.344  29.482  0.00  0.00     0.118 H 
ENDBRANCH  12  15
ENDBRANCH  11  12
BRANCH  11  32
ATOM     32  CM  MTX d   1     -16.910  22.725  26.939  0.00  0.00    -0.018 C 
ATOM     33  H8  MTX d   1     -17.960  22.490  26.711  0.00  0.00     0.056 H 
ATOM     34  H9  MTX d   1     -16.650  23.701  26.505  0.00  0.00     0.056 H 
ATOM     35  H10 MTX d   1     -16.771  22.760  28.030  0.00  0.00     0.056 H 
ENDBRANCH  11  32
ENDBRANCH   4  11
BRANCH   1  36
ATOM     36  C   MTX d   1     -19.430  17.619  23.980  0.00  0.00     0.185 C 
ATOM     37  O   MTX d   1     -20.115  16.750  24.845  0.00  0.00    -0.172 OA
ATOM     38  N   MTX d   1     -19.725  17.609  22.676  0.00  0.00    -0.353 N 
ATOM     39  H15 MTX d   1     -19.302  18.307  22.098  0.00  0.00     0.162 HD
BRANCH  38  40
ATOM     40  CA  MTX d   1     -20.626  16.646  22.033  0.00  0.00     0.096 C 
ATOM     41  H16 MTX d   1     -20.637  15.747  22.666  0.00  0.00     0.089 H 
BRANCH  40  42
ATOM     42  CT  MTX d   1     -20.075  16.240  20.680  0.00  0.00     0.196 C 
ATOM     43  O1  MTX d   1     -20.645  15.405  19.959  0.00  0.00    -0.646 OA
ATOM     44  O2  MTX d   1     -19.014  16.731  20.229  0.00  0.00    -0.646 OA
ENDBRANCH  40  42
BRANCH  40  45
ATOM     45  CB  MTX d   1     -22.089  17.130  21.928  0.00  0.00    -0.028 C 
ATOM     46  H17 MTX d   1     -22.405  17.460  22.928  0.00  0.00     0.037 H 
ATOM     47  H18 MTX d   1     -22.703  16.274  21.613  0.00  0.00     0.037 H 
BRANCH  45  48
ATOM     48  CG  MTX d   1     -22.356  18.278  20.953  0.00  0.00     0.018 C 
ATOM     49  H19 MTX d   1     -22.013  17.986  19.950  0.00  0.00     0.049 H 
ATOM     50  H20 MTX d   1     -21.802  19.169  21.285  0.00  0.00     0.049 H 
BRANCH  48  51
ATOM     51  CD  MTX d   1     -23.836  18.605  20.897  0.00  0.00     0.172 C 
ATOM     52  OE1 MTX d   1     -24.577  18.149  20.010  0.00  0.00    -0.648 OA
ATOM     53  OE2 MTX d   1     -24.385  19.355  21.746  0.00  0.00    -0.648 OA
ENDBRANCH  48  51
ENDBRANCH  45  48
ENDBRANCH  40  45
ENDBRANCH  38  40
ENDBRANCH   1  36
TORSDOF 10
