REMARK  10 active torsions:
REMARK  status: ('A' for Active; 'I' for Inactive)
REMARK    1  A    between atoms: C1_1  and  O7_14 
REMARK    2  A    between atoms: C3_3  and  O8_15 
REMARK    3  A    between atoms: C4_11  and  C9_4 
REMARK    4  A    between atoms: N13_18  and  C14_6 
REMARK    5  A    between atoms: C26_27  and  C27_10 
REMARK    6  A    between atoms: S21_22  and  C6_13 
REMARK    7  A    between atoms: N24_25  and  S21_22 
REMARK    8  A    between atoms: N24_25  and  C25_26 
REMARK    9  A    between atoms: N24_25  and  C26_27 
REMARK   10  A    between atoms: C26_27  and  C28_28 
ROOT
ATOM      1  C1  6GV d   1      -0.691  33.039 -23.132  0.00  0.00     0.091 A 
ATOM      2  C2  6GV d   1      -1.958  33.312 -23.651  0.00  0.00    -0.017 A 
ATOM      3  C3  6GV d   1      -2.073  34.058 -24.814  0.00  0.00     0.082 A 
ATOM      4  C4  6GV d   1      -0.931  34.549 -25.444  0.00  0.00     0.047 A 
ATOM      5  C5  6GV d   1       0.323  34.248 -24.933  0.00  0.00    -0.041 A 
ATOM      6  C6  6GV d   1       0.464  33.541 -23.770  0.00  0.00     0.113 A 
ATOM      7  H1  6GV d   1      -2.845  32.944 -23.148  0.00  0.00     0.092 H 
ATOM      8  H7  6GV d   1       1.208  34.579 -25.465  0.00  0.00     0.087 H 
ENDROOT
BRANCH   4   9
ATOM      9  C9  6GV d   1      -0.987  35.432 -26.620  0.00  0.00     0.172 A 
ATOM     10  N10 6GV d   1      -1.646  35.213 -27.723  0.00  0.00    -0.151 NA
ATOM     11  N11 6GV d   1      -1.394  36.312 -28.559  0.00  0.00    -0.226 N 
ATOM     12  C12 6GV d   1      -0.569  37.172 -27.912  0.00  0.00     0.349 A 
ATOM     13  H10 6GV d   1      -1.762  36.440 -29.480  0.00  0.00     0.194 HD
ATOM     14  N13 6GV d   1      -0.312  36.648 -26.705  0.00  0.00    -0.241 N 
ATOM     15  O20 6GV d   1      -0.118  38.236 -28.308  0.00  0.00    -0.245 OA
BRANCH  14  16
ATOM     16  C14 6GV d   1       0.498  37.272 -25.716  0.00  0.00     0.084 A 
ATOM     17  C15 6GV d   1       1.907  37.219 -25.766  0.00  0.00     0.143 A 
ATOM     18  C16 6GV d   1       2.680  37.815 -24.765  0.00  0.00    -0.043 A 
ATOM     19  F   6GV d   1       2.527  36.573 -26.774  0.00  0.00    -0.204 F 
ATOM     20  C17 6GV d   1       2.049  38.493 -23.721  0.00  0.00    -0.080 A 
ATOM     21  H2  6GV d   1       3.762  37.751 -24.799  0.00  0.00     0.088 H 
ATOM     22  C18 6GV d   1       0.661  38.585 -23.694  0.00  0.00    -0.081 A 
ATOM     23  H11 6GV d   1       2.639  38.947 -22.933  0.00  0.00     0.083 H 
ATOM     24  C19 6GV d   1      -0.115  37.978 -24.678  0.00  0.00    -0.053 A 
ATOM     25  H12 6GV d   1       0.177  39.137 -22.896  0.00  0.00     0.083 H 
ATOM     26  H3  6GV d   1      -1.196  38.053 -24.639  0.00  0.00     0.087 H 
ENDBRANCH  14  16
ENDBRANCH   4   9
BRANCH   3  27
ATOM     27  O8  6GV d   1      -3.285  34.308 -25.333  0.00  0.00    -0.360 OA
ATOM     28  H9  6GV d   1      -3.951  33.906 -24.788  0.00  0.00     0.217 HD
ENDBRANCH   3  27
BRANCH   6  29
ATOM     29  S21 6GV d   1       2.125  33.250 -23.218  0.00  0.00     0.263 S 
ATOM     30  O22 6GV d   1       2.921  34.315 -23.742  0.00  0.00    -0.200 OA
ATOM     31  O23 6GV d   1       2.013  33.078 -21.815  0.00  0.00    -0.200 OA
BRANCH  29  32
ATOM     32  N24 6GV d   1       2.601  31.807 -23.928  0.00  0.00    -0.307 N 
BRANCH  32  33
ATOM     33  C25 6GV d   1       1.783  30.618 -23.658  0.00  0.00    -0.008 C 
ATOM     34  H13 6GV d   1       2.210  29.752 -24.184  0.00  0.00     0.057 H 
ATOM     35  H14 6GV d   1       0.756  30.791 -24.011  0.00  0.00     0.057 H 
ATOM     36  H15 6GV d   1       1.770  30.420 -22.576  0.00  0.00     0.057 H 
ENDBRANCH  32  33
BRANCH  32  37
ATOM     37  C26 6GV d   1       3.786  31.709 -24.840  0.00  0.00     0.015 C 
ATOM     38  H16 6GV d   1       3.746  32.622 -25.452  0.00  0.00     0.072 H 
BRANCH  37  39
ATOM     39  C27 6GV d   1       5.147  31.727 -24.122  0.00  0.00    -0.057 C 
ATOM     40  H4  6GV d   1       5.955  31.651 -24.865  0.00  0.00     0.030 H 
ATOM     41  H5  6GV d   1       5.207  30.876 -23.428  0.00  0.00     0.030 H 
ATOM     42  H6  6GV d   1       5.253  32.667 -23.560  0.00  0.00     0.030 H 
ENDBRANCH  37  39
BRANCH  37  43
ATOM     43  C28 6GV d   1       3.784  30.528 -25.834  0.00  0.00    -0.057 C 
ATOM     44  H17 6GV d   1       2.819  30.494 -26.361  0.00  0.00     0.030 H 
ATOM     45  H18 6GV d   1       3.936  29.587 -25.285  0.00  0.00     0.030 H 
ATOM     46  H19 6GV d   1       4.596  30.662 -26.564  0.00  0.00     0.030 H 
ENDBRANCH  37  43
ENDBRANCH  32  37
ENDBRANCH  29  32
ENDBRANCH   6  29
BRANCH   1  47
ATOM     47  O7  6GV d   1      -0.603  32.273 -22.010  0.00  0.00    -0.359 OA
ATOM     48  H8  6GV d   1      -1.476  32.029 -21.725  0.00  0.00     0.217 HD
ENDBRANCH   1  47
TORSDOF 10
