REMARK  9 active torsions:
REMARK  status: ('A' for Active; 'I' for Inactive)
REMARK    1  A    between atoms: C2_2  and  O12_21 
REMARK    2  A    between atoms: C7_4  and  C21_10 
REMARK    3  A    between atoms: C5_16  and  C8_5 
REMARK    4  A    between atoms: N10_19  and  C16_7 
REMARK    5  A    between atoms: C17_24  and  C20_9 
REMARK       I    between atoms: C21_10  and  N22_26 
REMARK    6  A    between atoms: N22_26  and  C24_11 
REMARK    7  A    between atoms: C24_11  and  C25_28 
REMARK    8  A    between atoms: N22_26  and  C27_12 
REMARK    9  A    between atoms: C4_15  and  O11_20 
ROOT
ATOM      1  C2  6GW d   1     -32.782 -12.365  23.014  0.00  0.00     0.084 A 
ATOM      2  C3  6GW d   1     -31.512 -12.045  23.522  0.00  0.00    -0.017 A 
ATOM      3  C7  6GW d   1     -33.943 -11.934  23.686  0.00  0.00     0.066 A 
ATOM      4  C4  6GW d   1     -31.415 -11.317  24.711  0.00  0.00     0.082 A 
ATOM      5  C5  6GW d   1     -32.572 -10.912  25.406  0.00  0.00     0.046 A 
ATOM      6  C6  6GW d   1     -33.823 -11.236  24.890  0.00  0.00    -0.049 A 
ATOM      7  H2  6GW d   1     -30.617 -12.359  22.997  0.00  0.00     0.092 H 
ATOM      8  H14 6GW d   1     -34.716 -10.943  25.430  0.00  0.00     0.086 H 
ENDROOT
BRANCH   5   9
ATOM      9  C8  6GW d   1     -32.503 -10.053  26.617  0.00  0.00     0.172 A 
ATOM     10  N9  6GW d   1     -31.817 -10.285  27.708  0.00  0.00    -0.151 NA
ATOM     11  N13 6GW d   1     -32.055  -9.230  28.586  0.00  0.00    -0.226 N 
ATOM     12  C14 6GW d   1     -32.881  -8.356  27.979  0.00  0.00     0.349 A 
ATOM     13  H17 6GW d   1     -31.678  -9.137  29.508  0.00  0.00     0.194 HD
ATOM     14  N10 6GW d   1     -33.172  -8.838  26.756  0.00  0.00    -0.244 N 
ATOM     15  O15 6GW d   1     -33.301  -7.314  28.445  0.00  0.00    -0.245 OA
BRANCH  14  16
ATOM     16  C16 6GW d   1     -33.971  -8.179  25.779  0.00  0.00     0.051 A 
ATOM     17  C1  6GW d   1     -33.316  -7.523  24.727  0.00  0.00    -0.056 A 
ATOM     18  C26 6GW d   1     -34.043  -6.889  23.722  0.00  0.00    -0.081 A 
ATOM     19  H1  6GW d   1     -32.233  -7.509  24.695  0.00  0.00     0.087 H 
ATOM     20  C19 6GW d   1     -35.439  -6.892  23.763  0.00  0.00    -0.082 A 
ATOM     21  H19 6GW d   1     -33.526  -6.394  22.909  0.00  0.00     0.083 H 
ATOM     22  C18 6GW d   1     -36.109  -7.541  24.799  0.00  0.00    -0.075 A 
ATOM     23  H3  6GW d   1     -36.003  -6.388  22.987  0.00  0.00     0.083 H 
ATOM     24  C17 6GW d   1     -35.379  -8.176  25.812  0.00  0.00    -0.035 A 
ATOM     25  H18 6GW d   1     -37.193  -7.554  24.821  0.00  0.00     0.084 H 
BRANCH  24  26
ATOM     26  C20 6GW d   1     -36.147  -8.851  26.916  0.00  0.00    -0.049 C 
ATOM     27  H4  6GW d   1     -37.226  -8.725  26.742  0.00  0.00     0.033 H 
ATOM     28  H5  6GW d   1     -35.876  -8.399  27.881  0.00  0.00     0.033 H 
ATOM     29  H6  6GW d   1     -35.901  -9.923  26.931  0.00  0.00     0.033 H 
ENDBRANCH  24  26
ENDBRANCH  14  16
ENDBRANCH   5   9
BRANCH   4  30
ATOM     30  O11 6GW d   1     -30.202 -11.024  25.231  0.00  0.00    -0.360 OA
ATOM     31  H15 6GW d   1     -29.523 -11.358  24.656  0.00  0.00     0.217 HD
ENDBRANCH   4  30
BRANCH   3  32
ATOM     32  C21 6GW d   1     -35.329 -12.314  23.323  0.00  0.00     0.256 C 
ATOM     33  N22 6GW d   1     -35.802 -13.539  23.702  0.00  0.00    -0.347 N 
ATOM     34  O23 6GW d   1     -36.062 -11.487  22.819  0.00  0.00    -0.267 OA
BRANCH  33  35
ATOM     35  C24 6GW d   1     -37.219 -13.910  23.524  0.00  0.00     0.027 C 
ATOM     36  H7  6GW d   1     -37.270 -14.856  22.965  0.00  0.00     0.072 H 
ATOM     37  H8  6GW d   1     -37.723 -13.118  22.950  0.00  0.00     0.072 H 
BRANCH  35  38
ATOM     38  C25 6GW d   1     -37.935 -14.085  24.841  0.00  0.00     0.000 A 
ATOM     39  C31 6GW d   1     -38.512 -15.211  25.278  0.00  0.00    -0.068 A 
ATOM     40  C30 6GW d   1     -39.090 -15.111  26.535  0.00  0.00    -0.076 A 
ATOM     41  H13 6GW d   1     -38.526 -16.130  24.694  0.00  0.00     0.085 H 
ATOM     42  C29 6GW d   1     -38.997 -13.903  27.113  0.00  0.00    -0.044 A 
ATOM     43  H12 6GW d   1     -39.584 -15.953  27.018  0.00  0.00     0.084 H 
ATOM     44  S28 6GW d   1     -38.114 -12.817  26.043  0.00  0.00    -0.105 SA
ATOM     45  H20 6GW d   1     -39.403 -13.637  28.088  0.00  0.00     0.095 H 
ENDBRANCH  35  38
ENDBRANCH  33  35
BRANCH  33  46
ATOM     46  C27 6GW d   1     -34.918 -14.534  24.334  0.00  0.00    -0.015 C 
ATOM     47  H9  6GW d   1     -33.898 -14.127  24.403  0.00  0.00     0.056 H 
ATOM     48  H10 6GW d   1     -34.907 -15.452  23.728  0.00  0.00     0.056 H 
ATOM     49  H11 6GW d   1     -35.289 -14.766  25.343  0.00  0.00     0.056 H 
ENDBRANCH  33  46
ENDBRANCH   3  32
BRANCH   1  50
ATOM     50  O12 6GW d   1     -32.897 -13.035  21.849  0.00  0.00    -0.360 OA
ATOM     51  H16 6GW d   1     -32.032 -13.254  21.524  0.00  0.00     0.217 HD
ENDBRANCH   1  50
TORSDOF 9
