REMARK  4 active torsions:
REMARK  status: ('A' for Active; 'I' for Inactive)
REMARK    1  A    between atoms: C1_1  and  O7_13 
REMARK    2  A    between atoms: C3_3  and  O8_14 
REMARK    3  A    between atoms: C9_4  and  C4_10 
REMARK    4  A    between atoms: C14_6  and  N13_17 
ROOT
ATOM      1  C9  6DL d   1     -42.120  -0.648   8.457  0.00  0.00     0.172 A 
ATOM      2  C12 6DL d   1     -44.256  -0.364   8.911  0.00  0.00     0.349 A 
ATOM      3  N10 6DL d   1     -42.776  -1.304   7.538  0.00  0.00    -0.151 NA
ATOM      4  N11 6DL d   1     -44.135  -1.130   7.807  0.00  0.00    -0.226 N 
ATOM      5  N13 6DL d   1     -43.022  -0.054   9.336  0.00  0.00    -0.241 N 
ATOM      6  O20 6DL d   1     -45.287  -0.003   9.446  0.00  0.00    -0.245 OA
ATOM      7  H7  6DL d   1     -44.890  -1.509   7.272  0.00  0.00     0.194 HD
ENDROOT
BRANCH   1   8
ATOM      8  C4  6DL d   1     -40.655  -0.562   8.603  0.00  0.00     0.047 A 
ATOM      9  C3  6DL d   1     -39.862  -1.710   8.815  0.00  0.00     0.082 A 
ATOM     10  C2  6DL d   1     -38.483  -1.609   9.030  0.00  0.00    -0.017 A 
ATOM     11  C1  6DL d   1     -37.910  -0.322   9.027  0.00  0.00     0.085 A 
ATOM     12  H1  6DL d   1     -37.876  -2.492   9.194  0.00  0.00     0.092 H 
ATOM     13  C6  6DL d   1     -38.723   0.801   8.848  0.00  0.00     0.045 A 
ATOM     14  C5  6DL d   1     -40.076   0.706   8.642  0.00  0.00    -0.047 A 
ATOM     15 BR   6DL d   1     -37.987   2.518   8.778  0.00  0.00    -0.048 Br
ATOM     16  H4  6DL d   1     -40.681   1.596   8.512  0.00  0.00     0.087 H 
BRANCH   9  17
ATOM     17  O8  6DL d   1     -40.453  -2.916   8.760  0.00  0.00    -0.360 OA
ATOM     18  H6  6DL d   1     -39.805  -3.592   8.920  0.00  0.00     0.217 HD
ENDBRANCH   9  17
BRANCH  11  19
ATOM     19  O7  6DL d   1     -36.601  -0.114   9.308  0.00  0.00    -0.359 OA
ATOM     20  H5  6DL d   1     -36.162  -0.951   9.405  0.00  0.00     0.217 HD
ENDBRANCH  11  19
ENDBRANCH   1   8
BRANCH   5  21
ATOM     21  C14 6DL d   1     -42.724   0.750  10.463  0.00  0.00     0.084 A 
ATOM     22  C15 6DL d   1     -42.741   2.150  10.355  0.00  0.00     0.143 A 
ATOM     23  C16 6DL d   1     -42.428   2.952  11.454  0.00  0.00    -0.043 A 
ATOM     24  F21 6DL d   1     -43.101   2.725   9.188  0.00  0.00    -0.204 F 
ATOM     25  C17 6DL d   1     -42.094   2.358  12.664  0.00  0.00    -0.080 A 
ATOM     26  H2  6DL d   1     -42.446   4.032  11.363  0.00  0.00     0.088 H 
ATOM     27  C18 6DL d   1     -42.091   0.970  12.776  0.00  0.00    -0.081 A 
ATOM     28  H8  6DL d   1     -41.836   2.973  13.519  0.00  0.00     0.083 H 
ATOM     29  C19 6DL d   1     -42.406   0.158  11.687  0.00  0.00    -0.053 A 
ATOM     30  H9  6DL d   1     -41.839   0.513  13.726  0.00  0.00     0.083 H 
ATOM     31  H3  6DL d   1     -42.404  -0.921  11.790  0.00  0.00     0.087 H 
ENDBRANCH   5  21
TORSDOF 4
