REMARK  4 active torsions:
REMARK  status: ('A' for Active; 'I' for Inactive)
REMARK    1  A    between atoms: C1_1  and  O7_13 
REMARK    2  A    between atoms: C3_3  and  O8_14 
REMARK    3  A    between atoms: C9_4  and  C4_10 
REMARK    4  A    between atoms: C14_6  and  N13_17 
ROOT
ATOM      1  C9  6DL d   1      42.116  -0.378  -8.633  0.00  0.00     0.172 A 
ATOM      2  C12 6DL d   1      44.282  -0.109  -9.048  0.00  0.00     0.349 A 
ATOM      3  N10 6DL d   1      42.747  -1.123  -7.758  0.00  0.00    -0.151 NA
ATOM      4  N11 6DL d   1      44.120  -0.951  -8.001  0.00  0.00    -0.226 N 
ATOM      5  N13 6DL d   1      43.049   0.235  -9.464  0.00  0.00    -0.241 N 
ATOM      6  O20 6DL d   1      45.338   0.272  -9.548  0.00  0.00    -0.245 OA
ATOM      7  H8  6DL d   1      44.859  -1.382  -7.483  0.00  0.00     0.194 HD
ENDROOT
BRANCH   1   8
ATOM      8  C4  6DL d   1      40.652  -0.252  -8.799  0.00  0.00     0.045 A 
ATOM      9  C3  6DL d   1      39.874  -1.426  -8.838  0.00  0.00     0.082 A 
ATOM     10  C2  6DL d   1      38.503  -1.327  -9.076  0.00  0.00    -0.018 A 
ATOM     11  C1  6DL d   1      37.912  -0.057  -9.193  0.00  0.00     0.068 A 
ATOM     12  H1  6DL d   1      37.898  -2.222  -9.170  0.00  0.00     0.092 H 
ATOM     13  C6  6DL d   1      38.690   1.117  -9.166  0.00  0.00    -0.050 A 
ATOM     14  C5  6DL d   1      40.048   1.014  -8.935  0.00  0.00    -0.064 A 
ATOM     15  H5  6DL d   1      38.230   2.086  -9.324  0.00  0.00     0.087 H 
ATOM     16  H4  6DL d   1      40.652   1.911  -8.858  0.00  0.00     0.085 H 
BRANCH   9  17
ATOM     17  O8  6DL d   1      40.482  -2.627  -8.663  0.00  0.00    -0.360 OA
ATOM     18  H7  6DL d   1      39.834  -3.319  -8.715  0.00  0.00     0.217 HD
ENDBRANCH   9  17
BRANCH  11  19
ATOM     19  O7  6DL d   1      36.599   0.056  -9.474  0.00  0.00    -0.361 OA
ATOM     20  H6  6DL d   1      36.198  -0.805  -9.459  0.00  0.00     0.217 HD
ENDBRANCH  11  19
ENDBRANCH   1   8
BRANCH   5  21
ATOM     21  C14 6DL d   1      42.761   1.074 -10.559  0.00  0.00     0.084 A 
ATOM     22  C15 6DL d   1      42.957   2.450 -10.434  0.00  0.00     0.143 A 
ATOM     23  C16 6DL d   1      42.639   3.289 -11.501  0.00  0.00    -0.043 A 
ATOM     24  F21 6DL d   1      43.478   2.939  -9.282  0.00  0.00    -0.204 F 
ATOM     25  C17 6DL d   1      42.127   2.761 -12.683  0.00  0.00    -0.080 A 
ATOM     26  H2  6DL d   1      42.791   4.358 -11.410  0.00  0.00     0.088 H 
ATOM     27  C18 6DL d   1      41.927   1.388 -12.804  0.00  0.00    -0.081 A 
ATOM     28  H9  6DL d   1      41.884   3.419 -13.510  0.00  0.00     0.083 H 
ATOM     29  C19 6DL d   1      42.260   0.541 -11.754  0.00  0.00    -0.053 A 
ATOM     30  H10 6DL d   1      41.511   0.980 -13.718  0.00  0.00     0.083 H 
ATOM     31  H3  6DL d   1      42.132  -0.530 -11.859  0.00  0.00     0.087 H 
ENDBRANCH   5  21
TORSDOF 4
