REMARK  8 active torsions:
REMARK  status: ('A' for Active; 'I' for Inactive)
REMARK    1  A    between atoms: C13_8  and  C15_7 
REMARK    2  A    between atoms: S2_17  and  C10_16 
REMARK    3  A    between atoms: C8_19  and  S2_17 
REMARK    4  A    between atoms: C8_19  and  C9_18 
REMARK    5  A    between atoms: C7_20  and  C8_19 
REMARK       I    between atoms: N2_21  and  C7_20 
REMARK    6  A    between atoms: C4_24  and  N2_21 
REMARK    7  A    between atoms: C1_28  and  S1_29 
REMARK    8  A    between atoms: S1_29  and  N1_32 
ROOT
ATOM      1  C13 FC4 d   1      -3.230  11.507  11.875  0.00  0.00     0.096 A 
ATOM      2  N4  FC4 d   1      -3.061  10.256  12.409  0.00  0.00    -0.222 NA
ATOM      3  C12 FC4 d   1      -2.494  12.582  12.267  0.00  0.00     0.142 A 
ATOM      4  C14 FC4 d   1      -2.800  13.838  11.679  0.00  0.00     0.107 C 
ATOM      5  N5  FC4 d   1      -3.048  14.857  11.206  0.00  0.00    -0.191 NA
ATOM      6  C11 FC4 d   1      -1.484  12.402  13.280  0.00  0.00     0.270 A 
ATOM      7  O4  FC4 d   1      -0.764  13.306  13.728  0.00  0.00    -0.266 OA
ATOM      8  N3  FC4 d   1      -1.365  11.115  13.763  0.00  0.00    -0.301 N 
ATOM      9  C10 FC4 d   1      -2.143  10.088  13.330  0.00  0.00     0.170 A 
ATOM     10  H5  FC4 d   1      -0.675  10.930  14.463  0.00  0.00     0.171 HD
ENDROOT
BRANCH   1  11
ATOM     11  C15 FC4 d   1      -4.268  11.565  10.820  0.00  0.00    -0.005 A 
ATOM     12  C16 FC4 d   1      -5.397  12.365  10.958  0.00  0.00    -0.069 A 
ATOM     13  C17 FC4 d   1      -6.418  12.342  10.014  0.00  0.00    -0.061 A 
ATOM     14  H1  FC4 d   1      -5.483  13.019  11.818  0.00  0.00     0.085 H 
ATOM     15  C18 FC4 d   1      -6.309  11.507   8.920  0.00  0.00     0.034 A 
ATOM     16  H2  FC4 d   1      -7.291  12.973  10.136  0.00  0.00     0.086 H 
ATOM     17 CL   FC4 d   1      -7.576  11.454   7.744  0.00  0.00    -0.084 Cl
ATOM     18  C19 FC4 d   1      -5.199  10.703   8.756  0.00  0.00    -0.061 A 
ATOM     19  C20 FC4 d   1      -4.183  10.738   9.705  0.00  0.00    -0.069 A 
ATOM     20  H3  FC4 d   1      -5.120  10.050   7.895  0.00  0.00     0.086 H 
ATOM     21  H4  FC4 d   1      -3.309  10.110   9.573  0.00  0.00     0.085 H 
ENDBRANCH   1  11
BRANCH   9  22
ATOM     22  S2  FC4 d   1      -1.849   8.521  14.105  0.00  0.00    -0.078 SA
BRANCH  22  23
ATOM     23  C8  FC4 d   1      -2.203   7.262  12.824  0.00  0.00     0.072 C 
ATOM     24  H9  FC4 d   1      -1.319   6.616  12.713  0.00  0.00     0.071 H 
BRANCH  23  25
ATOM     25  C9  FC4 d   1      -2.495   7.899  11.464  0.00  0.00    -0.056 C 
ATOM     26  H6  FC4 d   1      -2.702   7.110  10.726  0.00  0.00     0.029 H 
ATOM     27  H7  FC4 d   1      -1.623   8.486  11.139  0.00  0.00     0.029 H 
ATOM     28  H8  FC4 d   1      -3.370   8.560  11.549  0.00  0.00     0.029 H 
ENDBRANCH  23  25
BRANCH  23  29
ATOM     29  C7  FC4 d   1      -3.376   6.408  13.307  0.00  0.00     0.236 C 
ATOM     30  N2  FC4 d   1      -3.038   5.143  13.633  0.00  0.00    -0.326 N 
ATOM     31  H10 FC4 d   1      -2.161   4.819  13.277  0.00  0.00     0.169 HD
ATOM     32  O3  FC4 d   1      -4.500   6.851  13.375  0.00  0.00    -0.272 OA
BRANCH  30  33
ATOM     33  C4  FC4 d   1      -3.766   4.221  14.412  0.00  0.00     0.034 A 
ATOM     34  C5  FC4 d   1      -5.139   4.295  14.624  0.00  0.00    -0.056 A 
ATOM     35  C6  FC4 d   1      -5.785   3.306  15.339  0.00  0.00    -0.058 A 
ATOM     36  H12 FC4 d   1      -5.703   5.131  14.227  0.00  0.00     0.087 H 
ATOM     37  C1  FC4 d   1      -5.070   2.242  15.852  0.00  0.00     0.079 A 
ATOM     38  H11 FC4 d   1      -6.856   3.365  15.498  0.00  0.00     0.086 H 
ATOM     39  C2  FC4 d   1      -3.707   2.166  15.650  0.00  0.00    -0.058 A 
ATOM     40  C3  FC4 d   1      -3.053   3.147  14.932  0.00  0.00    -0.056 A 
ATOM     41  H14 FC4 d   1      -3.147   1.332  16.057  0.00  0.00     0.086 H 
ATOM     42  H13 FC4 d   1      -1.983   3.080  14.774  0.00  0.00     0.087 H 
BRANCH  37  43
ATOM     43  S1  FC4 d   1      -5.901   0.968  16.734  0.00  0.00     0.256 S 
ATOM     44  O2  FC4 d   1      -5.455   1.104  18.087  0.00  0.00    -0.201 OA
ATOM     45  O1  FC4 d   1      -7.308   1.107  16.520  0.00  0.00    -0.201 OA
BRANCH  43  46
ATOM     46  N1  FC4 d   1      -5.418  -0.458  16.200  0.00  0.00    -0.324 N 
ATOM     47  H15 FC4 d   1      -5.795  -1.295  16.598  0.00  0.00     0.169 HD
ATOM     48  H16 FC4 d   1      -4.739  -0.514  15.468  0.00  0.00     0.169 HD
ENDBRANCH  43  46
ENDBRANCH  37  43
ENDBRANCH  30  33
ENDBRANCH  23  29
ENDBRANCH  22  23
ENDBRANCH   9  22
TORSDOF 8
