REMARK  10 active torsions:
REMARK  status: ('A' for Active; 'I' for Inactive)
REMARK    1  A    between atoms: C2_2  and  O12_18 
REMARK    2  A    between atoms: C20_9  and  C7_4 
REMARK    3  A    between atoms: C5_13  and  C8_5 
REMARK    4  A    between atoms: N10_16  and  C16_7 
REMARK       I    between atoms: N21_23  and  C20_9 
REMARK    5  A    between atoms: C23_25  and  C24_10 
REMARK    6  A    between atoms: C24_10  and  C28_28 
REMARK    7  A    between atoms: C28_28  and  C27_11 
REMARK    8  A    between atoms: C4_12  and  O11_17 
REMARK    9  A    between atoms: N21_23  and  C23_25 
REMARK   10  A    between atoms: N21_23  and  C26_27 
ROOT
ATOM      1  C2  6GC d   1      -0.375  33.173 -23.165  0.00  0.00     0.084 A 
ATOM      2  C3  6GC d   1      -1.652  33.470 -23.644  0.00  0.00    -0.017 A 
ATOM      3  C7  6GC d   1       0.811  33.670 -23.865  0.00  0.00     0.066 A 
ATOM      4  C4  6GC d   1      -1.792  34.260 -24.786  0.00  0.00     0.082 A 
ATOM      5  C5  6GC d   1      -0.590  34.738 -25.477  0.00  0.00     0.044 A 
ATOM      6  C6  6GC d   1       0.647  34.426 -24.986  0.00  0.00    -0.049 A 
ATOM      7  H2  6GC d   1      -2.529  33.090 -23.133  0.00  0.00     0.092 H 
ATOM      8  H9  6GC d   1       1.525  34.792 -25.505  0.00  0.00     0.086 H 
ENDROOT
BRANCH   3   9
ATOM      9  C20 6GC d   1       2.249  33.367 -23.502  0.00  0.00     0.256 C 
ATOM     10  N21 6GC d   1       2.755  32.164 -23.824  0.00  0.00    -0.352 N 
ATOM     11  O22 6GC d   1       2.934  34.237 -23.018  0.00  0.00    -0.267 OA
BRANCH  10  12
ATOM     12  C23 6GC d   1       4.202  31.790 -23.793  0.00  0.00    -0.003 C 
ATOM     13  H15 6GC d   1       4.718  32.414 -23.049  0.00  0.00     0.064 H 
ATOM     14  H16 6GC d   1       4.293  30.731 -23.510  0.00  0.00     0.064 H 
BRANCH  12  15
ATOM     15  C24 6GC d   1       4.860  32.001 -25.169  0.00  0.00    -0.050 C 
ATOM     16  H4  6GC d   1       5.168  33.053 -25.261  0.00  0.00     0.035 H 
ATOM     17  H5  6GC d   1       4.128  31.764 -25.955  0.00  0.00     0.035 H 
BRANCH  15  18
ATOM     18  C28 6GC d   1       6.086  31.107 -25.345  0.00  0.00    -0.067 C 
ATOM     19  H21 6GC d   1       5.757  30.071 -25.517  0.00  0.00     0.032 H 
ATOM     20  H22 6GC d   1       6.700  31.151 -24.433  0.00  0.00     0.032 H 
BRANCH  18  21
ATOM     21  C27 6GC d   1       6.910  31.566 -26.519  0.00  0.00    -0.076 C 
ATOM     22  H6  6GC d   1       7.787  30.911 -26.630  0.00  0.00     0.027 H 
ATOM     23  H7  6GC d   1       7.244  32.600 -26.351  0.00  0.00     0.027 H 
ATOM     24  H8  6GC d   1       6.301  31.521 -27.434  0.00  0.00     0.027 H 
ENDBRANCH  18  21
ENDBRANCH  15  18
ENDBRANCH  12  15
ENDBRANCH  10  12
BRANCH  10  25
ATOM     25  C26 6GC d   1       1.889  31.069 -24.229  0.00  0.00    -0.016 C 
ATOM     26  H18 6GC d   1       0.843  31.410 -24.231  0.00  0.00     0.056 H 
ATOM     27  H19 6GC d   1       2.001  30.233 -23.523  0.00  0.00     0.056 H 
ATOM     28  H20 6GC d   1       2.168  30.736 -25.240  0.00  0.00     0.056 H 
ENDBRANCH  10  25
ENDBRANCH   3   9
BRANCH   1  29
ATOM     29  O12 6GC d   1      -0.202  32.423 -22.054  0.00  0.00    -0.360 OA
ATOM     30  H12 6GC d   1      -1.050  32.172 -21.707  0.00  0.00     0.217 HD
ENDBRANCH   1  29
BRANCH   5  31
ATOM     31  C8  6GC d   1      -0.675  35.605 -26.649  0.00  0.00     0.144 A 
ATOM     32  N9  6GC d   1      -1.402  35.385 -27.780  0.00  0.00    -0.280 N 
ATOM     33  N13 6GC d   1      -1.186  36.517 -28.579  0.00  0.00    -0.249 N 
ATOM     34  H10 6GC d   1      -1.984  34.565 -28.000  0.00  0.00     0.188 HD
ATOM     35  C14 6GC d   1      -0.401  37.368 -27.930  0.00  0.00     0.347 A 
ATOM     36  H13 6GC d   1      -1.564  36.660 -29.494  0.00  0.00     0.192 HD
ATOM     37  N10 6GC d   1      -0.120  36.841 -26.762  0.00  0.00    -0.243 N 
ATOM     38  O15 6GC d   1       0.000  38.517 -28.311  0.00  0.00    -0.245 OA
BRANCH  37  39
ATOM     39  C16 6GC d   1       0.642  37.445 -25.830  0.00  0.00     0.084 A 
ATOM     40  C1  6GC d   1       0.092  38.023 -24.689  0.00  0.00    -0.053 A 
ATOM     41  C25 6GC d   1       0.829  38.625 -23.670  0.00  0.00    -0.081 A 
ATOM     42  H1  6GC d   1      -0.987  38.004 -24.585  0.00  0.00     0.087 H 
ATOM     43  C19 6GC d   1       2.210  38.695 -23.775  0.00  0.00    -0.080 A 
ATOM     44  H17 6GC d   1       0.326  39.035 -22.802  0.00  0.00     0.083 H 
ATOM     45  C18 6GC d   1       2.846  38.147 -24.893  0.00  0.00    -0.043 A 
ATOM     46  H3  6GC d   1       2.793  39.172 -22.995  0.00  0.00     0.083 H 
ATOM     47  C17 6GC d   1       2.103  37.539 -25.906  0.00  0.00     0.143 A 
ATOM     48  H14 6GC d   1       3.926  38.195 -24.974  0.00  0.00     0.088 H 
ATOM     49  F29 6GC d   1       2.669  37.018 -27.003  0.00  0.00    -0.204 F 
ENDBRANCH  37  39
ENDBRANCH   5  31
BRANCH   4  50
ATOM     50  O11 6GC d   1      -3.002  34.579 -25.311  0.00  0.00    -0.360 OA
ATOM     51  H11 6GC d   1      -3.689  34.209 -24.769  0.00  0.00     0.217 HD
ENDBRANCH   4  50
TORSDOF 10
