REMARK  15 active torsions:
REMARK  status: ('A' for Active; 'I' for Inactive)
REMARK    1  A    between atoms: C1_1  and  O1_2 
REMARK    2  A    between atoms: C1_1  and  C2_3 
REMARK    3  A    between atoms: O1_2  and  PA_17 
REMARK    4  A    between atoms: C3_4  and  C4_5 
REMARK    5  A    between atoms: C3_4  and  C5_6 
REMARK    6  A    between atoms: C5_6  and  C6_7 
REMARK    7  A    between atoms: C6_7  and  C7_8 
REMARK    8  A    between atoms: C8_9  and  C10_10 
REMARK    9  A    between atoms: C8_9  and  C9_11 
REMARK   10  A    between atoms: C9_11  and  C11_12 
REMARK   11  A    between atoms: C11_12  and  C12_13 
REMARK   12  A    between atoms: C13_14  and  C14_15 
REMARK   13  A    between atoms: C13_14  and  C15_16 
REMARK   14  A    between atoms: PA_17  and  O3A_20 
REMARK   15  A    between atoms: O3A_20  and  PB_21 
ROOT
ATOM      1  C6  FPP d   1       0.528  77.378  27.711  0.00  0.00    -0.046 C 
ATOM      2  H9  FPP d   1       0.792  76.366  27.370  0.00  0.00     0.039 H 
ATOM      3  H10 FPP d   1       0.718  78.099  26.902  0.00  0.00     0.039 H 
ENDROOT
BRANCH   1   4
ATOM      4  C5  FPP d   1       1.396  77.736  28.903  0.00  0.00    -0.042 C 
ATOM      5  H7  FPP d   1       1.109  78.737  29.257  0.00  0.00     0.040 H 
ATOM      6  H8  FPP d   1       1.216  77.000  29.700  0.00  0.00     0.040 H 
BRANCH   4   7
ATOM      7  C3  FPP d   1       2.875  77.745  28.581  0.00  0.00    -0.085 C 
ATOM      8  C2  FPP d   1       3.606  76.667  28.916  0.00  0.00    -0.078 C 
ATOM      9  H3  FPP d   1       3.111  75.842  29.426  0.00  0.00     0.080 H 
BRANCH   8  10
ATOM     10  C1  FPP d   1       5.099  76.545  28.614  0.00  0.00     0.047 C 
ATOM     11  H1  FPP d   1       5.348  76.998  27.643  0.00  0.00     0.081 H 
ATOM     12  H2  FPP d   1       5.705  77.014  29.403  0.00  0.00     0.081 H 
BRANCH  10  13
ATOM     13  O1  FPP d   1       5.291  75.098  28.588  0.00  0.00    -0.286 OA
BRANCH  13  14
ATOM     14  PA  FPP d   1       6.125  74.281  27.494  0.00  0.00     0.418 P 
ATOM     15  O1A FPP d   1       6.067  72.881  28.030  0.00  0.00    -0.624 OA
ATOM     16  O2A FPP d   1       5.647  74.534  26.070  0.00  0.00    -0.624 OA
BRANCH  14  17
ATOM     17  O3A FPP d   1       7.581  74.821  27.957  0.00  0.00    -0.173 OA
BRANCH  17  18
ATOM     18  PB  FPP d   1       8.954  74.473  27.201  0.00  0.00     0.431 P 
ATOM     19  O1B FPP d   1       8.847  75.225  25.870  0.00  0.00    -0.616 OA
ATOM     20  O2B FPP d   1       8.938  72.993  27.073  0.00  0.00    -0.616 OA
ATOM     21  O3B FPP d   1       9.952  75.200  27.991  0.00  0.00    -0.616 OA
ENDBRANCH  17  18
ENDBRANCH  14  17
ENDBRANCH  13  14
ENDBRANCH  10  13
ENDBRANCH   8  10
BRANCH   7  22
ATOM     22  C4  FPP d   1       3.474  78.971  27.949  0.00  0.00    -0.055 C 
ATOM     23  H4  FPP d   1       2.683  79.714  27.768  0.00  0.00     0.033 H 
ATOM     24  H5  FPP d   1       3.946  78.698  26.994  0.00  0.00     0.033 H 
ATOM     25  H6  FPP d   1       4.231  79.398  28.623  0.00  0.00     0.033 H 
ENDBRANCH   7  22
ENDBRANCH   4   7
ENDBRANCH   1   4
BRANCH   1  26
ATOM     26  C7  FPP d   1      -0.972  77.410  28.065  0.00  0.00    -0.101 C 
ATOM     27  C8  FPP d   1      -1.926  77.410  27.112  0.00  0.00    -0.087 C 
ATOM     28  H11 FPP d   1      -1.269  77.433  29.112  0.00  0.00     0.077 H 
BRANCH  27  29
ATOM     29  C10 FPP d   1      -1.632  77.342  25.627  0.00  0.00    -0.055 C 
ATOM     30  H12 FPP d   1      -2.578  77.357  25.065  0.00  0.00     0.033 H 
ATOM     31  H13 FPP d   1      -1.087  76.413  25.403  0.00  0.00     0.033 H 
ATOM     32  H14 FPP d   1      -1.018  78.207  25.335  0.00  0.00     0.033 H 
ENDBRANCH  27  29
BRANCH  27  33
ATOM     33  C9  FPP d   1      -3.387  77.414  27.572  0.00  0.00    -0.042 C 
ATOM     34  H15 FPP d   1      -3.418  77.727  28.626  0.00  0.00     0.040 H 
ATOM     35  H16 FPP d   1      -3.782  76.391  27.481  0.00  0.00     0.040 H 
BRANCH  33  36
ATOM     36  C11 FPP d   1      -4.284  78.350  26.765  0.00  0.00    -0.046 C 
ATOM     37  H17 FPP d   1      -5.336  78.089  26.951  0.00  0.00     0.039 H 
ATOM     38  H18 FPP d   1      -4.060  78.229  25.695  0.00  0.00     0.039 H 
BRANCH  36  39
ATOM     39  C12 FPP d   1      -4.057  79.778  27.155  0.00  0.00    -0.101 C 
ATOM     40  C13 FPP d   1      -4.869  80.610  27.859  0.00  0.00    -0.091 C 
ATOM     41  H19 FPP d   1      -3.111  80.209  26.830  0.00  0.00     0.077 H 
BRANCH  40  42
ATOM     42  C14 FPP d   1      -6.227  80.283  28.394  0.00  0.00    -0.055 C 
ATOM     43  H20 FPP d   1      -6.635  81.159  28.919  0.00  0.00     0.033 H 
ATOM     44  H21 FPP d   1      -6.152  79.438  29.095  0.00  0.00     0.033 H 
ATOM     45  H22 FPP d   1      -6.893  80.011  27.562  0.00  0.00     0.033 H 
ENDBRANCH  40  42
BRANCH  40  46
ATOM     46  C15 FPP d   1      -4.385  81.995  28.125  0.00  0.00    -0.055 C 
ATOM     47  H23 FPP d   1      -3.383  82.123  27.689  0.00  0.00     0.033 H 
ATOM     48  H24 FPP d   1      -4.337  82.165  29.211  0.00  0.00     0.033 H 
ATOM     49  H25 FPP d   1      -5.077  82.719  27.671  0.00  0.00     0.033 H 
ENDBRANCH  40  46
ENDBRANCH  36  39
ENDBRANCH  33  36
ENDBRANCH  27  33
ENDBRANCH   1  26
TORSDOF 15
