REMARK  17 active torsions:
REMARK  status: ('A' for Active; 'I' for Inactive)
REMARK    1  A    between atoms: C2_1  and  O39_42 
REMARK    2  A    between atoms: C5_4  and  S8_7 
REMARK    3  A    between atoms: S8_7  and  N11_10 
REMARK    4  A    between atoms: N11_10  and  C12_11 
REMARK    5  A    between atoms: N11_10  and  C16_15 
REMARK    6  A    between atoms: C12_11  and  C13_12 
REMARK    7  A    between atoms: C13_12  and  C14_13 
REMARK    8  A    between atoms: C13_12  and  C15_14 
REMARK    9  A    between atoms: C16_15  and  C17_16 
REMARK   10  A    between atoms: C17_16  and  O18_17 
REMARK   11  A    between atoms: C17_16  and  C19_18 
REMARK   12  A    between atoms: C19_18  and  N20_19 
REMARK   13  A    between atoms: C19_18  and  C32_31 
REMARK       I    between atoms: N20_19  and  C21_20 
REMARK   14  A    between atoms: C21_20  and  O23_22 
REMARK   15  A    between atoms: O23_22  and  C24_23 
REMARK   16  A    between atoms: C32_31  and  C51_32 
REMARK   17  A    between atoms: O39_42  and  C40_43 
ROOT
ATOM      1  C19 6KK d   1      14.834  22.724  16.924  0.00  0.00     0.041 C 
ATOM      2  H18 6KK d   1      15.740  22.171  16.637  0.00  0.00     0.076 H 
ENDROOT
BRANCH   1   3
ATOM      3  C17 6KK d   1      15.221  23.860  17.873  0.00  0.00     0.071 C 
ATOM      4  H16 6KK d   1      15.628  23.419  18.795  0.00  0.00     0.088 H 
BRANCH   3   5
ATOM      5  C16 6KK d   1      16.290  24.784  17.269  0.00  0.00     0.031 C 
ATOM      6  H14 6KK d   1      15.980  25.064  16.251  0.00  0.00     0.069 H 
ATOM      7  H15 6KK d   1      16.367  25.688  17.891  0.00  0.00     0.069 H 
BRANCH   5   8
ATOM      8  N11 6KK d   1      17.595  24.154  17.201  0.00  0.00    -0.304 N 
BRANCH   8   9
ATOM      9  S8  6KK d   1      18.280  23.961  15.717  0.00  0.00     0.260 S 
ATOM     10  O9  6KK d   1      17.216  23.881  14.683  0.00  0.00    -0.200 OA
ATOM     11  O10 6KK d   1      19.128  22.735  15.824  0.00  0.00    -0.200 OA
BRANCH   9  12
ATOM     12  C5  6KK d   1      19.291  25.339  15.280  0.00  0.00     0.079 A 
ATOM     13  C4  6KK d   1      18.679  26.375  14.574  0.00  0.00    -0.058 A 
ATOM     14  C3  6KK d   1      19.458  27.504  14.314  0.00  0.00    -0.049 A 
ATOM     15  H2  6KK d   1      17.649  26.307  14.243  0.00  0.00     0.086 H 
ATOM     16  C2  6KK d   1      20.772  27.606  14.726  0.00  0.00     0.068 A 
ATOM     17  H1  6KK d   1      19.015  28.330  13.769  0.00  0.00     0.087 H 
ATOM     18  C7  6KK d   1      21.399  26.544  15.380  0.00  0.00    -0.049 A 
ATOM     19  C6  6KK d   1      20.603  25.438  15.679  0.00  0.00    -0.058 A 
ATOM     20  H4  6KK d   1      22.450  26.577  15.642  0.00  0.00     0.087 H 
ATOM     21  H3  6KK d   1      21.036  24.624  16.249  0.00  0.00     0.086 H 
BRANCH  16  22
ATOM     22  O39 6KK d   1      21.427  28.770  14.479  0.00  0.00    -0.356 OA
BRANCH  22  23
ATOM     23  C40 6KK d   1      22.805  28.677  14.843  0.00  0.00     0.010 C 
ATOM     24  H46 6KK d   1      23.305  29.633  14.631  0.00  0.00     0.066 H 
ATOM     25  H47 6KK d   1      23.285  27.875  14.262  0.00  0.00     0.066 H 
ATOM     26  H48 6KK d   1      22.886  28.451  15.916  0.00  0.00     0.066 H 
ENDBRANCH  22  23
ENDBRANCH  16  22
ENDBRANCH   9  12
ENDBRANCH   8   9
BRANCH   8  27
ATOM     27  C12 6KK d   1      18.521  24.582  18.237  0.00  0.00     0.008 C 
ATOM     28  H5  6KK d   1      18.487  25.679  18.309  0.00  0.00     0.066 H 
ATOM     29  H6  6KK d   1      19.536  24.264  17.956  0.00  0.00     0.066 H 
BRANCH  27  30
ATOM     30  C13 6KK d   1      18.183  23.989  19.609  0.00  0.00    -0.045 C 
ATOM     31  H7  6KK d   1      17.191  24.369  19.896  0.00  0.00     0.041 H 
BRANCH  30  32
ATOM     32  C14 6KK d   1      18.112  22.455  19.548  0.00  0.00    -0.072 C 
ATOM     33  H8  6KK d   1      17.868  22.059  20.545  0.00  0.00     0.028 H 
ATOM     34  H9  6KK d   1      19.084  22.056  19.223  0.00  0.00     0.028 H 
ATOM     35  H10 6KK d   1      17.333  22.152  18.833  0.00  0.00     0.028 H 
ENDBRANCH  30  32
BRANCH  30  36
ATOM     36  C15 6KK d   1      19.174  24.395  20.699  0.00  0.00    -0.072 C 
ATOM     37  H11 6KK d   1      19.233  25.492  20.751  0.00  0.00     0.028 H 
ATOM     38  H12 6KK d   1      20.167  23.986  20.462  0.00  0.00     0.028 H 
ATOM     39  H13 6KK d   1      18.836  23.999  21.668  0.00  0.00     0.028 H 
ENDBRANCH  30  36
ENDBRANCH  27  30
ENDBRANCH   8  27
ENDBRANCH   5   8
ENDBRANCH   3   5
BRANCH   3  40
ATOM     40  O18 6KK d   1      14.052  24.619  18.200  0.00  0.00    -0.392 OA
ATOM     41  H17 6KK d   1      14.279  25.292  18.831  0.00  0.00     0.210 HD
ENDBRANCH   3  40
ENDBRANCH   1   3
BRANCH   1  42
ATOM     42  N20 6KK d   1      13.865  21.847  17.616  0.00  0.00    -0.330 N 
ATOM     43  C21 6KK d   1      14.192  20.620  18.053  0.00  0.00     0.361 C 
ATOM     44  O22 6KK d   1      15.321  20.157  17.894  0.00  0.00    -0.238 OA
ATOM     45  H19 6KK d   1      12.934  22.179  17.764  0.00  0.00     0.165 HD
BRANCH  43  46
ATOM     46  O23 6KK d   1      13.161  20.000  18.664  0.00  0.00    -0.296 OA
BRANCH  46  47
ATOM     47  C24 6KK d   1      13.393  18.620  19.044  0.00  0.00     0.078 C 
ATOM     48  C25 6KK d   1      12.852  18.470  20.479  0.00  0.00     0.048 C 
ATOM     49  O26 6KK d   1      11.432  18.518  20.300  0.00  0.00    -0.358 OA
ATOM     50  H21 6KK d   1      13.197  19.296  21.119  0.00  0.00     0.078 H 
ATOM     51  H22 6KK d   1      13.162  17.511  20.919  0.00  0.00     0.078 H 
ATOM     52  C27 6KK d   1      11.130  17.811  19.098  0.00  0.00     0.137 C 
ATOM     53  O28 6KK d   1      10.147  18.531  18.363  0.00  0.00    -0.361 OA
ATOM     54  C31 6KK d   1      12.399  17.771  18.263  0.00  0.00     0.023 C 
ATOM     55  H23 6KK d   1      10.776  16.794  19.324  0.00  0.00     0.129 H 
ATOM     56  C29 6KK d   1      10.747  19.115  17.214  0.00  0.00     0.023 C 
ATOM     57  C30 6KK d   1      12.015  18.305  16.906  0.00  0.00    -0.035 C 
ATOM     58  H24 6KK d   1      11.009  20.164  17.417  0.00  0.00     0.074 H 
ATOM     59  H25 6KK d   1      10.053  19.069  16.361  0.00  0.00     0.074 H 
ATOM     60  H26 6KK d   1      12.807  18.948  16.493  0.00  0.00     0.037 H 
ATOM     61  H27 6KK d   1      11.803  17.487  16.202  0.00  0.00     0.037 H 
ATOM     62  H28 6KK d   1      12.786  16.747  18.158  0.00  0.00     0.051 H 
ATOM     63  H20 6KK d   1      14.441  18.310  18.922  0.00  0.00     0.088 H 
ENDBRANCH  46  47
ENDBRANCH  43  46
ENDBRANCH   1  42
BRANCH   1  64
ATOM     64  C32 6KK d   1      14.074  23.175  15.671  0.00  0.00    -0.037 C 
ATOM     65  H29 6KK d   1      14.641  24.023  15.259  0.00  0.00     0.037 H 
ATOM     66  H30 6KK d   1      13.092  23.526  16.020  0.00  0.00     0.037 H 
BRANCH  64  67
ATOM     67  C51 6KK d   1      13.794  22.234  14.486  0.00  0.00    -0.037 C 
ATOM     68  C52 6KK d   1      12.521  21.457  14.767  0.00  0.00    -0.055 C 
ATOM     69  C53 6KK d   1      12.195  20.529  13.595  0.00  0.00    -0.053 C 
ATOM     70  H31 6KK d   1      11.690  22.163  14.913  0.00  0.00     0.034 H 
ATOM     71  H32 6KK d   1      12.656  20.856  15.678  0.00  0.00     0.034 H 
ATOM     72  C54 6KK d   1      13.354  19.573  13.358  0.00  0.00    -0.058 C 
ATOM     73  C60 6KK d   1      11.964  21.410  12.353  0.00  0.00    -0.058 C 
ATOM     74  H33 6KK d   1      11.285  19.951  13.816  0.00  0.00     0.040 H 
ATOM     75  C55 6KK d   1      14.637  20.363  13.096  0.00  0.00    -0.053 C 
ATOM     76  H34 6KK d   1      13.132  18.940  12.487  0.00  0.00     0.034 H 
ATOM     77  H35 6KK d   1      13.491  18.939  14.246  0.00  0.00     0.034 H 
ATOM     78  C56 6KK d   1      14.435  21.180  11.808  0.00  0.00    -0.058 C 
ATOM     79  C59 6KK d   1      14.977  21.282  14.263  0.00  0.00    -0.055 C 
ATOM     80  H36 6KK d   1      15.469  19.658  12.952  0.00  0.00     0.040 H 
ATOM     81  C57 6KK d   1      13.273  22.153  12.015  0.00  0.00    -0.053 C 
ATOM     82  H37 6KK d   1      14.204  20.502  10.973  0.00  0.00     0.034 H 
ATOM     83  H38 6KK d   1      15.352  21.743  11.581  0.00  0.00     0.034 H 
ATOM     84  C58 6KK d   1      13.609  23.060  13.207  0.00  0.00    -0.055 C 
ATOM     85  H39 6KK d   1      13.132  22.755  11.105  0.00  0.00     0.040 H 
ATOM     86  H40 6KK d   1      14.539  23.607  12.993  0.00  0.00     0.034 H 
ATOM     87  H41 6KK d   1      12.789  23.777  13.357  0.00  0.00     0.034 H 
ATOM     88  H42 6KK d   1      15.149  20.684  15.170  0.00  0.00     0.034 H 
ATOM     89  H43 6KK d   1      15.882  21.862  14.029  0.00  0.00     0.034 H 
ATOM     90  H44 6KK d   1      11.168  22.140  12.562  0.00  0.00     0.034 H 
ATOM     91  H45 6KK d   1      11.668  20.778  11.502  0.00  0.00     0.034 H 
ENDBRANCH  64  67
ENDBRANCH   1  64
TORSDOF 17
