REMARK  15 active torsions:
REMARK  status: ('A' for Active; 'I' for Inactive)
REMARK    1  A    between atoms: C2_1  and  O39_16 
REMARK    2  A    between atoms: C16_7  and  N11_6 
REMARK    3  A    between atoms: N11_6  and  S8_20 
REMARK    4  A    between atoms: N11_6  and  C42_22 
REMARK    5  A    between atoms: C17_8  and  C16_7 
REMARK    6  A    between atoms: C17_8  and  O18_9 
REMARK    7  A    between atoms: C19_29  and  C17_8 
REMARK       I    between atoms: C21_10  and  N20_30 
REMARK    8  A    between atoms: O23_32  and  C21_10 
REMARK    9  A    between atoms: C19_29  and  C32_15 
REMARK   10  A    between atoms: C32_15  and  C51_37 
REMARK   11  A    between atoms: O39_16  and  C40_17 
REMARK   12  A    between atoms: S8_20  and  C5_19 
REMARK   13  A    between atoms: C42_22  and  C48_28 
REMARK   14  A    between atoms: N20_30  and  C19_29 
REMARK   15  A    between atoms: O23_32  and  C24_33 
ROOT
ATOM      1  C19 6KQ d   1      15.197  22.966  16.887  0.00  0.00     0.041 C 
ATOM      2  H26 6KQ d   1      16.132  22.430  16.669  0.00  0.00     0.076 H 
ENDROOT
BRANCH   1   3
ATOM      3  C17 6KQ d   1      15.504  24.150  17.810  0.00  0.00     0.067 C 
ATOM      4  H6  6KQ d   1      15.872  23.747  18.765  0.00  0.00     0.088 H 
BRANCH   3   5
ATOM      5  C16 6KQ d   1      16.591  25.068  17.224  0.00  0.00     0.019 C 
ATOM      6  H4  6KQ d   1      16.396  25.230  16.154  0.00  0.00     0.061 H 
ATOM      7  H5  6KQ d   1      16.578  26.034  17.750  0.00  0.00     0.061 H 
BRANCH   5   8
ATOM      8  N11 6KQ d   1      17.894  24.443  17.390  0.00  0.00    -0.200 NA
BRANCH   8   9
ATOM      9  S8  6KQ d   1      18.693  24.170  15.983  0.00  0.00     0.244 S 
ATOM     10  O10 6KQ d   1      19.592  22.992  16.190  0.00  0.00    -0.206 OA
ATOM     11  O9  6KQ d   1      17.705  23.938  14.881  0.00  0.00    -0.206 OA
BRANCH   9  12
ATOM     12  C5  6KQ d   1      19.669  25.573  15.579  0.00  0.00     0.074 C 
ATOM     13  C4  6KQ d   1      19.105  26.564  14.781  0.00  0.00    -0.058 C 
ATOM     14  C3  6KQ d   1      19.860  27.697  14.506  0.00  0.00    -0.049 C 
ATOM     15  H1  6KQ d   1      18.102  26.454  14.384  0.00  0.00     0.086 H 
ATOM     16  C2  6KQ d   1      21.202  27.750  14.874  0.00  0.00     0.068 C 
ATOM     17  H18 6KQ d   1      19.403  28.542  14.004  0.00  0.00     0.087 H 
ATOM     18  C7  6KQ d   1      21.807  26.686  15.546  0.00  0.00    -0.049 C 
ATOM     19  C6  6KQ d   1      21.022  25.583  15.894  0.00  0.00    -0.058 C 
ATOM     20  H3  6KQ d   1      22.862  26.715  15.792  0.00  0.00     0.087 H 
ATOM     21  H2  6KQ d   1      21.467  24.739  16.408  0.00  0.00     0.086 H 
BRANCH  16  22
ATOM     22  O39 6KQ d   1      21.921  28.851  14.534  0.00  0.00    -0.356 OA
BRANCH  22  23
ATOM     23  C40 6KQ d   1      23.239  28.822  15.074  0.00  0.00     0.010 C 
ATOM     24  H15 6KQ d   1      23.779  29.731  14.772  0.00  0.00     0.066 H 
ATOM     25  H16 6KQ d   1      23.771  27.937  14.695  0.00  0.00     0.066 H 
ATOM     26  H17 6KQ d   1      23.185  28.776  16.172  0.00  0.00     0.066 H 
ENDBRANCH  22  23
ENDBRANCH  16  22
ENDBRANCH   9  12
ENDBRANCH   8   9
BRANCH   8  27
ATOM     27  C42 6KQ d   1      18.742  24.974  18.427  0.00  0.00     0.017 C 
ATOM     28  H19 6KQ d   1      18.186  25.746  18.980  0.00  0.00     0.064 H 
ATOM     29  H20 6KQ d   1      19.632  25.424  17.963  0.00  0.00     0.064 H 
BRANCH  27  30
ATOM     30  C48 6KQ d   1      19.193  23.887  19.411  0.00  0.00    -0.044 A 
ATOM     31  C43 6KQ d   1      20.492  23.888  19.911  0.00  0.00    -0.076 A 
ATOM     32  C44 6KQ d   1      20.920  22.879  20.767  0.00  0.00    -0.082 A 
ATOM     33  H21 6KQ d   1      21.175  24.681  19.631  0.00  0.00     0.084 H 
ATOM     34  C45 6KQ d   1      20.057  21.857  21.137  0.00  0.00    -0.083 A 
ATOM     35  H22 6KQ d   1      21.935  22.891  21.148  0.00  0.00     0.083 H 
ATOM     36  C46 6KQ d   1      18.745  21.881  20.669  0.00  0.00    -0.082 A 
ATOM     37  H23 6KQ d   1      20.398  21.053  21.779  0.00  0.00     0.083 H 
ATOM     38  C47 6KQ d   1      18.320  22.881  19.802  0.00  0.00    -0.076 A 
ATOM     39  H24 6KQ d   1      18.049  21.112  20.984  0.00  0.00     0.083 H 
ATOM     40  H25 6KQ d   1      17.302  22.875  19.430  0.00  0.00     0.084 H 
ENDBRANCH  27  30
ENDBRANCH   8  27
ENDBRANCH   5   8
ENDBRANCH   3   5
BRANCH   3  41
ATOM     41  O18 6KQ d   1      14.328  24.918  18.067  0.00  0.00    -0.392 OA
ATOM     42  H7  6KQ d   1      14.531  25.608  18.687  0.00  0.00     0.210 HD
ENDBRANCH   3  41
ENDBRANCH   1   3
BRANCH   1  43
ATOM     43  C32 6KQ d   1      14.539  23.425  15.573  0.00  0.00    -0.037 C 
ATOM     44  H13 6KQ d   1      15.188  24.202  15.143  0.00  0.00     0.037 H 
ATOM     45  H14 6KQ d   1      13.566  23.865  15.838  0.00  0.00     0.037 H 
BRANCH  43  46
ATOM     46  C51 6KQ d   1      14.279  22.395  14.465  0.00  0.00    -0.037 C 
ATOM     47  C52 6KQ d   1      13.003  21.635  14.771  0.00  0.00    -0.055 C 
ATOM     48  C53 6KQ d   1      12.747  20.614  13.659  0.00  0.00    -0.053 C 
ATOM     49  H32 6KQ d   1      12.159  22.339  14.826  0.00  0.00     0.034 H 
ATOM     50  H33 6KQ d   1      13.108  21.113  15.733  0.00  0.00     0.034 H 
ATOM     51  C54 6KQ d   1      13.946  19.664  13.515  0.00  0.00    -0.058 C 
ATOM     52  C60 6KQ d   1      12.558  21.375  12.336  0.00  0.00    -0.058 C 
ATOM     53  H34 6KQ d   1      11.842  20.033  13.891  0.00  0.00     0.040 H 
ATOM     54  C55 6KQ d   1      15.224  20.444  13.216  0.00  0.00    -0.053 C 
ATOM     55  H35 6KQ d   1      13.752  18.961  12.692  0.00  0.00     0.034 H 
ATOM     56  H36 6KQ d   1      14.077  19.104  14.453  0.00  0.00     0.034 H 
ATOM     57  C56 6KQ d   1      15.047  21.206  11.900  0.00  0.00    -0.058 C 
ATOM     58  C59 6KQ d   1      15.467  21.448  14.351  0.00  0.00    -0.055 C 
ATOM     59  H37 6KQ d   1      16.076  19.753  13.137  0.00  0.00     0.040 H 
ATOM     60  C57 6KQ d   1      13.846  22.143  12.020  0.00  0.00    -0.053 C 
ATOM     61  H38 6KQ d   1      14.876  20.492  11.081  0.00  0.00     0.034 H 
ATOM     62  H39 6KQ d   1      15.953  21.794  11.691  0.00  0.00     0.034 H 
ATOM     63  C58 6KQ d   1      14.103  23.156  13.141  0.00  0.00    -0.055 C 
ATOM     64  H40 6KQ d   1      13.717  22.678  11.067  0.00  0.00     0.040 H 
ATOM     65  H41 6KQ d   1      15.016  23.729  12.920  0.00  0.00     0.034 H 
ATOM     66  H42 6KQ d   1      13.248  23.844  13.221  0.00  0.00     0.034 H 
ATOM     67  H43 6KQ d   1      15.593  20.904  15.299  0.00  0.00     0.034 H 
ATOM     68  H44 6KQ d   1      16.377  22.028  14.137  0.00  0.00     0.034 H 
ATOM     69  H45 6KQ d   1      11.720  22.081  12.432  0.00  0.00     0.034 H 
ATOM     70  H46 6KQ d   1      12.345  20.662  11.526  0.00  0.00     0.034 H 
ENDBRANCH  43  46
ENDBRANCH   1  43
BRANCH   1  71
ATOM     71  N20 6KQ d   1      14.234  22.064  17.521  0.00  0.00    -0.330 N 
ATOM     72  C21 6KQ d   1      14.552  20.856  18.014  0.00  0.00     0.361 C 
ATOM     73  O22 6KQ d   1      15.679  20.385  17.978  0.00  0.00    -0.238 OA
ATOM     74  H27 6KQ d   1      13.283  22.365  17.591  0.00  0.00     0.165 HD
BRANCH  72  75
ATOM     75  O23 6KQ d   1      13.525  20.192  18.596  0.00  0.00    -0.296 OA
BRANCH  75  76
ATOM     76  C24 6KQ d   1      13.775  18.834  18.983  0.00  0.00     0.078 C 
ATOM     77  C31 6KQ d   1      12.741  17.953  18.260  0.00  0.00     0.023 C 
ATOM     78  C30 6KQ d   1      12.333  18.566  16.917  0.00  0.00    -0.035 C 
ATOM     79  C27 6KQ d   1      11.486  18.059  19.109  0.00  0.00     0.137 C 
ATOM     80  H12 6KQ d   1      13.099  16.919  18.145  0.00  0.00     0.051 H 
ATOM     81  C29 6KQ d   1      11.154  19.468  17.309  0.00  0.00     0.023 C 
ATOM     82  H10 6KQ d   1      13.155  19.153  16.482  0.00  0.00     0.037 H 
ATOM     83  H11 6KQ d   1      12.020  17.789  16.204  0.00  0.00     0.037 H 
ATOM     84  O28 6KQ d   1      10.498  18.766  18.356  0.00  0.00    -0.361 OA
ATOM     85  H8  6KQ d   1      11.514  20.445  17.663  0.00  0.00     0.074 H 
ATOM     86  H9  6KQ d   1      10.476  19.614  16.455  0.00  0.00     0.074 H 
ATOM     87  O26 6KQ d   1      11.839  18.788  20.286  0.00  0.00    -0.358 OA
ATOM     88  H31 6KQ d   1      11.111  17.060  19.378  0.00  0.00     0.129 H 
ATOM     89  C25 6KQ d   1      13.264  18.683  20.429  0.00  0.00     0.048 C 
ATOM     90  H29 6KQ d   1      13.656  19.485  21.072  0.00  0.00     0.078 H 
ATOM     91  H30 6KQ d   1      13.547  17.706  20.848  0.00  0.00     0.078 H 
ATOM     92  H28 6KQ d   1      14.821  18.529  18.831  0.00  0.00     0.088 H 
ENDBRANCH  75  76
ENDBRANCH  72  75
ENDBRANCH   1  71
TORSDOF 15
