REMARK  17 active torsions:
REMARK  status: ('A' for Active; 'I' for Inactive)
REMARK    1  A    between atoms: C12_2  and  C13_3 
REMARK    2  A    between atoms: N11_21  and  C12_2 
REMARK    3  A    between atoms: C13_3  and  C14_4 
REMARK    4  A    between atoms: C13_3  and  C15_5 
REMARK    5  A    between atoms: C17_7  and  C16_6 
REMARK    6  A    between atoms: C16_6  and  N11_21 
REMARK    7  A    between atoms: C19_8  and  C17_7 
REMARK    8  A    between atoms: C17_7  and  O18_22 
REMARK    9  A    between atoms: N20_23  and  C19_8 
REMARK   10  A    between atoms: C19_8  and  C32_32 
REMARK       I    between atoms: C21_9  and  N20_23 
REMARK   11  A    between atoms: O23_25  and  C21_9 
REMARK   12  A    between atoms: C24_10  and  O23_25 
REMARK   13  A    between atoms: C2_13  and  O39_43 
REMARK   14  A    between atoms: S8_19  and  C5_16 
REMARK   15  A    between atoms: N11_21  and  S8_19 
REMARK   16  A    between atoms: C32_32  and  C51_33 
REMARK   17  A    between atoms: O39_43  and  C40_44 
ROOT
ATOM      1  C19 6KR d   1      14.743  22.797  16.964  0.00  0.00     0.041 C 
ATOM      2  H13 6KR d   1      15.665  22.285  16.651  0.00  0.00     0.076 H 
ENDROOT
BRANCH   1   3
ATOM      3  C17 6KR d   1      15.136  23.887  17.958  0.00  0.00     0.067 C 
ATOM      4  H12 6KR d   1      15.468  23.396  18.884  0.00  0.00     0.088 H 
BRANCH   3   5
ATOM      5  C16 6KR d   1      16.256  24.837  17.466  0.00  0.00     0.019 C 
ATOM      6  H10 6KR d   1      16.375  25.653  18.194  0.00  0.00     0.061 H 
ATOM      7  H11 6KR d   1      15.965  25.255  16.491  0.00  0.00     0.061 H 
BRANCH   5   8
ATOM      8  N11 6KR d   1      17.516  24.155  17.322  0.00  0.00    -0.204 NA
BRANCH   8   9
ATOM      9  C12 6KR d   1      18.500  24.602  18.362  0.00  0.00    -0.004 C 
ATOM     10  H1  6KR d   1      19.511  24.294  18.058  0.00  0.00     0.058 H 
ATOM     11  H2  6KR d   1      18.461  25.698  18.448  0.00  0.00     0.058 H 
BRANCH   9  12
ATOM     12  C13 6KR d   1      18.171  23.975  19.734  0.00  0.00    -0.049 C 
ATOM     13  H3  6KR d   1      17.161  24.292  20.032  0.00  0.00     0.040 H 
BRANCH  12  14
ATOM     14  C14 6KR d   1      18.216  22.447  19.647  0.00  0.00    -0.072 C 
ATOM     15  H4  6KR d   1      17.980  22.017  20.631  0.00  0.00     0.028 H 
ATOM     16  H5  6KR d   1      19.222  22.127  19.339  0.00  0.00     0.028 H 
ATOM     17  H6  6KR d   1      17.478  22.100  18.908  0.00  0.00     0.028 H 
ENDBRANCH  12  14
BRANCH  12  18
ATOM     18  C15 6KR d   1      19.166  24.417  20.799  0.00  0.00    -0.072 C 
ATOM     19  H7  6KR d   1      19.152  25.514  20.881  0.00  0.00     0.028 H 
ATOM     20  H8  6KR d   1      20.176  24.083  20.519  0.00  0.00     0.028 H 
ATOM     21  H9  6KR d   1      18.888  23.974  21.767  0.00  0.00     0.028 H 
ENDBRANCH  12  18
ENDBRANCH   9  12
ENDBRANCH   8   9
BRANCH   8  22
ATOM     22  S8  6KR d   1      18.165  24.013  15.779  0.00  0.00     0.243 S 
ATOM     23  O10 6KR d   1      19.054  22.896  15.901  0.00  0.00    -0.206 OA
ATOM     24  O9  6KR d   1      17.105  23.965  14.772  0.00  0.00    -0.206 OA
BRANCH  22  25
ATOM     25  C5  6KR d   1      19.138  25.402  15.277  0.00  0.00     0.074 C 
ATOM     26  C4  6KR d   1      18.585  26.513  14.649  0.00  0.00    -0.058 C 
ATOM     27  C3  6KR d   1      19.368  27.646  14.424  0.00  0.00    -0.049 C 
ATOM     28  H18 6KR d   1      17.548  26.499  14.335  0.00  0.00     0.086 H 
ATOM     29  C2  6KR d   1      20.690  27.688  14.826  0.00  0.00     0.068 C 
ATOM     30  H17 6KR d   1      18.933  28.506  13.927  0.00  0.00     0.087 H 
ATOM     31  C7  6KR d   1      21.290  26.545  15.347  0.00  0.00    -0.049 C 
ATOM     32  C6  6KR d   1      20.457  25.440  15.631  0.00  0.00    -0.058 C 
ATOM     33  H20 6KR d   1      22.358  26.504  15.528  0.00  0.00     0.087 H 
ATOM     34  H19 6KR d   1      20.881  24.588  16.151  0.00  0.00     0.086 H 
BRANCH  29  35
ATOM     35  O39 6KR d   1      21.317  28.887  14.658  0.00  0.00    -0.356 OA
BRANCH  35  36
ATOM     36  C40 6KR d   1      22.721  28.888  15.022  0.00  0.00     0.010 C 
ATOM     37  H48 6KR d   1      23.142  29.890  14.855  0.00  0.00     0.066 H 
ATOM     38  H49 6KR d   1      23.261  28.156  14.404  0.00  0.00     0.066 H 
ATOM     39  H50 6KR d   1      22.825  28.619  16.084  0.00  0.00     0.066 H 
ENDBRANCH  35  36
ENDBRANCH  29  35
ENDBRANCH  22  25
ENDBRANCH   8  22
ENDBRANCH   5   8
ENDBRANCH   3   5
BRANCH   3  40
ATOM     40  O18 6KR d   1      14.009  24.739  18.236  0.00  0.00    -0.392 OA
ATOM     41  H21 6KR d   1      13.714  25.145  17.430  0.00  0.00     0.210 HD
ENDBRANCH   3  40
ENDBRANCH   1   3
BRANCH   1  42
ATOM     42  N20 6KR d   1      13.830  21.818  17.623  0.00  0.00    -0.330 N 
ATOM     43  C21 6KR d   1      14.226  20.645  18.118  0.00  0.00     0.361 C 
ATOM     44  O22 6KR d   1      15.365  20.193  18.028  0.00  0.00    -0.238 OA
ATOM     45  H22 6KR d   1      12.862  22.056  17.698  0.00  0.00     0.165 HD
BRANCH  43  46
ATOM     46  O23 6KR d   1      13.198  19.997  18.778  0.00  0.00    -0.296 OA
BRANCH  46  47
ATOM     47  C24 6KR d   1      13.478  18.743  19.400  0.00  0.00     0.078 C 
ATOM     48  C25 6KR d   1      12.878  18.765  20.804  0.00  0.00     0.048 C 
ATOM     49  O26 6KR d   1      11.508  18.400  20.683  0.00  0.00    -0.358 OA
ATOM     50  H15 6KR d   1      12.962  19.774  21.234  0.00  0.00     0.078 H 
ATOM     51  H16 6KR d   1      13.404  18.046  21.450  0.00  0.00     0.078 H 
ATOM     52  C27 6KR d   1      11.267  17.779  19.441  0.00  0.00     0.137 C 
ATOM     53  O28 6KR d   1      10.464  18.723  18.710  0.00  0.00    -0.361 OA
ATOM     54  C31 6KR d   1      12.645  17.641  18.810  0.00  0.00     0.022 C 
ATOM     55  H23 6KR d   1      10.764  16.806  19.538  0.00  0.00     0.129 H 
ATOM     56  C29 6KR d   1      10.208  18.212  17.365  0.00  0.00     0.023 C 
ATOM     57  C30 6KR d   1      11.543  18.312  16.673  0.00  0.00    -0.044 C 
ATOM     58  H24 6KR d   1       9.455  18.827  16.851  0.00  0.00     0.074 H 
ATOM     59  H25 6KR d   1       9.865  17.168  17.403  0.00  0.00     0.074 H 
ATOM     60  C41 6KR d   1      12.634  17.551  17.341  0.00  0.00    -0.053 C 
ATOM     61  H26 6KR d   1      11.834  19.372  16.636  0.00  0.00     0.036 H 
ATOM     62  H27 6KR d   1      11.431  17.927  15.649  0.00  0.00     0.036 H 
ATOM     63  H28 6KR d   1      13.595  17.934  16.968  0.00  0.00     0.034 H 
ATOM     64  H29 6KR d   1      12.530  16.491  17.065  0.00  0.00     0.034 H 
ATOM     65  H30 6KR d   1      13.074  16.690  19.159  0.00  0.00     0.051 H 
ATOM     66  H14 6KR d   1      14.556  18.523  19.383  0.00  0.00     0.088 H 
ENDBRANCH  46  47
ENDBRANCH  43  46
ENDBRANCH   1  42
BRANCH   1  67
ATOM     67  C32 6KR d   1      14.019  23.276  15.718  0.00  0.00    -0.037 C 
ATOM     68  H31 6KR d   1      14.623  24.089  15.290  0.00  0.00     0.037 H 
ATOM     69  H32 6KR d   1      13.047  23.674  16.045  0.00  0.00     0.037 H 
BRANCH  67  70
ATOM     70  C51 6KR d   1      13.736  22.286  14.584  0.00  0.00    -0.037 C 
ATOM     71  C52 6KR d   1      12.431  21.526  14.790  0.00  0.00    -0.055 C 
ATOM     72  C53 6KR d   1      12.173  20.638  13.574  0.00  0.00    -0.053 C 
ATOM     73  H33 6KR d   1      11.603  22.241  14.907  0.00  0.00     0.034 H 
ATOM     74  H34 6KR d   1      12.507  20.902  15.693  0.00  0.00     0.034 H 
ATOM     75  C54 6KR d   1      13.264  19.586  13.428  0.00  0.00    -0.058 C 
ATOM     76  C60 6KR d   1      12.014  21.495  12.325  0.00  0.00    -0.058 C 
ATOM     77  H35 6KR d   1      11.223  20.108  13.737  0.00  0.00     0.040 H 
ATOM     78  C55 6KR d   1      14.573  20.336  13.197  0.00  0.00    -0.053 C 
ATOM     79  H36 6KR d   1      13.046  18.931  12.571  0.00  0.00     0.034 H 
ATOM     80  H37 6KR d   1      13.331  18.981  14.344  0.00  0.00     0.034 H 
ATOM     81  C56 6KR d   1      14.456  21.185  11.928  0.00  0.00    -0.058 C 
ATOM     82  C59 6KR d   1      14.857  21.290  14.351  0.00  0.00    -0.055 C 
ATOM     83  H38 6KR d   1      15.397  19.614  13.096  0.00  0.00     0.040 H 
ATOM     84  C57 6KR d   1      13.328  22.229  12.075  0.00  0.00    -0.053 C 
ATOM     85  H39 6KR d   1      14.233  20.529  11.074  0.00  0.00     0.034 H 
ATOM     86  H40 6KR d   1      15.409  21.705  11.752  0.00  0.00     0.034 H 
ATOM     87  C58 6KR d   1      13.624  23.119  13.312  0.00  0.00    -0.055 C 
ATOM     88  H41 6KR d   1      13.258  22.845  11.167  0.00  0.00     0.040 H 
ATOM     89  H42 6KR d   1      14.572  23.653  13.150  0.00  0.00     0.034 H 
ATOM     90  H43 6KR d   1      12.808  23.847  13.432  0.00  0.00     0.034 H 
ATOM     91  H44 6KR d   1      14.998  20.699  15.268  0.00  0.00     0.034 H 
ATOM     92  H45 6KR d   1      15.780  21.846  14.128  0.00  0.00     0.034 H 
ATOM     93  H46 6KR d   1      11.204  22.224  12.475  0.00  0.00     0.034 H 
ATOM     94  H47 6KR d   1      11.776  20.855  11.463  0.00  0.00     0.034 H 
ENDBRANCH  67  70
ENDBRANCH   1  67
TORSDOF 17
