REMARK  8 active torsions:
REMARK  status: ('A' for Active; 'I' for Inactive)
REMARK    1  A    between atoms: CAG_2  and  CAH_5 
REMARK    2  A    between atoms: CAD_7  and  NAA_8 
REMARK    3  A    between atoms: CAI_11  and  CAM_12 
REMARK    4  A    between atoms: CAO_15  and  NAU_16 
REMARK    5  A    between atoms: CBA_19  and  CBD_20 
REMARK    6  A    between atoms: CBA_19  and  CBB_22 
REMARK    7  A    between atoms: CBB_22  and  OBC_23 
REMARK    8  A    between atoms: CAQ_25  and  NAR_26 
ROOT
ATOM      1  CAM 6K5 d   1      22.859  -4.855  20.918  0.00  0.00     0.200 A 
ATOM      2  NAN 6K5 d   1      22.106  -5.640  21.780  0.00  0.00    -0.041 NA
ATOM      3  NAL 6K5 d   1      22.380  -3.674  20.370  0.00  0.00    -0.041 NA
ATOM      4  CAO 6K5 d   1      21.071  -3.273  20.713  0.00  0.00     0.742 A 
ATOM      5  NAP 6K5 d   1      20.294  -4.034  21.570  0.00  0.00     0.130 NA
ATOM      6  CAQ 6K5 d   1      20.835  -5.206  22.084  0.00  0.00     0.742 A 
ENDROOT
BRANCH   4   7
ATOM      7  NAU 6K5 d   1      20.457  -2.051  20.197  0.00  0.00    -0.212 N 
ATOM      8  CAZ 6K5 d   1      19.788  -0.848  20.841  0.00  0.00     0.023 A 
ATOM      9  CBA 6K5 d   1      19.258  -0.312  19.451  0.00  0.00     0.027 A 
ATOM     10  H5  6K5 d   1      20.494  -0.165  21.335  0.00  0.00     0.066 H 
ATOM     11  H6  6K5 d   1      18.985  -1.116  21.544  0.00  0.00     0.066 H 
ATOM     12  CAV 6K5 d   1      19.941  -1.622  18.861  0.00  0.00     0.023 A 
ATOM     13  H7  6K5 d   1      19.222  -2.330  18.422  0.00  0.00     0.066 H 
ATOM     14  H8  6K5 d   1      20.737  -1.409  18.133  0.00  0.00     0.066 H 
BRANCH   9  15
ATOM     15  CBD 6K5 d   1      17.735  -0.275  19.196  0.00  0.00     0.014 C 
ATOM     16 CL   6K5 d   1      16.648  -0.714  20.671  0.00  0.00    -0.130 Cl
ATOM     17  H9  6K5 d   1      17.510  -0.986  18.387  0.00  0.00     0.058 H 
ATOM     18  H10 6K5 d   1      17.471   0.743  18.873  0.00  0.00     0.058 H 
ENDBRANCH   9  15
BRANCH   9  19
ATOM     19  CBB 6K5 d   1      19.918   1.002  18.920  0.00  0.00     0.028 C 
ATOM     20  H11 6K5 d   1      19.512   1.241  17.926  0.00  0.00     0.075 H 
ATOM     21  H12 6K5 d   1      21.007   0.863  18.848  0.00  0.00     0.075 H 
BRANCH  19  22
ATOM     22  OBC 6K5 d   1      19.638   2.055  19.806  0.00  0.00    -0.400 OA
ATOM     23  H13 6K5 d   1      20.039   2.854  19.484  0.00  0.00     0.209 HD
ENDBRANCH  19  22
ENDBRANCH   9  19
ENDBRANCH   4   7
BRANCH   1  24
ATOM     24  CAI 6K5 d   1      24.315  -5.363  20.582  0.00  0.00     0.046 A 
ATOM     25  CAH 6K5 d   1      24.988  -5.320  19.335  0.00  0.00     0.067 A 
ATOM     26  CAC 6K5 d   1      26.306  -5.794  19.105  0.00  0.00    -0.024 A 
ATOM     27  CAD 6K5 d   1      27.039  -6.375  20.172  0.00  0.00     0.121 A 
ATOM     28  H1  6K5 d   1      26.750  -5.713  18.119  0.00  0.00     0.090 H 
ATOM     29  NAE 6K5 d   1      26.416  -6.446  21.406  0.00  0.00    -0.243 NA
ATOM     30  CAJ 6K5 d   1      25.156  -5.967  21.544  0.00  0.00     0.019 A 
ATOM     31  H4  6K5 d   1      24.731  -6.061  22.537  0.00  0.00     0.116 H 
BRANCH  25  32
ATOM     32  CAG 6K5 d   1      24.286  -4.707  18.128  0.00  0.00     0.418 C 
ATOM     33  FAB 6K5 d   1      24.802  -5.047  16.933  0.00  0.00    -0.166 F 
ATOM     34  FAF 6K5 d   1      22.990  -5.040  18.057  0.00  0.00    -0.166 F 
ATOM     35  FAK 6K5 d   1      24.278  -3.351  18.083  0.00  0.00    -0.166 F 
ENDBRANCH  25  32
BRANCH  27  36
ATOM     36  NAA 6K5 d   1      28.332  -6.863  20.022  0.00  0.00    -0.384 N 
ATOM     37  H2  6K5 d   1      28.823  -7.276  20.828  0.00  0.00     0.157 HD
ATOM     38  H3  6K5 d   1      28.799  -6.811  19.105  0.00  0.00     0.157 HD
ENDBRANCH  27  36
ENDBRANCH   1  24
BRANCH   6  39
ATOM     39  NAR 6K5 d   1      19.909  -5.932  23.000  0.00  0.00    -0.209 N 
ATOM     40  CAS 6K5 d   1      20.184  -7.356  23.400  0.00  0.00     0.032 C 
ATOM     41  CAT 6K5 d   1      19.264  -7.814  24.573  0.00  0.00     0.035 C 
ATOM     42  H14 6K5 d   1      21.234  -7.441  23.717  0.00  0.00     0.068 H 
ATOM     43  H15 6K5 d   1      20.008  -8.010  22.533  0.00  0.00     0.068 H 
ATOM     44  OAY 6K5 d   1      17.908  -7.590  24.327  0.00  0.00    -0.388 OA
ATOM     45  H16 6K5 d   1      19.551  -7.261  25.479  0.00  0.00     0.076 H 
ATOM     46  H17 6K5 d   1      19.416  -8.891  24.737  0.00  0.00     0.076 H 
ATOM     47  CAX 6K5 d   1      17.613  -6.259  24.015  0.00  0.00     0.035 C 
ATOM     48  CAW 6K5 d   1      18.429  -5.771  22.788  0.00  0.00     0.032 C 
ATOM     49  H18 6K5 d   1      17.856  -5.626  24.881  0.00  0.00     0.076 H 
ATOM     50  H19 6K5 d   1      16.540  -6.174  23.788  0.00  0.00     0.076 H 
ATOM     51  H20 6K5 d   1      18.130  -6.357  21.906  0.00  0.00     0.068 H 
ATOM     52  H21 6K5 d   1      18.208  -4.708  22.614  0.00  0.00     0.068 H 
ENDBRANCH   6  39
TORSDOF 8
