REMARK  2 active torsions:
REMARK  status: ('A' for Active; 'I' for Inactive)
REMARK    1  A    between atoms: C6_3  and  C10_5 
REMARK    2  A    between atoms: C8_4  and  N12_6 
REMARK       I    between atoms: C10_5  and  N13_13 
ROOT
ATOM      1  C4  6KT d   1       4.994   8.145   9.450  0.00  0.00    -0.049 A 
ATOM      2  C5  6KT d   1       5.938   7.745   7.273  0.00  0.00    -0.065 A 
ATOM      3  C6  6KT d   1       5.008   7.447   8.273  0.00  0.00     0.033 A 
ATOM      4  C8  6KT d   1       7.457  10.977  10.210  0.00  0.00     0.165 A 
ATOM      5  C1  6KT d   1       6.885   9.480   8.635  0.00  0.00     0.076 A 
ATOM      6  C2  6KT d   1       5.914   9.126   9.613  0.00  0.00     0.038 A 
ATOM      7  C3  6KT d   1       6.893   8.758   7.446  0.00  0.00    -0.053 A 
ATOM      8  N7  6KT d   1       7.752  10.528   8.986  0.00  0.00    -0.224 NA
ATOM      9  S9  6KT d   1       6.118  10.172  11.004  0.00  0.00    -0.050 SA
ATOM     10  H1  6KT d   1       4.271   7.920  10.226  0.00  0.00     0.087 H 
ATOM     11  H2  6KT d   1       5.921   7.183   6.346  0.00  0.00     0.085 H 
ATOM     12  H5  6KT d   1       7.620   8.973   6.671  0.00  0.00     0.087 H 
ENDROOT
BRANCH   3  13
ATOM     13  C10 6KT d   1       3.985   6.352   8.094  0.00  0.00     0.249 C 
ATOM     14  O11 6KT d   1       3.085   6.255   8.856  0.00  0.00    -0.268 OA
ATOM     15  N13 6KT d   1       4.130   5.444   6.966  0.00  0.00    -0.366 N 
ATOM     16  H6  6KT d   1       3.465   4.710   6.826  0.00  0.00     0.159 HD
ATOM     17  H7  6KT d   1       4.895   5.554   6.331  0.00  0.00     0.159 HD
ENDBRANCH   3  13
BRANCH   4  18
ATOM     18  N12 6KT d   1       8.189  12.062  10.837  0.00  0.00    -0.378 N 
ATOM     19  H3  6KT d   1       8.971  12.511  10.339  0.00  0.00     0.158 HD
ATOM     20  H4  6KT d   1       7.927  12.383  11.780  0.00  0.00     0.158 HD
ENDBRANCH   4  18
TORSDOF 2
