REMARK  25 active torsions:
REMARK  status: ('A' for Active; 'I' for Inactive)
REMARK    1  A    between atoms: O1_7  and  C1_1 
REMARK    2  A    between atoms: C2_2  and  O2_8 
REMARK    3  A    between atoms: C3_3  and  O3_9 
REMARK    4  A    between atoms: C4_4  and  O4_10 
REMARK    5  A    between atoms: C5_5  and  C6_6 
REMARK    6  A    between atoms: C6_6  and  O6_12 
REMARK    7  A    between atoms: C4_15  and  O1_7 
REMARK    8  A    between atoms: C2_13  and  O2_20 
REMARK    9  A    between atoms: C3_14  and  O3_21 
REMARK   10  A    between atoms: C5_16  and  C6_17 
REMARK   11  A    between atoms: C6_17  and  O6_23 
REMARK   12  A    between atoms: O1_19  and  C1_18 
REMARK   13  A    between atoms: C6_29  and  O1_19 
REMARK   14  A    between atoms: C1_24  and  O1_33 
REMARK   15  A    between atoms: N2_32  and  C2_25 
REMARK   16  A    between atoms: C3_26  and  O3_34 
REMARK   17  A    between atoms: C4_27  and  O4_35 
REMARK   18  A    between atoms: C5_28  and  C6_29 
REMARK   19  A    between atoms: C7_30  and  C8_31 
REMARK       I    between atoms: C7_30  and  N2_32 
REMARK   20  A    between atoms: O4_35  and  C1_38 
REMARK   21  A    between atoms: C2_39  and  O2_44 
REMARK   22  A    between atoms: C3_40  and  O3_45 
REMARK   23  A    between atoms: C4_41  and  O4_46 
REMARK   24  A    between atoms: C5_42  and  C6_43 
REMARK   25  A    between atoms: C6_43  and  O6_48 
ROOT
ATOM      1  C6  NON d   1     -22.022  70.042  43.604  0.00  0.00     0.049 C 
ATOM      2  H27 NON d   1     -21.769  71.022  43.173  0.00  0.00     0.078 H 
ATOM      3  H28 NON d   1     -22.441  69.394  42.820  0.00  0.00     0.078 H 
ENDROOT
BRANCH   1   4
ATOM      4  O1  NON d   1     -22.996  70.205  44.707  0.00  0.00    -0.356 OA
BRANCH   4   5
ATOM      5  C1  NON d   1     -24.305  70.609  44.277  0.00  0.00     0.158 C 
ATOM      6  C2  NON d   1     -25.372  70.224  45.300  0.00  0.00     0.110 C 
ATOM      7  C3  NON d   1     -26.691  70.957  44.998  0.00  0.00     0.092 C 
ATOM      8  H12 NON d   1     -25.035  70.511  46.307  0.00  0.00     0.094 H 
ATOM      9  C4  NON d   1     -26.423  72.469  44.929  0.00  0.00     0.096 C 
ATOM     10  H13 NON d   1     -27.086  70.599  44.036  0.00  0.00     0.091 H 
ATOM     11  C5  NON d   1     -25.357  72.829  43.882  0.00  0.00     0.089 C 
ATOM     12  H14 NON d   1     -26.122  72.824  45.926  0.00  0.00     0.091 H 
ATOM     13  O5  NON d   1     -24.195  72.064  44.260  0.00  0.00    -0.348 OA
ATOM     14  H15 NON d   1     -25.710  72.589  42.868  0.00  0.00     0.090 H 
ATOM     15  H18 NON d   1     -24.552  70.197  43.288  0.00  0.00     0.133 H 
BRANCH   6  16
ATOM     16  O2  NON d   1     -25.525  68.799  45.245  0.00  0.00    -0.388 OA
ATOM     17  H19 NON d   1     -25.795  68.544  44.370  0.00  0.00     0.210 HD
ENDBRANCH   6  16
BRANCH   7  18
ATOM     18  O3  NON d   1     -27.673  70.762  46.016  0.00  0.00    -0.390 OA
ATOM     19  H20 NON d   1     -27.337  71.085  46.844  0.00  0.00     0.210 HD
ENDBRANCH   7  18
BRANCH   9  20
ATOM     20  O1  NON d   1     -27.585  73.185  44.456  0.00  0.00    -0.348 OA
BRANCH  20  21
ATOM     21  C1  NON d   1     -28.056  74.288  45.271  0.00  0.00     0.159 C 
ATOM     22  C2  NON d   1     -29.239  74.807  44.459  0.00  0.00     0.110 C 
ATOM     23  C3  NON d   1     -29.962  75.901  45.269  0.00  0.00     0.092 C 
ATOM     24  H2  NON d   1     -29.928  73.988  44.206  0.00  0.00     0.094 H 
ATOM     25  C4  NON d   1     -30.498  75.427  46.638  0.00  0.00     0.090 C 
ATOM     26  H3  NON d   1     -29.215  76.679  45.484  0.00  0.00     0.091 H 
ATOM     27  C5  NON d   1     -29.388  74.784  47.437  0.00  0.00     0.089 C 
ATOM     28  H4  NON d   1     -30.870  76.335  47.135  0.00  0.00     0.091 H 
ATOM     29  O5  NON d   1     -28.507  73.870  46.617  0.00  0.00    -0.348 OA
ATOM     30  H5  NON d   1     -28.756  75.519  47.956  0.00  0.00     0.090 H 
ATOM     31  H1  NON d   1     -27.275  75.055  45.375  0.00  0.00     0.133 H 
BRANCH  22  32
ATOM     32  O2  NON d   1     -28.716  75.425  43.276  0.00  0.00    -0.388 OA
ATOM     33  H8  NON d   1     -28.263  74.774  42.754  0.00  0.00     0.210 HD
ENDBRANCH  22  32
BRANCH  23  34
ATOM     34  O3  NON d   1     -30.987  76.511  44.471  0.00  0.00    -0.390 OA
ATOM     35  H9  NON d   1     -30.618  76.787  43.641  0.00  0.00     0.210 HD
ENDBRANCH  23  34
BRANCH  25  36
ATOM     36  O4  NON d   1     -31.495  74.360  46.847  0.00  0.00    -0.390 OA
ATOM     37  H10 NON d   1     -32.301  74.590  46.400  0.00  0.00     0.210 HD
ENDBRANCH  25  36
BRANCH  27  38
ATOM     38  C6  NON d   1     -30.347  74.039  48.396  0.00  0.00     0.043 C 
ATOM     39  H6  NON d   1     -30.902  73.234  47.892  0.00  0.00     0.078 H 
ATOM     40  H7  NON d   1     -31.056  74.719  48.891  0.00  0.00     0.078 H 
BRANCH  38  41
ATOM     41  O6  NON d   1     -29.341  73.529  49.310  0.00  0.00    -0.398 OA
ATOM     42  H11 NON d   1     -29.764  73.024  49.995  0.00  0.00     0.209 HD
ENDBRANCH  38  41
ENDBRANCH  27  38
ENDBRANCH  20  21
ENDBRANCH   9  20
BRANCH  11  43
ATOM     43  C6  NON d   1     -24.888  74.290  43.967  0.00  0.00     0.043 C 
ATOM     44  H16 NON d   1     -23.860  74.364  44.351  0.00  0.00     0.078 H 
ATOM     45  H17 NON d   1     -25.558  74.895  44.595  0.00  0.00     0.078 H 
BRANCH  43  46
ATOM     46  O6  NON d   1     -24.965  74.675  42.595  0.00  0.00    -0.398 OA
ATOM     47  H21 NON d   1     -24.695  75.581  42.506  0.00  0.00     0.209 HD
ENDBRANCH  43  46
ENDBRANCH  11  43
ENDBRANCH   4   5
ENDBRANCH   1   4
BRANCH   1  48
ATOM     48  C5  NON d   1     -20.778  69.397  44.213  0.00  0.00     0.089 C 
ATOM     49  C4  NON d   1     -21.019  68.074  44.970  0.00  0.00     0.095 C 
ATOM     50  C3  NON d   1     -19.725  67.538  45.604  0.00  0.00     0.087 C 
ATOM     51  H25 NON d   1     -21.779  68.213  45.753  0.00  0.00     0.091 H 
ATOM     52  C2  NON d   1     -19.239  68.656  46.567  0.00  0.00     0.086 C 
ATOM     53  H24 NON d   1     -18.976  67.304  44.833  0.00  0.00     0.090 H 
ATOM     54  C1  NON d   1     -19.066  70.018  45.838  0.00  0.00     0.151 C 
ATOM     55  H23 NON d   1     -19.981  68.769  47.371  0.00  0.00     0.084 H 
ATOM     56  O5  NON d   1     -20.329  70.403  45.206  0.00  0.00    -0.349 OA
ATOM     57  H22 NON d   1     -18.279  69.929  45.075  0.00  0.00     0.132 H 
ATOM     58  H26 NON d   1     -20.021  69.232  43.432  0.00  0.00     0.090 H 
BRANCH  49  59
ATOM     59  O4  NON d   1     -21.493  67.136  43.942  0.00  0.00    -0.348 OA
BRANCH  59  60
ATOM     60  C1  NON d   1     -22.845  66.685  44.151  0.00  0.00     0.159 C 
ATOM     61  C2  NON d   1     -23.174  65.874  42.878  0.00  0.00     0.110 C 
ATOM     62  C3  NON d   1     -24.409  64.964  43.098  0.00  0.00     0.092 C 
ATOM     63  H36 NON d   1     -22.310  65.258  42.587  0.00  0.00     0.094 H 
ATOM     64  C4  NON d   1     -24.395  64.134  44.409  0.00  0.00     0.090 C 
ATOM     65  H37 NON d   1     -25.308  65.597  43.115  0.00  0.00     0.091 H 
ATOM     66  C5  NON d   1     -24.117  65.088  45.587  0.00  0.00     0.089 C 
ATOM     67  H38 NON d   1     -25.360  63.623  44.542  0.00  0.00     0.091 H 
ATOM     68  O5  NON d   1     -22.852  65.805  45.320  0.00  0.00    -0.348 OA
ATOM     69  H39 NON d   1     -24.941  65.815  45.635  0.00  0.00     0.090 H 
ATOM     70  H35 NON d   1     -23.543  67.524  44.288  0.00  0.00     0.133 H 
BRANCH  61  71
ATOM     71  O2  NON d   1     -23.479  66.848  41.841  0.00  0.00    -0.388 OA
ATOM     72  H42 NON d   1     -23.690  66.394  41.034  0.00  0.00     0.210 HD
ENDBRANCH  61  71
BRANCH  62  73
ATOM     73  O3  NON d   1     -24.461  64.092  41.960  0.00  0.00    -0.390 OA
ATOM     74  H43 NON d   1     -24.469  64.611  41.165  0.00  0.00     0.210 HD
ENDBRANCH  62  73
BRANCH  64  75
ATOM     75  O4  NON d   1     -23.322  63.176  44.378  0.00  0.00    -0.390 OA
ATOM     76  H44 NON d   1     -22.497  63.630  44.254  0.00  0.00     0.210 HD
ENDBRANCH  64  75
BRANCH  66  77
ATOM     77  C6  NON d   1     -24.012  64.405  46.954  0.00  0.00     0.043 C 
ATOM     78  H40 NON d   1     -23.105  63.785  47.000  0.00  0.00     0.078 H 
ATOM     79  H41 NON d   1     -24.896  63.776  47.134  0.00  0.00     0.078 H 
BRANCH  77  80
ATOM     80  O6  NON d   1     -23.945  65.450  47.924  0.00  0.00    -0.398 OA
ATOM     81  H45 NON d   1     -23.182  65.990  47.754  0.00  0.00     0.209 HD
ENDBRANCH  77  80
ENDBRANCH  66  77
ENDBRANCH  59  60
ENDBRANCH  49  59
BRANCH  50  82
ATOM     82  O3  NON d   1     -19.995  66.374  46.434  0.00  0.00    -0.391 OA
ATOM     83  H34 NON d   1     -20.380  65.689  45.901  0.00  0.00     0.210 HD
ENDBRANCH  50  82
BRANCH  52  84
ATOM     84  N2  NON d   1     -17.932  68.306  47.152  0.00  0.00    -0.349 N 
ATOM     85  C7  NON d   1     -16.800  68.081  46.451  0.00  0.00     0.214 C 
ATOM     86  O7  NON d   1     -16.723  68.085  45.210  0.00  0.00    -0.274 OA
ATOM     87  H32 NON d   1     -17.880  68.229  48.148  0.00  0.00     0.163 HD
BRANCH  85  88
ATOM     88  C8  NON d   1     -15.591  67.745  47.348  0.00  0.00    -0.003 C 
ATOM     89  H29 NON d   1     -14.705  67.573  46.719  0.00  0.00     0.040 H 
ATOM     90  H30 NON d   1     -15.808  66.838  47.931  0.00  0.00     0.040 H 
ATOM     91  H31 NON d   1     -15.398  68.584  48.033  0.00  0.00     0.040 H 
ENDBRANCH  85  88
ENDBRANCH  52  84
BRANCH  54  92
ATOM     92  O1  NON d   1     -18.711  71.032  46.785  0.00  0.00    -0.369 OA
ATOM     93  H33 NON d   1     -18.611  71.863  46.335  0.00  0.00     0.212 HD
ENDBRANCH  54  92
ENDBRANCH   1  48
TORSDOF 25
