REMARK  10 active torsions:
REMARK  status: ('A' for Active; 'I' for Inactive)
REMARK    1  A    between atoms: O1_1  and  C42_2 
REMARK    2  A    between atoms: C41_7  and  C40_8 
REMARK    3  A    between atoms: C40_8  and  N18_9 
REMARK    4  A    between atoms: N18_9  and  C5_10 
REMARK    5  A    between atoms: C3_12  and  N10_22 
REMARK    6  A    between atoms: C8_16  and  C26_17 
REMARK    7  A    between atoms: C26_17  and  C28_18 
REMARK    8  A    between atoms: C26_17  and  C27_19 
REMARK    9  A    between atoms: N10_22  and  C11_23 
REMARK   10  A    between atoms: C11_23  and  C12_24 
ROOT
ATOM      1  C5  I74 d   1       0.946  -8.560 -28.154  0.00  0.00     0.129 A 
ATOM      2  C4  I74 d   1       2.205  -8.469 -28.781  0.00  0.00     0.005 A 
ATOM      3  C3  I74 d   1       2.601  -7.216 -29.314  0.00  0.00     0.131 A 
ATOM      4  N2  I74 d   1       1.723  -6.166 -29.255  0.00  0.00    -0.199 N 
ATOM      5  N1  I74 d   1       1.979  -4.873 -29.690  0.00  0.00    -0.176 NA
ATOM      6  C9  I74 d   1       0.890  -4.133 -29.328  0.00  0.00     0.032 A 
ATOM      7  C8  I74 d   1      -0.006  -5.013 -28.698  0.00  0.00     0.013 A 
ATOM      8  C7  I74 d   1       0.575  -6.289 -28.628  0.00  0.00     0.163 A 
ATOM      9  N6  I74 d   1       0.142  -7.464 -28.103  0.00  0.00    -0.211 NA
ATOM     10  H15 I74 d   1       2.857  -9.338 -28.854  0.00  0.00     0.095 H 
ATOM     11  H16 I74 d   1       0.744  -3.067 -29.495  0.00  0.00     0.118 H 
ENDROOT
BRANCH   1  12
ATOM     12  N18 I74 d   1       0.497  -9.755 -27.623  0.00  0.00    -0.374 N 
ATOM     13  H14 I74 d   1       1.139 -10.560 -27.631  0.00  0.00     0.161 HD
BRANCH  12  14
ATOM     14  C40 I74 d   1      -0.826  -9.941 -27.055  0.00  0.00    -0.000 C 
ATOM     15  H12 I74 d   1      -1.584  -9.403 -27.643  0.00  0.00     0.064 H 
ATOM     16  H13 I74 d   1      -1.087 -11.009 -27.011  0.00  0.00     0.064 H 
BRANCH  14  17
ATOM     17  C41 I74 d   1      -0.707  -9.354 -25.658  0.00  0.00    -0.011 C 
ATOM     18  C42 I74 d   1      -0.839 -10.383 -24.550  0.00  0.00     0.063 C 
ATOM     19  C43 I74 d   1      -0.680  -9.769 -23.159  0.00  0.00     0.105 C 
ATOM     20  H2  I74 d   1      -1.795 -10.924 -24.618  0.00  0.00     0.086 H 
ATOM     21  N44 I74 d   1      -1.567  -8.601 -23.070  0.00  0.00    -0.073 N 
ATOM     22  H3  I74 d   1       0.364  -9.457 -23.007  0.00  0.00     0.079 H 
ATOM     23  H4  I74 d   1      -0.958 -10.507 -22.392  0.00  0.00     0.079 H 
ATOM     24  C45 I74 d   1      -1.499  -7.560 -24.073  0.00  0.00     0.082 C 
ATOM     25  H5  I74 d   1      -1.381  -8.162 -22.182  0.00  0.00     0.277 HD
ATOM     26  H6  I74 d   1      -2.512  -8.952 -23.079  0.00  0.00     0.277 HD
ATOM     27  C46 I74 d   1      -1.527  -8.047 -25.527  0.00  0.00    -0.035 C 
ATOM     28  H7  I74 d   1      -0.564  -7.001 -23.920  0.00  0.00     0.075 H 
ATOM     29  H8  I74 d   1      -2.357  -6.888 -23.923  0.00  0.00     0.075 H 
ATOM     30  H9  I74 d   1      -1.091  -7.276 -26.179  0.00  0.00     0.036 H 
ATOM     31  H10 I74 d   1      -2.568  -8.237 -25.829  0.00  0.00     0.036 H 
ATOM     32  H11 I74 d   1       0.339  -9.022 -25.580  0.00  0.00     0.046 H 
BRANCH  18  33
ATOM     33  O1  I74 d   1       0.268 -11.224 -24.790  0.00  0.00    -0.393 OA
ATOM     34  H1  I74 d   1       0.186 -11.615 -25.652  0.00  0.00     0.210 HD
ENDBRANCH  18  33
ENDBRANCH  14  17
ENDBRANCH  12  14
ENDBRANCH   1  12
BRANCH   3  35
ATOM     35  N10 I74 d   1       3.774  -7.046 -29.914  0.00  0.00    -0.370 N 
ATOM     36  H24 I74 d   1       3.883  -6.312 -30.628  0.00  0.00     0.161 HD
BRANCH  35  37
ATOM     37  C11 I74 d   1       4.913  -7.898 -29.565  0.00  0.00     0.018 C 
ATOM     38  H25 I74 d   1       4.746  -8.371 -28.586  0.00  0.00     0.071 H 
ATOM     39  H26 I74 d   1       5.836  -7.300 -29.531  0.00  0.00     0.071 H 
BRANCH  37  40
ATOM     40  C12 I74 d   1       5.017  -8.948 -30.635  0.00  0.00    -0.041 A 
ATOM     41  C17 I74 d   1       4.942 -10.285 -30.271  0.00  0.00    -0.075 A 
ATOM     42  C16 I74 d   1       5.026 -11.241 -31.269  0.00  0.00    -0.082 A 
ATOM     43  H27 I74 d   1       4.821 -10.573 -29.233  0.00  0.00     0.084 H 
ATOM     44  C15 I74 d   1       5.190 -10.878 -32.625  0.00  0.00    -0.083 A 
ATOM     45  H28 I74 d   1       4.965 -12.290 -31.005  0.00  0.00     0.083 H 
ATOM     46  C14 I74 d   1       5.250  -9.526 -32.996  0.00  0.00    -0.082 A 
ATOM     47  H29 I74 d   1       5.270 -11.649 -33.383  0.00  0.00     0.083 H 
ATOM     48  C13 I74 d   1       5.177  -8.572 -31.982  0.00  0.00    -0.075 A 
ATOM     49  H30 I74 d   1       5.350  -9.233 -34.035  0.00  0.00     0.083 H 
ATOM     50  H31 I74 d   1       5.245  -7.520 -32.236  0.00  0.00     0.084 H 
ENDBRANCH  37  40
ENDBRANCH  35  37
ENDBRANCH   3  35
BRANCH   7  51
ATOM     51  C26 I74 d   1      -1.337  -4.536 -28.164  0.00  0.00    -0.030 C 
ATOM     52  H17 I74 d   1      -1.538  -3.552 -28.612  0.00  0.00     0.046 H 
BRANCH  51  53
ATOM     53  C28 I74 d   1      -2.537  -5.456 -28.444  0.00  0.00    -0.069 C 
ATOM     54  H18 I74 d   1      -3.447  -5.013 -28.013  0.00  0.00     0.028 H 
ATOM     55  H19 I74 d   1      -2.358  -6.441 -27.989  0.00  0.00     0.028 H 
ATOM     56  H20 I74 d   1      -2.665  -5.572 -29.530  0.00  0.00     0.028 H 
ENDBRANCH  51  53
BRANCH  51  57
ATOM     57  C27 I74 d   1      -1.294  -4.406 -26.617  0.00  0.00    -0.069 C 
ATOM     58  H21 I74 d   1      -0.455  -3.757 -26.327  0.00  0.00     0.028 H 
ATOM     59  H22 I74 d   1      -1.159  -5.402 -26.169  0.00  0.00     0.028 H 
ATOM     60  H23 I74 d   1      -2.237  -3.968 -26.259  0.00  0.00     0.028 H 
ENDBRANCH  51  57
ENDBRANCH   7  51
TORSDOF 10
