REMARK  19 active torsions:
REMARK  status: ('A' for Active; 'I' for Inactive)
REMARK    1  A    between atoms: C2_1  and  C3_2 
REMARK    2  A    between atoms: N1_12  and  C2_1 
REMARK    3  A    between atoms: C2_1  and  C29_16 
REMARK       I    between atoms: C3_2  and  N4_13 
REMARK    4  A    between atoms: C7_3  and  C8_4 
REMARK    5  A    between atoms: C7_3  and  C12_5 
REMARK    6  A    between atoms: C7_3  and  C16_6 
REMARK    7  A    between atoms: C6_15  and  C7_3 
REMARK    8  A    between atoms: C6_15  and  C20_7 
REMARK    9  A    between atoms: C30_9  and  C31_10 
REMARK   10  A    between atoms: C30_9  and  C35_11 
REMARK   11  A    between atoms: C29_16  and  C30_9 
REMARK   12  A    between atoms: P44_17  and  N1_12 
REMARK   13  A    between atoms: N4_13  and  C5_14 
REMARK   14  A    between atoms: C5_14  and  C6_15 
REMARK   15  A    between atoms: C46_19  and  P44_17 
REMARK   16  A    between atoms: N47_28  and  C46_19 
REMARK   17  A    between atoms: C50_20  and  C51_21 
REMARK   18  A    between atoms: O49_30  and  C50_20 
REMARK       I    between atoms: C48_29  and  N47_28 
REMARK   19  A    between atoms: C48_29  and  O49_30 
ROOT
ATOM      1  C2  6MG d   1      10.096  38.416  -3.565  0.00  0.00     0.091 C 
ATOM      2  H1  6MG d   1       9.807  37.392  -3.846  0.00  0.00     0.087 H 
ENDROOT
BRANCH   1   3
ATOM      3  C3  6MG d   1       8.927  39.341  -3.868  0.00  0.00     0.240 C 
ATOM      4  O28 6MG d   1       7.764  38.938  -3.892  0.00  0.00    -0.271 OA
ATOM      5  N4  6MG d   1       9.268  40.657  -4.065  0.00  0.00    -0.359 N 
ATOM      6  H22 6MG d   1      10.228  40.925  -3.986  0.00  0.00     0.162 HD
BRANCH   5   7
ATOM      7  C5  6MG d   1       8.272  41.678  -4.386  0.00  0.00    -0.001 C 
ATOM      8  H23 6MG d   1       7.468  41.202  -4.966  0.00  0.00     0.064 H 
ATOM      9  H24 6MG d   1       8.758  42.451  -4.999  0.00  0.00     0.064 H 
BRANCH   7  10
ATOM     10  C6  6MG d   1       7.642  42.361  -3.167  0.00  0.00    -0.036 C 
ATOM     11  H25 6MG d   1       6.996  41.623  -2.669  0.00  0.00     0.043 H 
BRANCH  10  12
ATOM     12  C7  6MG d   1       6.724  43.557  -3.636  0.00  0.00    -0.047 C 
BRANCH  12  13
ATOM     13  C8  6MG d   1       7.541  44.723  -4.159  0.00  0.00    -0.069 C 
ATOM     14  H2  6MG d   1       6.865  45.532  -4.474  0.00  0.00     0.028 H 
ATOM     15  H3  6MG d   1       8.143  44.393  -5.018  0.00  0.00     0.028 H 
ATOM     16  H4  6MG d   1       8.207  45.090  -3.364  0.00  0.00     0.028 H 
ENDBRANCH  12  13
BRANCH  12  17
ATOM     17  C12 6MG d   1       5.937  44.115  -2.473  0.00  0.00    -0.069 C 
ATOM     18  H5  6MG d   1       5.314  43.320  -2.037  0.00  0.00     0.028 H 
ATOM     19  H6  6MG d   1       5.293  44.934  -2.825  0.00  0.00     0.028 H 
ATOM     20  H7  6MG d   1       6.631  44.497  -1.710  0.00  0.00     0.028 H 
ENDBRANCH  12  17
BRANCH  12  21
ATOM     21  C16 6MG d   1       5.753  43.081  -4.789  0.00  0.00    -0.069 C 
ATOM     22  H8  6MG d   1       6.345  42.679  -5.624  0.00  0.00     0.028 H 
ATOM     23  H9  6MG d   1       5.155  43.935  -5.141  0.00  0.00     0.028 H 
ATOM     24  H10 6MG d   1       5.083  42.298  -4.404  0.00  0.00     0.028 H 
ENDBRANCH  12  21
ENDBRANCH  10  12
BRANCH  10  25
ATOM     25  C20 6MG d   1       8.672  42.789  -2.170  0.00  0.00    -0.071 C 
ATOM     26  H11 6MG d   1       9.282  41.922  -1.878  0.00  0.00     0.028 H 
ATOM     27  H12 6MG d   1       8.173  43.202  -1.281  0.00  0.00     0.028 H 
ATOM     28  H13 6MG d   1       9.319  43.558  -2.618  0.00  0.00     0.028 H 
ENDBRANCH  10  25
ENDBRANCH   7  10
ENDBRANCH   5   7
ENDBRANCH   1   3
BRANCH   1  29
ATOM     29  N1  6MG d   1      11.302  38.779  -4.303  0.00  0.00    -0.334 N 
ATOM     30  H21 6MG d   1      12.043  39.228  -3.804  0.00  0.00     0.164 HD
BRANCH  29  31
ATOM     31  P44 6MG d   1      11.514  38.490  -5.917  0.00  0.00     0.224 P 
ATOM     32  O45 6MG d   1      10.168  38.072  -6.505  0.00  0.00    -0.651 OA
ATOM     33  O68 6MG d   1      12.593  37.493  -6.182  0.00  0.00    -0.651 OA
BRANCH  31  34
ATOM     34  C46 6MG d   1      11.982  40.115  -6.585  0.00  0.00     0.086 C 
ATOM     35  H28 6MG d   1      12.978  40.396  -6.213  0.00  0.00     0.083 H 
ATOM     36  H29 6MG d   1      11.247  40.871  -6.272  0.00  0.00     0.083 H 
BRANCH  34  37
ATOM     37  N47 6MG d   1      12.007  40.028  -8.029  0.00  0.00    -0.325 N 
ATOM     38  C48 6MG d   1      12.975  40.779  -8.747  0.00  0.00     0.361 C 
ATOM     39  O64 6MG d   1      13.710  41.630  -8.203  0.00  0.00    -0.238 OA
ATOM     40  H37 6MG d   1      11.353  39.448  -8.514  0.00  0.00     0.165 HD
BRANCH  38  41
ATOM     41  O49 6MG d   1      12.843  40.641 -10.158  0.00  0.00    -0.299 OA
BRANCH  41  42
ATOM     42  C50 6MG d   1      13.648  41.614 -10.834  0.00  0.00     0.054 C 
ATOM     43  H30 6MG d   1      13.051  41.996 -11.675  0.00  0.00     0.082 H 
ATOM     44  H31 6MG d   1      13.836  42.428 -10.119  0.00  0.00     0.082 H 
BRANCH  42  45
ATOM     45  C51 6MG d   1      15.005  41.197 -11.402  0.00  0.00    -0.034 A 
ATOM     46  C52 6MG d   1      15.106  40.687 -12.694  0.00  0.00    -0.075 A 
ATOM     47  C54 6MG d   1      16.359  40.336 -13.211  0.00  0.00    -0.082 A 
ATOM     48  H32 6MG d   1      14.215  40.562 -13.299  0.00  0.00     0.084 H 
ATOM     49  C56 6MG d   1      17.524  40.458 -12.444  0.00  0.00    -0.083 A 
ATOM     50  H33 6MG d   1      16.428  39.962 -14.226  0.00  0.00     0.083 H 
ATOM     51  C58 6MG d   1      17.424  41.002 -11.157  0.00  0.00    -0.082 A 
ATOM     52  H34 6MG d   1      18.482  40.139 -12.837  0.00  0.00     0.083 H 
ATOM     53  C60 6MG d   1      16.184  41.364 -10.641  0.00  0.00    -0.075 A 
ATOM     54  H35 6MG d   1      18.318  41.142 -10.560  0.00  0.00     0.083 H 
ATOM     55  H36 6MG d   1      16.121  41.780  -9.642  0.00  0.00     0.084 H 
ENDBRANCH  42  45
ENDBRANCH  41  42
ENDBRANCH  38  41
ENDBRANCH  34  37
ENDBRANCH  31  34
ENDBRANCH  29  31
ENDBRANCH   1  29
BRANCH   1  56
ATOM     56  C29 6MG d   1      10.417  38.453  -2.077  0.00  0.00    -0.035 C 
ATOM     57  H26 6MG d   1      10.621  39.496  -1.792  0.00  0.00     0.037 H 
ATOM     58  H27 6MG d   1      11.315  37.842  -1.900  0.00  0.00     0.037 H 
BRANCH  56  59
ATOM     59  C30 6MG d   1       9.280  37.917  -1.184  0.00  0.00    -0.059 C 
ATOM     60  H14 6MG d   1       8.339  38.378  -1.518  0.00  0.00     0.038 H 
BRANCH  59  61
ATOM     61  C31 6MG d   1       9.129  36.399  -1.303  0.00  0.00    -0.073 C 
ATOM     62  H15 6MG d   1       8.310  36.060  -0.652  0.00  0.00     0.028 H 
ATOM     63  H16 6MG d   1      10.066  35.912  -0.997  0.00  0.00     0.028 H 
ATOM     64  H17 6MG d   1       8.902  36.134  -2.346  0.00  0.00     0.028 H 
ENDBRANCH  59  61
BRANCH  59  65
ATOM     65  C35 6MG d   1       9.523  38.322   0.281  0.00  0.00    -0.073 C 
ATOM     66  H18 6MG d   1       9.629  39.415   0.346  0.00  0.00     0.028 H 
ATOM     67  H19 6MG d   1      10.443  37.842   0.646  0.00  0.00     0.028 H 
ATOM     68  H20 6MG d   1       8.671  37.999   0.897  0.00  0.00     0.028 H 
ENDBRANCH  59  65
ENDBRANCH  56  59
ENDBRANCH   1  56
TORSDOF 19
