REMARK  10 active torsions:
REMARK  status: ('A' for Active; 'I' for Inactive)
REMARK       I    between atoms: N03_9  and  C02_8 
REMARK    1  A    between atoms: C02_8  and  C16_16 
REMARK    2  A    between atoms: C07_13  and  C06_12 
REMARK    3  A    between atoms: C08_14  and  C07_13 
REMARK    4  A    between atoms: C08_14  and  N09_15 
REMARK    5  A    between atoms: C17_17  and  N18_18 
REMARK    6  A    between atoms: N18_18  and  C19_19 
REMARK    7  A    between atoms: C26_26  and  C27_27 
REMARK       I    between atoms: C27_27  and  N28_28 
REMARK    8  A    between atoms: C31_31  and  C32_32 
REMARK    9  A    between atoms: C32_32  and  C33_33 
REMARK   10  A    between atoms: C33_33  and  N34_34 
ROOT
ATOM      1  C16 6P9 d   1      10.168  41.625  20.269  0.00  0.00     0.058 A 
ATOM      2  C17 6P9 d   1       9.417  41.192  21.416  0.00  0.00     0.049 A 
ATOM      3  C25 6P9 d   1       9.993  40.173  22.249  0.00  0.00    -0.041 A 
ATOM      4  C26 6P9 d   1      11.263  39.558  22.044  0.00  0.00     0.034 A 
ATOM      5  C42 6P9 d   1      11.915  40.028  20.918  0.00  0.00    -0.067 A 
ATOM      6  C43 6P9 d   1      11.410  41.003  20.075  0.00  0.00    -0.065 A 
ATOM      7  H29 6P9 d   1       9.414  39.844  23.105  0.00  0.00     0.088 H 
ATOM      8  H52 6P9 d   1      12.884  39.605  20.680  0.00  0.00     0.085 H 
ATOM      9  H53 6P9 d   1      12.006  41.301  19.220  0.00  0.00     0.085 H 
ENDROOT
BRANCH   1  10
ATOM     10  C02 6P9 d   1       9.717  42.693  19.271  0.00  0.00     0.256 C 
ATOM     11  O01 6P9 d   1       8.848  42.455  18.484  0.00  0.00    -0.267 OA
ATOM     12  N03 6P9 d   1      10.351  43.968  19.270  0.00  0.00    -0.348 N 
ATOM     13  C15 6P9 d   1      11.403  44.378  20.160  0.00  0.00    -0.002 C 
ATOM     14  C04 6P9 d   1       9.991  45.051  18.347  0.00  0.00    -0.002 C 
ATOM     15  C14 6P9 d   1      12.572  45.146  19.509  0.00  0.00    -0.047 C 
ATOM     16  H1  6P9 d   1      10.960  45.027  20.930  0.00  0.00     0.064 H 
ATOM     17  H2  6P9 d   1      11.815  43.475  20.634  0.00  0.00     0.064 H 
ATOM     18  C06 6P9 d   1      12.541  45.233  17.964  0.00  0.00    -0.050 C 
ATOM     19  H11 6P9 d   1      13.508  44.647  19.800  0.00  0.00     0.035 H 
ATOM     20  H12 6P9 d   1      12.565  46.172  19.905  0.00  0.00     0.035 H 
ATOM     21  C05 6P9 d   1      11.128  45.322  17.361  0.00  0.00    -0.047 C 
ATOM     22  H17 6P9 d   1      12.990  44.307  17.575  0.00  0.00     0.040 H 
ATOM     23  H15 6P9 d   1      10.993  46.335  16.953  0.00  0.00     0.035 H 
ATOM     24  H16 6P9 d   1      11.057  44.586  16.546  0.00  0.00     0.035 H 
ATOM     25  H13 6P9 d   1       9.789  45.965  18.924  0.00  0.00     0.064 H 
ATOM     26  H14 6P9 d   1       9.089  44.763  17.787  0.00  0.00     0.064 H 
BRANCH  18  27
ATOM     27  C07 6P9 d   1      13.427  46.395  17.532  0.00  0.00    -0.039 C 
ATOM     28  H18 6P9 d   1      14.438  46.014  17.327  0.00  0.00     0.035 H 
ATOM     29  H19 6P9 d   1      13.471  47.131  18.348  0.00  0.00     0.035 H 
BRANCH  27  30
ATOM     30  C08 6P9 d   1      12.891  47.087  16.267  0.00  0.00     0.084 C 
ATOM     31  H20 6P9 d   1      12.108  46.472  15.800  0.00  0.00     0.076 H 
ATOM     32  H21 6P9 d   1      13.707  47.250  15.548  0.00  0.00     0.076 H 
BRANCH  30  33
ATOM     33  N09 6P9 d   1      12.318  48.411  16.715  0.00  0.00    -0.071 N 
ATOM     34  C10 6P9 d   1      13.394  48.969  17.590  0.00  0.00     0.084 C 
ATOM     35  C11 6P9 d   1      13.537  50.445  17.200  0.00  0.00    -0.041 C 
ATOM     36  H7  6P9 d   1      13.110  48.880  18.649  0.00  0.00     0.076 H 
ATOM     37  H8  6P9 d   1      14.341  48.435  17.418  0.00  0.00     0.076 H 
ATOM     38  C12 6P9 d   1      13.038  50.557  15.760  0.00  0.00    -0.041 C 
ATOM     39  H5  6P9 d   1      12.928  51.075  17.864  0.00  0.00     0.035 H 
ATOM     40  H6  6P9 d   1      14.590  50.756  17.264  0.00  0.00     0.035 H 
ATOM     41  C13 6P9 d   1      12.250  49.285  15.480  0.00  0.00     0.084 C 
ATOM     42  H3  6P9 d   1      13.889  50.638  15.067  0.00  0.00     0.035 H 
ATOM     43  H4  6P9 d   1      12.390  51.439  15.649  0.00  0.00     0.035 H 
ATOM     44  H9  6P9 d   1      12.690  48.755  14.623  0.00  0.00     0.076 H 
ATOM     45  H10 6P9 d   1      11.202  49.536  15.258  0.00  0.00     0.076 H 
ATOM     46  H22 6P9 d   1      11.428  48.327  17.181  0.00  0.00     0.279 HD
ENDBRANCH  30  33
ENDBRANCH  27  30
ENDBRANCH  18  27
ENDBRANCH   1  10
BRANCH   2  47
ATOM     47  N18 6P9 d   1       8.129  41.777  21.691  0.00  0.00    -0.355 N 
ATOM     48  H23 6P9 d   1       7.798  42.429  20.966  0.00  0.00     0.166 HD
BRANCH  47  49
ATOM     49  C19 6P9 d   1       7.208  41.612  22.813  0.00  0.00     0.032 A 
ATOM     50  C20 6P9 d   1       5.809  41.556  22.625  0.00  0.00    -0.057 A 
ATOM     51  C21 6P9 d   1       4.918  41.403  23.694  0.00  0.00    -0.081 A 
ATOM     52  H24 6P9 d   1       5.412  41.634  21.619  0.00  0.00     0.086 H 
ATOM     53  C22 6P9 d   1       5.369  41.298  25.003  0.00  0.00    -0.083 A 
ATOM     54  H25 6P9 d   1       3.853  41.366  23.495  0.00  0.00     0.083 H 
ATOM     55  C23 6P9 d   1       6.739  41.351  25.221  0.00  0.00    -0.081 A 
ATOM     56  H26 6P9 d   1       4.675  41.179  25.827  0.00  0.00     0.083 H 
ATOM     57  C24 6P9 d   1       7.637  41.508  24.163  0.00  0.00    -0.057 A 
ATOM     58  H27 6P9 d   1       7.119  41.269  26.233  0.00  0.00     0.083 H 
ATOM     59  H28 6P9 d   1       8.698  41.552  24.380  0.00  0.00     0.086 H 
ENDBRANCH  47  49
ENDBRANCH   2  47
BRANCH   4  60
ATOM     60  C27 6P9 d   1      11.870  38.447  22.947  0.00  0.00     0.253 C 
ATOM     61  N28 6P9 d   1      11.684  37.050  22.707  0.00  0.00    -0.348 N 
ATOM     62  C29 6P9 d   1      12.263  35.925  23.545  0.00  0.00    -0.002 C 
ATOM     63  C40 6P9 d   1      10.899  36.481  21.614  0.00  0.00    -0.002 C 
ATOM     64  C30 6P9 d   1      12.998  34.860  22.675  0.00  0.00    -0.047 C 
ATOM     65  H30 6P9 d   1      11.445  35.433  24.091  0.00  0.00     0.064 H 
ATOM     66  H31 6P9 d   1      12.979  36.351  24.263  0.00  0.00     0.064 H 
ATOM     67  C31 6P9 d   1      12.126  34.308  21.562  0.00  0.00    -0.050 C 
ATOM     68  H32 6P9 d   1      13.308  34.028  23.325  0.00  0.00     0.035 H 
ATOM     69  H33 6P9 d   1      13.888  35.326  22.226  0.00  0.00     0.035 H 
ATOM     70  C39 6P9 d   1      11.647  35.484  20.730  0.00  0.00    -0.047 C 
ATOM     71  H34 6P9 d   1      11.254  33.810  22.011  0.00  0.00     0.040 H 
ATOM     72  H48 6P9 d   1      10.973  35.121  19.940  0.00  0.00     0.035 H 
ATOM     73  H49 6P9 d   1      12.514  35.983  20.272  0.00  0.00     0.035 H 
ATOM     74  H50 6P9 d   1      10.552  37.308  20.977  0.00  0.00     0.064 H 
ATOM     75  H51 6P9 d   1      10.031  35.965  22.050  0.00  0.00     0.064 H 
ATOM     76  O41 6P9 d   1      12.547  38.767  23.888  0.00  0.00    -0.267 OA
BRANCH  67  77
ATOM     77  C32 6P9 d   1      12.847  33.305  20.716  0.00  0.00    -0.039 C 
ATOM     78  H35 6P9 d   1      13.214  32.485  21.351  0.00  0.00     0.035 H 
ATOM     79  H36 6P9 d   1      13.698  33.790  20.216  0.00  0.00     0.035 H 
BRANCH  77  80
ATOM     80  C33 6P9 d   1      11.872  32.739  19.649  0.00  0.00     0.084 C 
ATOM     81  H37 6P9 d   1      11.393  33.563  19.101  0.00  0.00     0.076 H 
ATOM     82  H38 6P9 d   1      11.100  32.122  20.133  0.00  0.00     0.076 H 
BRANCH  80  83
ATOM     83  N34 6P9 d   1      12.664  31.922  18.732  0.00  0.00    -0.071 N 
ATOM     84  C35 6P9 d   1      13.067  30.788  19.601  0.00  0.00     0.084 C 
ATOM     85  C36 6P9 d   1      13.099  29.555  18.687  0.00  0.00    -0.041 C 
ATOM     86  H40 6P9 d   1      12.336  30.646  20.410  0.00  0.00     0.076 H 
ATOM     87  H41 6P9 d   1      14.062  30.971  20.033  0.00  0.00     0.076 H 
ATOM     88  C37 6P9 d   1      12.421  29.983  17.382  0.00  0.00    -0.041 C 
ATOM     89  H42 6P9 d   1      12.549  28.722  19.149  0.00  0.00     0.035 H 
ATOM     90  H43 6P9 d   1      14.138  29.247  18.496  0.00  0.00     0.035 H 
ATOM     91  C38 6P9 d   1      11.754  31.302  17.723  0.00  0.00     0.084 C 
ATOM     92  H44 6P9 d   1      11.675  29.238  17.068  0.00  0.00     0.035 H 
ATOM     93  H45 6P9 d   1      13.164  30.117  16.582  0.00  0.00     0.035 H 
ATOM     94  H46 6P9 d   1      11.670  31.939  16.830  0.00  0.00     0.076 H 
ATOM     95  H47 6P9 d   1      10.754  31.135  18.150  0.00  0.00     0.076 H 
ATOM     96  H39 6P9 d   1      13.433  32.421  18.314  0.00  0.00     0.279 HD
ENDBRANCH  80  83
ENDBRANCH  77  80
ENDBRANCH  67  77
ENDBRANCH   4  60
TORSDOF 10
