REMARK  13 active torsions:
REMARK  status: ('A' for Active; 'I' for Inactive)
REMARK    1  A    between atoms: C13_1  and  C16_22 
REMARK    2  A    between atoms: C16_22  and  C17_3 
REMARK    3  A    between atoms: C17_3  and  N18_23 
REMARK    4  A    between atoms: C28_8  and  O31_31 
REMARK    5  A    between atoms: C03_11  and  C02_10 
REMARK       I    between atoms: C02_10  and  N38_38 
REMARK    6  A    between atoms: N24_26  and  C04_12 
REMARK    7  A    between atoms: C06_14  and  C09_17 
REMARK       I    between atoms: C09_17  and  N10_18 
REMARK    8  A    between atoms: N24_26  and  C25_27 
REMARK    9  A    between atoms: O31_31  and  C32_32 
REMARK   10  A    between atoms: C32_32  and  N33_33 
REMARK   11  A    between atoms: C41_41  and  C44_44 
REMARK   12  A    between atoms: C44_44  and  C45_45 
REMARK   13  A    between atoms: C45_45  and  N46_46 
ROOT
ATOM      1  C03 6PD d   1      11.503   0.359  -0.151  0.00  0.00     0.058 A 
ATOM      2  C04 6PD d   1      11.935  -0.083   1.102  0.00  0.00     0.049 A 
ATOM      3  C05 6PD d   1      11.383  -1.318   1.615  0.00  0.00    -0.041 A 
ATOM      4  C06 6PD d   1      10.473  -2.118   0.972  0.00  0.00     0.034 A 
ATOM      5  C07 6PD d   1      10.074  -1.674  -0.288  0.00  0.00    -0.067 A 
ATOM      6  C08 6PD d   1      10.593  -0.472  -0.803  0.00  0.00    -0.065 A 
ATOM      7  H13 6PD d   1      11.718  -1.640   2.594  0.00  0.00     0.088 H 
ATOM      8  H14 6PD d   1       9.366  -2.253  -0.869  0.00  0.00     0.085 H 
ATOM      9  H15 6PD d   1      10.258  -0.167  -1.788  0.00  0.00     0.085 H 
ENDROOT
BRANCH   1  10
ATOM     10  C02 6PD d   1      11.968   1.598  -0.817  0.00  0.00     0.256 C 
ATOM     11  O01 6PD d   1      12.678   1.489  -1.815  0.00  0.00    -0.267 OA
ATOM     12  N38 6PD d   1      11.715   2.912  -0.395  0.00  0.00    -0.348 N 
ATOM     13  C39 6PD d   1      12.254   4.070  -1.107  0.00  0.00    -0.002 C 
ATOM     14  C43 6PD d   1      10.931   3.320   0.754  0.00  0.00    -0.002 C 
ATOM     15  C40 6PD d   1      13.248   4.823  -0.222  0.00  0.00    -0.047 C 
ATOM     16  H42 6PD d   1      11.429   4.744  -1.380  0.00  0.00     0.064 H 
ATOM     17  H43 6PD d   1      12.766   3.729  -2.019  0.00  0.00     0.064 H 
ATOM     18  C41 6PD d   1      12.794   5.045   1.233  0.00  0.00    -0.050 C 
ATOM     19  H44 6PD d   1      13.429   5.809  -0.676  0.00  0.00     0.035 H 
ATOM     20  H45 6PD d   1      14.187   4.250  -0.202  0.00  0.00     0.035 H 
ATOM     21  C42 6PD d   1      11.339   4.627   1.436  0.00  0.00    -0.047 C 
ATOM     22  H46 6PD d   1      13.438   4.438   1.887  0.00  0.00     0.040 H 
ATOM     23  H47 6PD d   1      10.697   5.429   1.043  0.00  0.00     0.035 H 
ATOM     24  H48 6PD d   1      11.166   4.514   2.516  0.00  0.00     0.035 H 
ATOM     25  H49 6PD d   1      10.997   2.518   1.504  0.00  0.00     0.064 H 
ATOM     26  H50 6PD d   1       9.887   3.428   0.424  0.00  0.00     0.064 H 
BRANCH  18  27
ATOM     27  C44 6PD d   1      12.895   6.473   1.645  0.00  0.00    -0.039 C 
ATOM     28  H51 6PD d   1      11.969   6.992   1.358  0.00  0.00     0.035 H 
ATOM     29  H52 6PD d   1      13.749   6.933   1.126  0.00  0.00     0.035 H 
BRANCH  27  30
ATOM     30  C45 6PD d   1      13.094   6.619   3.140  0.00  0.00     0.084 C 
ATOM     31  H53 6PD d   1      13.405   5.654   3.568  0.00  0.00     0.076 H 
ATOM     32  H54 6PD d   1      12.153   6.942   3.608  0.00  0.00     0.076 H 
BRANCH  30  33
ATOM     33  N46 6PD d   1      14.181   7.668   3.393  0.00  0.00    -0.071 N 
ATOM     34  C47 6PD d   1      14.659   8.446   2.225  0.00  0.00     0.084 C 
ATOM     35  C48 6PD d   1      15.564   9.539   2.836  0.00  0.00    -0.041 C 
ATOM     36  H56 6PD d   1      13.813   8.898   1.685  0.00  0.00     0.076 H 
ATOM     37  H57 6PD d   1      15.232   7.805   1.538  0.00  0.00     0.076 H 
ATOM     38  C49 6PD d   1      15.008   9.751   4.248  0.00  0.00    -0.041 C 
ATOM     39  H58 6PD d   1      15.502  10.468   2.250  0.00  0.00     0.035 H 
ATOM     40  H59 6PD d   1      16.610   9.200   2.877  0.00  0.00     0.035 H 
ATOM     41  C50 6PD d   1      13.904   8.678   4.442  0.00  0.00     0.084 C 
ATOM     42  H60 6PD d   1      14.580  10.760   4.342  0.00  0.00     0.035 H 
ATOM     43  H61 6PD d   1      15.804   9.619   4.995  0.00  0.00     0.035 H 
ATOM     44  H62 6PD d   1      13.971   8.227   5.443  0.00  0.00     0.076 H 
ATOM     45  H63 6PD d   1      12.905   9.118   4.304  0.00  0.00     0.076 H 
ATOM     46  H55 6PD d   1      14.970   7.130   3.717  0.00  0.00     0.279 HD
ENDBRANCH  30  33
ENDBRANCH  27  30
ENDBRANCH  18  27
ENDBRANCH   1  10
BRANCH   2  47
ATOM     47  N24 6PD d   1      12.825   0.637   1.905  0.00  0.00    -0.355 N 
ATOM     48  H27 6PD d   1      13.743   0.923   1.536  0.00  0.00     0.166 HD
BRANCH  47  49
ATOM     49  C25 6PD d   1      12.468   0.956   3.177  0.00  0.00     0.032 A 
ATOM     50  C26 6PD d   1      12.408   0.015   4.139  0.00  0.00    -0.055 A 
ATOM     51  C27 6PD d   1      11.953   0.231   5.387  0.00  0.00    -0.049 A 
ATOM     52  H12 6PD d   1      12.749  -0.984   3.891  0.00  0.00     0.087 H 
ATOM     53  C28 6PD d   1      11.559   1.412   5.710  0.00  0.00     0.071 A 
ATOM     54  H28 6PD d   1      11.919  -0.577   6.108  0.00  0.00     0.087 H 
ATOM     55  C29 6PD d   1      11.598   2.375   4.764  0.00  0.00    -0.049 A 
ATOM     56  C30 6PD d   1      12.024   2.124   3.510  0.00  0.00    -0.055 A 
ATOM     57  H29 6PD d   1      11.278   3.378   5.020  0.00  0.00     0.087 H 
ATOM     58  H30 6PD d   1      11.994   2.914   2.768  0.00  0.00     0.087 H 
BRANCH  53  59
ATOM     59  O31 6PD d   1      11.118   1.603   6.929  0.00  0.00    -0.324 OA
BRANCH  59  60
ATOM     60  C32 6PD d   1       9.636   1.342   6.871  0.00  0.00     0.171 C 
ATOM     61  H31 6PD d   1       9.315   0.883   7.818  0.00  0.00     0.119 H 
ATOM     62  H32 6PD d   1       9.425   0.653   6.040  0.00  0.00     0.119 H 
BRANCH  60  63
ATOM     63  N33 6PD d   1       8.815   2.705   6.644  0.00  0.00    -0.050 N 
ATOM     64  C34 6PD d   1       8.732   3.237   5.230  0.00  0.00     0.086 C 
ATOM     65  C35 6PD d   1       7.688   4.380   5.252  0.00  0.00    -0.041 C 
ATOM     66  H34 6PD d   1       8.410   2.441   4.543  0.00  0.00     0.076 H 
ATOM     67  H35 6PD d   1       9.711   3.623   4.911  0.00  0.00     0.076 H 
ATOM     68  C36 6PD d   1       6.688   3.901   6.308  0.00  0.00    -0.041 C 
ATOM     69  H36 6PD d   1       7.204   4.495   4.271  0.00  0.00     0.035 H 
ATOM     70  H37 6PD d   1       8.150   5.334   5.547  0.00  0.00     0.035 H 
ATOM     71  C37 6PD d   1       7.363   2.672   7.015  0.00  0.00     0.086 C 
ATOM     72  H38 6PD d   1       5.744   3.597   5.831  0.00  0.00     0.035 H 
ATOM     73  H39 6PD d   1       6.490   4.700   7.037  0.00  0.00     0.035 H 
ATOM     74  H40 6PD d   1       7.249   2.753   8.106  0.00  0.00     0.076 H 
ATOM     75  H41 6PD d   1       6.904   1.735   6.666  0.00  0.00     0.076 H 
ATOM     76  H33 6PD d   1       9.277   3.395   7.216  0.00  0.00     0.282 HD
ENDBRANCH  60  63
ENDBRANCH  59  60
ENDBRANCH  53  59
ENDBRANCH  47  49
ENDBRANCH   2  47
BRANCH   4  77
ATOM     77  C09 6PD d   1      10.045  -3.396   1.670  0.00  0.00     0.253 C 
ATOM     78  N10 6PD d   1      10.878  -4.482   1.853  0.00  0.00    -0.348 N 
ATOM     79  C15 6PD d   1      12.250  -4.612   1.384  0.00  0.00    -0.002 C 
ATOM     80  C11 6PD d   1      10.406  -5.661   2.596  0.00  0.00    -0.002 C 
ATOM     81  C14 6PD d   1      13.245  -5.045   2.449  0.00  0.00    -0.047 C 
ATOM     82  H2  6PD d   1      12.572  -3.637   0.990  0.00  0.00     0.064 H 
ATOM     83  H3  6PD d   1      12.267  -5.358   0.575  0.00  0.00     0.064 H 
ATOM     84  C13 6PD d   1      12.791  -6.216   3.275  0.00  0.00    -0.050 C 
ATOM     85  H20 6PD d   1      14.187  -5.318   1.951  0.00  0.00     0.035 H 
ATOM     86  H21 6PD d   1      13.421  -4.194   3.124  0.00  0.00     0.035 H 
ATOM     87  C12 6PD d   1      11.361  -5.948   3.782  0.00  0.00    -0.047 C 
ATOM     88  H1  6PD d   1      12.745  -7.095   2.615  0.00  0.00     0.040 H 
ATOM     89  H18 6PD d   1      11.373  -5.078   4.455  0.00  0.00     0.035 H 
ATOM     90  H19 6PD d   1      11.001  -6.831   4.331  0.00  0.00     0.035 H 
ATOM     91  H16 6PD d   1      10.385  -6.532   1.925  0.00  0.00     0.064 H 
ATOM     92  H17 6PD d   1       9.393  -5.470   2.980  0.00  0.00     0.064 H 
ATOM     93  O23 6PD d   1       8.933  -3.498   2.176  0.00  0.00    -0.267 OA
BRANCH  84  94
ATOM     94  C16 6PD d   1      13.803  -6.551   4.394  0.00  0.00    -0.039 C 
ATOM     95  H22 6PD d   1      14.049  -5.638   4.955  0.00  0.00     0.035 H 
ATOM     96  H23 6PD d   1      14.720  -6.967   3.951  0.00  0.00     0.035 H 
BRANCH  94  97
ATOM     97  C17 6PD d   1      13.181  -7.571   5.328  0.00  0.00     0.084 C 
ATOM     98  H4  6PD d   1      12.190  -7.223   5.653  0.00  0.00     0.076 H 
ATOM     99  H5  6PD d   1      13.826  -7.714   6.207  0.00  0.00     0.076 H 
BRANCH  97 100
ATOM    100  N18 6PD d   1      13.044  -8.885   4.569  0.00  0.00    -0.071 N 
ATOM    101  C22 6PD d   1      12.758  -9.985   5.514  0.00  0.00     0.084 C 
ATOM    102  C21 6PD d   1      13.822 -11.082   5.362  0.00  0.00    -0.041 C 
ATOM    103  H10 6PD d   1      12.776  -9.598   6.543  0.00  0.00     0.076 H 
ATOM    104  H11 6PD d   1      11.765 -10.405   5.297  0.00  0.00     0.076 H 
ATOM    105  C20 6PD d   1      14.593 -10.738   4.117  0.00  0.00    -0.041 C 
ATOM    106  H8  6PD d   1      14.490 -11.091   6.236  0.00  0.00     0.035 H 
ATOM    107  H9  6PD d   1      13.344 -12.067   5.256  0.00  0.00     0.035 H 
ATOM    108  C19 6PD d   1      14.283  -9.281   3.818  0.00  0.00     0.084 C 
ATOM    109  H6  6PD d   1      14.272 -11.376   3.280  0.00  0.00     0.035 H 
ATOM    110  H7  6PD d   1      15.672 -10.872   4.287  0.00  0.00     0.035 H 
ATOM    111  H25 6PD d   1      14.117  -9.152   2.738  0.00  0.00     0.076 H 
ATOM    112  H26 6PD d   1      15.126  -8.651   4.137  0.00  0.00     0.076 H 
ATOM    113  H24 6PD d   1      12.282  -8.793   3.915  0.00  0.00     0.279 HD
ENDBRANCH  97 100
ENDBRANCH  94  97
ENDBRANCH  84  94
ENDBRANCH   4  77
TORSDOF 13
