REMARK  19 active torsions:
REMARK  status: ('A' for Active; 'I' for Inactive)
REMARK    1  A    between atoms: C7_4  and  C6_24 
REMARK    2  A    between atoms: O8_30  and  C7_4 
REMARK       I    between atoms: N11_29  and  C9_5 
REMARK    3  A    between atoms: C9_5  and  O8_30 
REMARK    4  A    between atoms: P13_23  and  C12_6 
REMARK    5  A    between atoms: C12_6  and  N11_29 
REMARK    6  A    between atoms: C19_7  and  C20_8 
REMARK    7  A    between atoms: C19_7  and  C21_9 
REMARK    8  A    between atoms: C18_22  and  C19_7 
REMARK    9  A    between atoms: C22_10  and  C17_13 
REMARK       I    between atoms: N24_14  and  C22_10 
REMARK   10  A    between atoms: C26_16  and  C27_11 
REMARK   11  A    between atoms: C17_13  and  N16_12 
REMARK   12  A    between atoms: N16_12  and  P13_23 
REMARK   13  A    between atoms: C17_13  and  C18_22 
REMARK   14  A    between atoms: C25_15  and  N24_14 
REMARK   15  A    between atoms: C25_15  and  C26_16 
REMARK   16  A    between atoms: C26_16  and  C28_17 
REMARK   17  A    between atoms: C28_17  and  C29_18 
REMARK   18  A    between atoms: C28_17  and  C30_19 
REMARK   19  A    between atoms: C28_17  and  C31_20 
ROOT
ATOM      1  C17 6NG d   1      10.102  38.394  -3.570  0.00  0.00     0.091 C 
ATOM      2  H19 6NG d   1       9.888  37.359  -3.876  0.00  0.00     0.087 H 
ENDROOT
BRANCH   1   3
ATOM      3  C22 6NG d   1       8.887  39.257  -3.855  0.00  0.00     0.240 C 
ATOM      4  N24 6NG d   1       9.103  40.558  -4.040  0.00  0.00    -0.359 N 
ATOM      5  H20 6NG d   1      10.039  40.910  -4.019  0.00  0.00     0.162 HD
ATOM      6  O23 6NG d   1       7.764  38.749  -3.857  0.00  0.00    -0.271 OA
BRANCH   4   7
ATOM      7  C25 6NG d   1       7.997  41.477  -4.273  0.00  0.00    -0.001 C 
ATOM      8  H21 6NG d   1       7.072  41.029  -3.881  0.00  0.00     0.064 H 
ATOM      9  H22 6NG d   1       7.893  41.644  -5.355  0.00  0.00     0.064 H 
BRANCH   7  10
ATOM     10  C26 6NG d   1       8.229  42.825  -3.582  0.00  0.00    -0.036 C 
ATOM     11  H23 6NG d   1       9.164  43.236  -3.992  0.00  0.00     0.043 H 
BRANCH  10  12
ATOM     12  C27 6NG d   1       8.446  42.689  -2.063  0.00  0.00    -0.071 C 
ATOM     13  H15 6NG d   1       9.254  41.968  -1.871  0.00  0.00     0.028 H 
ATOM     14  H16 6NG d   1       7.518  42.334  -1.590  0.00  0.00     0.028 H 
ATOM     15  H17 6NG d   1       8.720  43.668  -1.643  0.00  0.00     0.028 H 
ENDBRANCH  10  12
BRANCH  10  16
ATOM     16  C28 6NG d   1       7.088  43.839  -3.954  0.00  0.00    -0.047 C 
BRANCH  16  17
ATOM     17  C29 6NG d   1       5.729  43.407  -3.344  0.00  0.00    -0.069 C 
ATOM     18  H24 6NG d   1       4.954  44.136  -3.623  0.00  0.00     0.028 H 
ATOM     19  H25 6NG d   1       5.816  43.365  -2.248  0.00  0.00     0.028 H 
ATOM     20  H26 6NG d   1       5.454  42.414  -3.729  0.00  0.00     0.028 H 
ENDBRANCH  16  17
BRANCH  16  21
ATOM     21  C30 6NG d   1       6.841  43.892  -5.495  0.00  0.00    -0.069 C 
ATOM     22  H27 6NG d   1       7.768  44.194  -6.005  0.00  0.00     0.028 H 
ATOM     23  H28 6NG d   1       6.048  44.621  -5.714  0.00  0.00     0.028 H 
ATOM     24  H29 6NG d   1       6.534  42.898  -5.852  0.00  0.00     0.028 H 
ENDBRANCH  16  21
BRANCH  16  25
ATOM     25  C31 6NG d   1       7.433  45.259  -3.460  0.00  0.00    -0.069 C 
ATOM     26  H30 6NG d   1       7.610  45.237  -2.374  0.00  0.00     0.028 H 
ATOM     27  H31 6NG d   1       6.596  45.938  -3.681  0.00  0.00     0.028 H 
ATOM     28  H32 6NG d   1       8.339  45.615  -3.972  0.00  0.00     0.028 H 
ENDBRANCH  16  25
ENDBRANCH  10  16
ENDBRANCH   7  10
ENDBRANCH   4   7
ENDBRANCH   1   3
BRANCH   1  29
ATOM     29  N16 6NG d   1      11.300  38.869  -4.239  0.00  0.00    -0.334 N 
ATOM     30  H18 6NG d   1      11.984  39.405  -3.745  0.00  0.00     0.164 HD
BRANCH  29  31
ATOM     31  P13 6NG d   1      11.517  38.481  -5.929  0.00  0.00     0.224 P 
ATOM     32  O14 6NG d   1      10.179  38.058  -6.494  0.00  0.00    -0.651 OA
ATOM     33  O15 6NG d   1      12.592  37.468  -6.150  0.00  0.00    -0.651 OA
BRANCH  31  34
ATOM     34  C12 6NG d   1      11.987  40.084  -6.639  0.00  0.00     0.086 C 
ATOM     35  H6  6NG d   1      12.598  40.631  -5.906  0.00  0.00     0.083 H 
ATOM     36  H7  6NG d   1      11.073  40.657  -6.855  0.00  0.00     0.083 H 
BRANCH  34  37
ATOM     37  N11 6NG d   1      12.742  39.939  -7.855  0.00  0.00    -0.325 N 
ATOM     38  C9  6NG d   1      12.670  40.859  -8.795  0.00  0.00     0.361 C 
ATOM     39  O10 6NG d   1      12.020  41.890  -8.740  0.00  0.00    -0.238 OA
ATOM     40  H37 6NG d   1      13.324  39.136  -7.987  0.00  0.00     0.165 HD
BRANCH  38  41
ATOM     41  O8  6NG d   1      13.536  40.555  -9.769  0.00  0.00    -0.299 OA
BRANCH  41  42
ATOM     42  C7  6NG d   1      13.708  41.558 -10.833  0.00  0.00     0.054 C 
ATOM     43  H4  6NG d   1      12.907  41.487 -11.584  0.00  0.00     0.082 H 
ATOM     44  H5  6NG d   1      13.736  42.578 -10.421  0.00  0.00     0.082 H 
BRANCH  42  45
ATOM     45  C6  6NG d   1      15.068  41.157 -11.426  0.00  0.00    -0.034 A 
ATOM     46  C1  6NG d   1      16.245  41.329 -10.669  0.00  0.00    -0.075 A 
ATOM     47  C2  6NG d   1      17.504  40.989 -11.167  0.00  0.00    -0.082 A 
ATOM     48  H1  6NG d   1      16.170  41.738  -9.668  0.00  0.00     0.084 H 
ATOM     49  C3  6NG d   1      17.600  40.447 -12.454  0.00  0.00    -0.083 A 
ATOM     50  H2  6NG d   1      18.393  41.142 -10.566  0.00  0.00     0.083 H 
ATOM     51  C4  6NG d   1      16.424  40.282 -13.203  0.00  0.00    -0.082 A 
ATOM     52  H3  6NG d   1      18.562  40.161 -12.864  0.00  0.00     0.083 H 
ATOM     53  C5  6NG d   1      15.161  40.630 -12.699  0.00  0.00    -0.075 A 
ATOM     54  H36 6NG d   1      16.494  39.872 -14.204  0.00  0.00     0.083 H 
ATOM     55  H35 6NG d   1      14.271  40.487 -13.301  0.00  0.00     0.084 H 
ENDBRANCH  42  45
ENDBRANCH  41  42
ENDBRANCH  38  41
ENDBRANCH  34  37
ENDBRANCH  31  34
ENDBRANCH  29  31
ENDBRANCH   1  29
BRANCH   1  56
ATOM     56  C18 6NG d   1      10.426  38.459  -2.069  0.00  0.00    -0.035 C 
ATOM     57  H33 6NG d   1      11.336  37.868  -1.889  0.00  0.00     0.037 H 
ATOM     58  H34 6NG d   1      10.613  39.510  -1.804  0.00  0.00     0.037 H 
BRANCH  56  59
ATOM     59  C19 6NG d   1       9.326  37.927  -1.154  0.00  0.00    -0.059 C 
ATOM     60  H8  6NG d   1       8.375  38.388  -1.460  0.00  0.00     0.038 H 
BRANCH  59  61
ATOM     61  C20 6NG d   1       9.593  38.323   0.302  0.00  0.00    -0.073 C 
ATOM     62  H9  6NG d   1       8.790  37.930   0.942  0.00  0.00     0.028 H 
ATOM     63  H10 6NG d   1       9.624  39.419   0.384  0.00  0.00     0.028 H 
ATOM     64  H11 6NG d   1      10.557  37.904   0.625  0.00  0.00     0.028 H 
ENDBRANCH  59  61
BRANCH  59  65
ATOM     65  C21 6NG d   1       9.186  36.418  -1.308  0.00  0.00    -0.073 C 
ATOM     66  H12 6NG d   1       8.996  36.173  -2.363  0.00  0.00     0.028 H 
ATOM     67  H13 6NG d   1       8.347  36.063  -0.692  0.00  0.00     0.028 H 
ATOM     68  H14 6NG d   1      10.115  35.928  -0.980  0.00  0.00     0.028 H 
ENDBRANCH  59  65
ENDBRANCH  56  59
ENDBRANCH   1  56
TORSDOF 19
