REMARK  17 active torsions:
REMARK  status: ('A' for Active; 'I' for Inactive)
REMARK    1  A    between atoms: C7_4  and  C6_14 
REMARK    2  A    between atoms: O8_29  and  C7_4 
REMARK       I    between atoms: N11_27  and  C9_5 
REMARK    3  A    between atoms: C9_5  and  O8_29 
REMARK    4  A    between atoms: P13_13  and  C12_6 
REMARK    5  A    between atoms: C12_6  and  N11_27 
REMARK    6  A    between atoms: C19_7  and  C20_8 
REMARK    7  A    between atoms: C19_7  and  C21_9 
REMARK    8  A    between atoms: C18_19  and  C19_7 
REMARK    9  A    between atoms: C22_10  and  C17_18 
REMARK       I    between atoms: N24_21  and  C22_10 
REMARK   10  A    between atoms: C26_23  and  C27_11 
REMARK   11  A    between atoms: N16_17  and  P13_13 
REMARK   12  A    between atoms: C17_18  and  N16_17 
REMARK   13  A    between atoms: C17_18  and  C18_19 
REMARK   14  A    between atoms: C25_22  and  N24_21 
REMARK   15  A    between atoms: C25_22  and  C26_23 
REMARK   16  A    between atoms: C26_23  and  C28_24 
REMARK   17  A    between atoms: C28_24  and  C29_25 
ROOT
ATOM      1  C17 6QC d   1      10.106  38.433  -3.624  0.00  0.00     0.091 C 
ATOM      2  H21 6QC d   1       9.891  37.397  -3.924  0.00  0.00     0.087 H 
ENDROOT
BRANCH   1   3
ATOM      3  C22 6QC d   1       8.888  39.290  -3.916  0.00  0.00     0.240 C 
ATOM      4  O23 6QC d   1       7.761  38.797  -3.884  0.00  0.00    -0.271 OA
ATOM      5  N24 6QC d   1       9.111  40.585  -4.121  0.00  0.00    -0.359 N 
ATOM      6  H24 6QC d   1      10.055  40.914  -4.117  0.00  0.00     0.162 HD
BRANCH   5   7
ATOM      7  C25 6QC d   1       8.035  41.548  -4.352  0.00  0.00    -0.002 C 
ATOM      8  H25 6QC d   1       7.072  41.091  -4.080  0.00  0.00     0.064 H 
ATOM      9  H26 6QC d   1       8.020  41.829  -5.415  0.00  0.00     0.064 H 
BRANCH   7  10
ATOM     10  C26 6QC d   1       8.268  42.838  -3.474  0.00  0.00    -0.043 C 
ATOM     11  H27 6QC d   1       9.230  43.248  -3.817  0.00  0.00     0.041 H 
BRANCH  10  12
ATOM     12  C27 6QC d   1       8.444  42.622  -1.966  0.00  0.00    -0.071 C 
ATOM     13  H15 6QC d   1       9.204  41.846  -1.793  0.00  0.00     0.028 H 
ATOM     14  H16 6QC d   1       7.487  42.303  -1.527  0.00  0.00     0.028 H 
ATOM     15  H17 6QC d   1       8.767  43.563  -1.496  0.00  0.00     0.028 H 
ENDBRANCH  10  12
BRANCH  10  16
ATOM     16  C28 6QC d   1       7.213  43.917  -3.779  0.00  0.00    -0.064 C 
ATOM     17  H28 6QC d   1       7.292  44.240  -4.827  0.00  0.00     0.033 H 
ATOM     18  H29 6QC d   1       7.353  44.784  -3.117  0.00  0.00     0.033 H 
BRANCH  16  19
ATOM     19  C29 6QC d   1       5.859  43.278  -3.527  0.00  0.00    -0.076 C 
ATOM     20  H30 6QC d   1       5.064  44.011  -3.731  0.00  0.00     0.027 H 
ATOM     21  H31 6QC d   1       5.797  42.952  -2.478  0.00  0.00     0.027 H 
ATOM     22  H32 6QC d   1       5.735  42.408  -4.189  0.00  0.00     0.027 H 
ENDBRANCH  16  19
ENDBRANCH  10  16
ENDBRANCH   7  10
ENDBRANCH   5   7
ENDBRANCH   1   3
BRANCH   1  23
ATOM     23  N16 6QC d   1      11.296  38.901  -4.306  0.00  0.00    -0.334 N 
ATOM     24  H20 6QC d   1      11.981  39.442  -3.818  0.00  0.00     0.164 HD
BRANCH  23  25
ATOM     25  P13 6QC d   1      11.512  38.509  -5.976  0.00  0.00     0.224 P 
ATOM     26  O15 6QC d   1      10.166  38.087  -6.544  0.00  0.00    -0.651 OA
ATOM     27  O14 6QC d   1      12.587  37.502  -6.201  0.00  0.00    -0.651 OA
BRANCH  25  28
ATOM     28  C12 6QC d   1      11.985  40.117  -6.692  0.00  0.00     0.086 C 
ATOM     29  H6  6QC d   1      12.597  40.669  -5.963  0.00  0.00     0.083 H 
ATOM     30  H7  6QC d   1      11.074  40.692  -6.916  0.00  0.00     0.083 H 
BRANCH  28  31
ATOM     31  N11 6QC d   1      12.742  39.944  -7.905  0.00  0.00    -0.325 N 
ATOM     32  C9  6QC d   1      12.671  40.897  -8.834  0.00  0.00     0.361 C 
ATOM     33  O10 6QC d   1      11.989  41.908  -8.783  0.00  0.00    -0.238 OA
ATOM     34  H33 6QC d   1      13.306  39.130  -8.046  0.00  0.00     0.165 HD
BRANCH  32  35
ATOM     35  O8  6QC d   1      13.469  40.587  -9.852  0.00  0.00    -0.299 OA
BRANCH  35  36
ATOM     36  C7  6QC d   1      13.658  41.614 -10.875  0.00  0.00     0.054 C 
ATOM     37  H4  6QC d   1      12.872  41.575 -11.643  0.00  0.00     0.082 H 
ATOM     38  H5  6QC d   1      13.695  42.623 -10.439  0.00  0.00     0.082 H 
BRANCH  36  39
ATOM     39  C6  6QC d   1      15.017  41.186 -11.431  0.00  0.00    -0.034 A 
ATOM     40  C1  6QC d   1      16.167  41.352 -10.639  0.00  0.00    -0.075 A 
ATOM     41  C2  6QC d   1      17.422  40.991 -11.110  0.00  0.00    -0.082 A 
ATOM     42  H1  6QC d   1      16.072  41.769  -9.643  0.00  0.00     0.084 H 
ATOM     43  C3  6QC d   1      17.572  40.425 -12.385  0.00  0.00    -0.083 A 
ATOM     44  H2  6QC d   1      18.295  41.148 -10.486  0.00  0.00     0.083 H 
ATOM     45  C4  6QC d   1      16.417  40.290 -13.172  0.00  0.00    -0.082 A 
ATOM     46  H3  6QC d   1      18.542  40.104 -12.748  0.00  0.00     0.083 H 
ATOM     47  C5  6QC d   1      15.140  40.659 -12.707  0.00  0.00    -0.075 A 
ATOM     48  H18 6QC d   1      16.512  39.887 -14.174  0.00  0.00     0.083 H 
ATOM     49  H19 6QC d   1      14.267  40.533 -13.337  0.00  0.00     0.084 H 
ENDBRANCH  36  39
ENDBRANCH  35  36
ENDBRANCH  32  35
ENDBRANCH  28  31
ENDBRANCH  25  28
ENDBRANCH  23  25
ENDBRANCH   1  23
BRANCH   1  50
ATOM     50  C18 6QC d   1      10.437  38.495  -2.126  0.00  0.00    -0.035 C 
ATOM     51  H22 6QC d   1      11.350  37.906  -1.954  0.00  0.00     0.037 H 
ATOM     52  H23 6QC d   1      10.623  39.546  -1.861  0.00  0.00     0.037 H 
BRANCH  50  53
ATOM     53  C19 6QC d   1       9.350  37.961  -1.203  0.00  0.00    -0.059 C 
ATOM     54  H8  6QC d   1       8.399  38.420  -1.512  0.00  0.00     0.038 H 
BRANCH  53  55
ATOM     55  C20 6QC d   1       9.184  36.443  -1.341  0.00  0.00    -0.073 C 
ATOM     56  H9  6QC d   1       8.392  36.097  -0.660  0.00  0.00     0.028 H 
ATOM     57  H10 6QC d   1      10.131  35.946  -1.084  0.00  0.00     0.028 H 
ATOM     58  H11 6QC d   1       8.910  36.197  -2.377  0.00  0.00     0.028 H 
ENDBRANCH  53  55
BRANCH  53  59
ATOM     59  C21 6QC d   1       9.617  38.393   0.255  0.00  0.00    -0.073 C 
ATOM     60  H12 6QC d   1       9.728  39.486   0.299  0.00  0.00     0.028 H 
ATOM     61  H13 6QC d   1      10.540  37.916   0.616  0.00  0.00     0.028 H 
ATOM     62  H14 6QC d   1       8.773  38.084   0.889  0.00  0.00     0.028 H 
ENDBRANCH  53  59
ENDBRANCH  50  53
ENDBRANCH   1  50
TORSDOF 17
