REMARK  17 active torsions:
REMARK  status: ('A' for Active; 'I' for Inactive)
REMARK    1  A    between atoms: C7_4  and  C6_14 
REMARK    2  A    between atoms: O8_29  and  C7_4 
REMARK       I    between atoms: N11_27  and  C9_5 
REMARK    3  A    between atoms: C9_5  and  O8_29 
REMARK    4  A    between atoms: P13_13  and  C12_6 
REMARK    5  A    between atoms: C12_6  and  N11_27 
REMARK    6  A    between atoms: C19_7  and  C20_8 
REMARK    7  A    between atoms: C19_7  and  C21_9 
REMARK    8  A    between atoms: C18_19  and  C19_7 
REMARK    9  A    between atoms: C22_10  and  C17_18 
REMARK       I    between atoms: N24_21  and  C22_10 
REMARK   10  A    between atoms: C26_23  and  C27_11 
REMARK   11  A    between atoms: N16_17  and  P13_13 
REMARK   12  A    between atoms: C17_18  and  N16_17 
REMARK   13  A    between atoms: C17_18  and  C18_19 
REMARK   14  A    between atoms: C25_22  and  N24_21 
REMARK   15  A    between atoms: C25_22  and  C26_23 
REMARK   16  A    between atoms: C26_23  and  C28_24 
REMARK   17  A    between atoms: C28_24  and  C29_25 
ROOT
ATOM      1  C17 6NN d   1      10.175  38.665  -3.647  0.00  0.00     0.091 C 
ATOM      2  H21 6NN d   1       9.939  37.629  -3.933  0.00  0.00     0.087 H 
ENDROOT
BRANCH   1   3
ATOM      3  C22 6NN d   1       8.979  39.532  -3.944  0.00  0.00     0.240 C 
ATOM      4  O23 6NN d   1       7.854  39.033  -3.938  0.00  0.00    -0.271 OA
ATOM      5  N24 6NN d   1       9.211  40.846  -4.123  0.00  0.00    -0.359 N 
ATOM      6  H24 6NN d   1      10.141  41.206  -4.053  0.00  0.00     0.162 HD
BRANCH   5   7
ATOM      7  C25 6NN d   1       8.094  41.745  -4.420  0.00  0.00    -0.002 C 
ATOM      8  H25 6NN d   1       7.292  41.159  -4.892  0.00  0.00     0.064 H 
ATOM      9  H26 6NN d   1       8.445  42.517  -5.121  0.00  0.00     0.064 H 
BRANCH   7  10
ATOM     10  C26 6NN d   1       7.522  42.439  -3.184  0.00  0.00    -0.043 C 
ATOM     11  H27 6NN d   1       6.948  41.682  -2.630  0.00  0.00     0.041 H 
BRANCH  10  12
ATOM     12  C27 6NN d   1       6.547  43.571  -3.600  0.00  0.00    -0.071 C 
ATOM     13  H15 6NN d   1       5.793  43.169  -4.293  0.00  0.00     0.028 H 
ATOM     14  H16 6NN d   1       7.110  44.376  -4.096  0.00  0.00     0.028 H 
ATOM     15  H17 6NN d   1       6.046  43.971  -2.706  0.00  0.00     0.028 H 
ENDBRANCH  10  12
BRANCH  10  16
ATOM     16  C28 6NN d   1       8.581  43.016  -2.206  0.00  0.00    -0.064 C 
ATOM     17  H28 6NN d   1       9.473  43.305  -2.781  0.00  0.00     0.033 H 
ATOM     18  H29 6NN d   1       8.850  42.238  -1.477  0.00  0.00     0.033 H 
BRANCH  16  19
ATOM     19  C29 6NN d   1       8.060  44.254  -1.442  0.00  0.00    -0.076 C 
ATOM     20  H30 6NN d   1       8.844  44.624  -0.765  0.00  0.00     0.027 H 
ATOM     21  H31 6NN d   1       7.171  43.976  -0.857  0.00  0.00     0.027 H 
ATOM     22  H32 6NN d   1       7.794  45.043  -2.161  0.00  0.00     0.027 H 
ENDBRANCH  16  19
ENDBRANCH  10  16
ENDBRANCH   7  10
ENDBRANCH   5   7
ENDBRANCH   1   3
BRANCH   1  23
ATOM     23  N16 6NN d   1      11.396  39.100  -4.337  0.00  0.00    -0.334 N 
ATOM     24  H20 6NN d   1      12.105  39.611  -3.852  0.00  0.00     0.164 HD
BRANCH  23  25
ATOM     25  P13 6NN d   1      11.576  38.698  -6.034  0.00  0.00     0.224 P 
ATOM     26  O15 6NN d   1      12.637  37.650  -6.242  0.00  0.00    -0.651 OA
ATOM     27  O14 6NN d   1      10.225  38.296  -6.612  0.00  0.00    -0.651 OA
BRANCH  25  28
ATOM     28  C12 6NN d   1      12.067  40.311  -6.707  0.00  0.00     0.086 C 
ATOM     29  H6  6NN d   1      12.733  40.823  -5.997  0.00  0.00     0.083 H 
ATOM     30  H7  6NN d   1      11.174  40.928  -6.882  0.00  0.00     0.083 H 
BRANCH  28  31
ATOM     31  N11 6NN d   1      12.768  40.088  -7.969  0.00  0.00    -0.325 N 
ATOM     32  C9  6NN d   1      12.751  41.042  -8.920  0.00  0.00     0.361 C 
ATOM     33  O10 6NN d   1      12.046  42.038  -8.821  0.00  0.00    -0.238 OA
ATOM     34  H33 6NN d   1      13.258  39.231  -8.126  0.00  0.00     0.165 HD
BRANCH  32  35
ATOM     35  O8  6NN d   1      13.134  40.759 -10.165  0.00  0.00    -0.299 OA
BRANCH  35  36
ATOM     36  C7  6NN d   1      13.711  41.789 -11.004  0.00  0.00     0.054 C 
ATOM     37  H4  6NN d   1      13.078  41.943 -11.890  0.00  0.00     0.082 H 
ATOM     38  H5  6NN d   1      13.784  42.730 -10.438  0.00  0.00     0.082 H 
BRANCH  36  39
ATOM     39  C6  6NN d   1      15.127  41.332 -11.445  0.00  0.00    -0.034 A 
ATOM     40  C1  6NN d   1      16.269  41.536 -10.662  0.00  0.00    -0.075 A 
ATOM     41  C2  6NN d   1      17.531  41.159 -11.106  0.00  0.00    -0.082 A 
ATOM     42  H1  6NN d   1      16.167  41.999  -9.687  0.00  0.00     0.084 H 
ATOM     43  C3  6NN d   1      17.706  40.537 -12.361  0.00  0.00    -0.083 A 
ATOM     44  H2  6NN d   1      18.395  41.346 -10.478  0.00  0.00     0.083 H 
ATOM     45  C4  6NN d   1      16.559  40.345 -13.147  0.00  0.00    -0.082 A 
ATOM     46  H3  6NN d   1      18.685  40.221 -12.703  0.00  0.00     0.083 H 
ATOM     47  C5  6NN d   1      15.296  40.751 -12.698  0.00  0.00    -0.075 A 
ATOM     48  H18 6NN d   1      16.652  39.874 -14.119  0.00  0.00     0.083 H 
ATOM     49  H19 6NN d   1      14.433  40.610 -13.339  0.00  0.00     0.084 H 
ENDBRANCH  36  39
ENDBRANCH  35  36
ENDBRANCH  32  35
ENDBRANCH  28  31
ENDBRANCH  25  28
ENDBRANCH  23  25
ENDBRANCH   1  23
BRANCH   1  50
ATOM     50  C18 6NN d   1      10.511  38.742  -2.146  0.00  0.00    -0.035 C 
ATOM     51  H22 6NN d   1      11.432  38.168  -1.966  0.00  0.00     0.037 H 
ATOM     52  H23 6NN d   1      10.679  39.796  -1.881  0.00  0.00     0.037 H 
BRANCH  50  53
ATOM     53  C19 6NN d   1       9.408  38.185  -1.239  0.00  0.00    -0.059 C 
ATOM     54  H8  6NN d   1       8.454  38.647  -1.533  0.00  0.00     0.038 H 
BRANCH  53  55
ATOM     55  C20 6NN d   1       9.728  38.597   0.231  0.00  0.00    -0.073 C 
ATOM     56  H9  6NN d   1       8.947  38.206   0.900  0.00  0.00     0.028 H 
ATOM     57  H10 6NN d   1       9.760  39.694   0.306  0.00  0.00     0.028 H 
ATOM     58  H11 6NN d   1      10.703  38.181   0.524  0.00  0.00     0.028 H 
ENDBRANCH  53  55
BRANCH  53  59
ATOM     59  C21 6NN d   1       9.250  36.657  -1.368  0.00  0.00    -0.073 C 
ATOM     60  H12 6NN d   1       9.025  36.399  -2.413  0.00  0.00     0.028 H 
ATOM     61  H13 6NN d   1       8.427  36.318  -0.722  0.00  0.00     0.028 H 
ATOM     62  H14 6NN d   1      10.184  36.164  -1.061  0.00  0.00     0.028 H 
ENDBRANCH  53  59
ENDBRANCH  50  53
ENDBRANCH   1  50
TORSDOF 17
