REMARK  8 active torsions:
REMARK  status: ('A' for Active; 'I' for Inactive)
REMARK    1  A    between atoms: C9_9  and  N10_10 
REMARK    2  A    between atoms: N15_15  and  C14_14 
REMARK    3  A    between atoms: C16_16  and  N15_15 
REMARK    4  A    between atoms: C17_18  and  C16_16 
REMARK    5  A    between atoms: C25_25  and  C17_18 
REMARK    6  A    between atoms: C19_19  and  C20_20 
REMARK    7  A    between atoms: C20_20  and  C21_21 
REMARK    8  A    between atoms: C21_21  and  O22_22 
ROOT
ATOM      1  N15 6OK d   1     108.658  19.940  15.829  0.00  0.00    -0.224 N 
ATOM      2  H8  6OK d   1     109.664  20.021  15.625  0.00  0.00     0.177 HD
ENDROOT
BRANCH   1   3
ATOM      3  C14 6OK d   1     108.258  19.726  17.106  0.00  0.00     0.701 A 
ATOM      4  N12 6OK d   1     109.073  19.955  18.144  0.00  0.00    -0.188 N 
ATOM      5  C3  6OK d   1     108.327  19.635  19.233  0.00  0.00     0.079 A 
ATOM      6  H7  6OK d   1     110.045  20.296  18.122  0.00  0.00     0.184 HD
ATOM      7  C2  6OK d   1     108.626  19.678  20.588  0.00  0.00    -0.037 A 
ATOM      8  C4  6OK d   1     107.064  19.203  18.801  0.00  0.00     0.105 A 
ATOM      9  C1  6OK d   1     107.653  19.303  21.499  0.00  0.00     0.062 A 
ATOM     10  H1  6OK d   1     109.604  20.000  20.927  0.00  0.00     0.088 H 
ATOM     11  C6  6OK d   1     106.397  18.873  21.079  0.00  0.00     0.067 A 
ATOM     12  C7  6OK d   1     107.921  19.369  22.955  0.00  0.00     0.272 A 
ATOM     13  C5  6OK d   1     106.094  18.814  19.721  0.00  0.00    -0.025 A 
ATOM     14  N8  6OK d   1     105.478  18.505  22.005  0.00  0.00    -0.191 N 
ATOM     15  H2  6OK d   1     105.121  18.472  19.387  0.00  0.00     0.090 H 
ATOM     16  C9  6OK d   1     105.732  18.593  23.327  0.00  0.00     0.679 A 
ATOM     17  H3  6OK d   1     104.564  18.149  21.692  0.00  0.00     0.184 HD
ATOM     18  N11 6OK d   1     106.926  19.023  23.788  0.00  0.00    -0.156 N 
ATOM     19  H6  6OK d   1     107.073  19.085  24.775  0.00  0.00     0.187 HD
ATOM     20  O18 6OK d   1     109.021  19.753  23.417  0.00  0.00    -0.267 OA
ATOM     21  N13 6OK d   1     107.036  19.276  17.448  0.00  0.00    -0.063 NA
BRANCH  16  22
ATOM     22  N10 6OK d   1     104.765  18.245  24.202  0.00  0.00    -0.234 N 
ATOM     23  H4  6OK d   1     104.941  18.306  25.215  0.00  0.00     0.174 HD
ATOM     24  H5  6OK d   1     103.851  17.919  23.857  0.00  0.00     0.174 HD
ENDBRANCH  16  22
ENDBRANCH   1   3
BRANCH   1  25
ATOM     25  C16 6OK d   1     107.695  20.059  14.732  0.00  0.00     0.013 C 
ATOM     26  H9  6OK d   1     106.773  20.522  15.113  0.00  0.00     0.065 H 
ATOM     27  H10 6OK d   1     107.468  19.055  14.343  0.00  0.00     0.065 H 
BRANCH  25  28
ATOM     28  C17 6OK d   1     108.253  20.921  13.594  0.00  0.00    -0.026 C 
ATOM     29  H11 6OK d   1     109.319  20.673  13.483  0.00  0.00     0.042 H 
ATOM     30  H12 6OK d   1     108.151  21.974  13.896  0.00  0.00     0.042 H 
BRANCH  28  31
ATOM     31  C25 6OK d   1     107.603  20.772  12.223  0.00  0.00    -0.057 A 
ATOM     32  C24 6OK d   1     106.675  21.705  11.761  0.00  0.00    -0.076 A 
ATOM     33  C23 6OK d   1     106.093  21.577  10.495  0.00  0.00    -0.076 A 
ATOM     34  H19 6OK d   1     106.400  22.542  12.392  0.00  0.00     0.084 H 
ATOM     35  C19 6OK d   1     106.450  20.521   9.655  0.00  0.00    -0.056 A 
ATOM     36  H18 6OK d   1     105.359  22.303  10.164  0.00  0.00     0.084 H 
ATOM     37  C27 6OK d   1     107.373  19.591  10.125  0.00  0.00    -0.076 A 
ATOM     38  C26 6OK d   1     107.955  19.719  11.385  0.00  0.00    -0.076 A 
ATOM     39  H21 6OK d   1     107.645  18.750   9.498  0.00  0.00     0.084 H 
ATOM     40  H20 6OK d   1     108.688  18.992  11.715  0.00  0.00     0.084 H 
BRANCH  35  41
ATOM     41  C20 6OK d   1     105.840  20.311   8.269  0.00  0.00    -0.021 C 
ATOM     42  H13 6OK d   1     104.748  20.265   8.395  0.00  0.00     0.043 H 
ATOM     43  H14 6OK d   1     106.207  19.345   7.892  0.00  0.00     0.043 H 
BRANCH  41  44
ATOM     44  C21 6OK d   1     106.132  21.360   7.195  0.00  0.00     0.020 C 
ATOM     45  H15 6OK d   1     107.221  21.469   7.082  0.00  0.00     0.074 H 
ATOM     46  H16 6OK d   1     105.697  22.323   7.501  0.00  0.00     0.074 H 
BRANCH  44  47
ATOM     47  O22 6OK d   1     105.558  20.959   5.924  0.00  0.00    -0.401 OA
ATOM     48  H17 6OK d   1     105.748  21.620   5.269  0.00  0.00     0.209 HD
ENDBRANCH  44  47
ENDBRANCH  41  44
ENDBRANCH  35  41
ENDBRANCH  28  31
ENDBRANCH  25  28
ENDBRANCH   1  25
TORSDOF 8
