REMARK  13 active torsions:
REMARK  status: ('A' for Active; 'I' for Inactive)
REMARK    1  A    between atoms: C5_5  and  C4_4 
REMARK    2  A    between atoms: C13_9  and  C5_5 
REMARK    3  A    between atoms: C5_5  and  C28_36 
REMARK    4  A    between atoms: C5_5  and  C29_37 
REMARK    5  A    between atoms: C14_10  and  N2_30 
REMARK    6  A    between atoms: C16_12  and  C18_31 
REMARK    7  A    between atoms: C23_20  and  C24_14 
REMARK    8  A    between atoms: C24_14  and  O4_21 
REMARK    9  A    between atoms: S1_16  and  C25_15 
REMARK   10  A    between atoms: C22_19  and  S1_16 
REMARK   11  A    between atoms: C18_31  and  C19_32 
REMARK   12  A    between atoms: C18_31  and  C20_33 
REMARK   13  A    between atoms: C18_31  and  O3_34 
ROOT
ATOM      1  C13 6OX d   1      37.838  24.322  21.645  0.00  0.00     0.124 A 
ATOM      2  C16 6OX d   1      39.615  24.835  22.633  0.00  0.00     0.086 A 
ATOM      3  C17 6OX d   1      39.602  23.497  22.594  0.00  0.00     0.014 A 
ATOM      4  N2  6OX d   1      38.457  23.150  21.976  0.00  0.00    -0.304 N 
ATOM      5  N1  6OX d   1      38.557  25.341  22.065  0.00  0.00    -0.234 NA
ATOM      6  H5  6OX d   1      40.364  22.824  22.984  0.00  0.00     0.115 H 
ENDROOT
BRANCH   4   7
ATOM      7  C14 6OX d   1      38.051  21.877  21.662  0.00  0.00     0.079 A 
ATOM      8  C15 6OX d   1      38.123  21.466  20.327  0.00  0.00    -0.053 A 
ATOM      9  C11 6OX d   1      37.741  20.198  19.913  0.00  0.00    -0.070 A 
ATOM     10  H4  6OX d   1      38.492  22.166  19.586  0.00  0.00     0.087 H 
ATOM     11  C12 6OX d   1      37.286  19.294  20.853  0.00  0.00    -0.023 A 
ATOM     12  H14 6OX d   1      37.799  19.921  18.867  0.00  0.00     0.084 H 
ATOM     13  C7  6OX d   1      36.969  18.026  20.419  0.00  0.00    -0.021 A 
ATOM     14  C26 6OX d   1      37.236  19.658  22.205  0.00  0.00    -0.033 A 
ATOM     15  C10 6OX d   1      37.539  16.926  21.031  0.00  0.00    -0.051 A 
ATOM     16  C8  6OX d   1      36.113  17.845  19.356  0.00  0.00    -0.034 A 
ATOM     17  C22 6OX d   1      37.232  15.635  20.584  0.00  0.00     0.071 A 
ATOM     18  H3  6OX d   1      38.225  17.063  21.859  0.00  0.00     0.087 H 
ATOM     19  C23 6OX d   1      36.367  15.422  19.462  0.00  0.00     0.025 A 
ATOM     20  C9  6OX d   1      35.863  16.558  18.913  0.00  0.00     0.127 A 
ATOM     21  F1  6OX d   1      35.095  16.327  17.900  0.00  0.00    -0.205 F 
ATOM     22  H12 6OX d   1      35.643  18.695  18.875  0.00  0.00     0.089 H 
ATOM     23  C27 6OX d   1      37.617  20.951  22.601  0.00  0.00     0.144 A 
ATOM     24  H13 6OX d   1      36.903  18.941  22.947  0.00  0.00     0.089 H 
ATOM     25  F2  6OX d   1      37.498  21.313  23.895  0.00  0.00    -0.204 F 
BRANCH  17  26
ATOM     26  S1  6OX d   1      37.930  14.339  21.395  0.00  0.00     0.172 S 
ATOM     27  O1  6OX d   1      37.001  13.199  21.452  0.00  0.00    -0.223 OA
ATOM     28  O2  6OX d   1      39.232  13.870  20.721  0.00  0.00    -0.223 OA
BRANCH  26  29
ATOM     29  C25 6OX d   1      38.382  14.869  22.970  0.00  0.00     0.020 C 
ATOM     30  H8  6OX d   1      37.490  15.220  23.509  0.00  0.00     0.049 H 
ATOM     31  H9  6OX d   1      39.107  15.692  22.886  0.00  0.00     0.049 H 
ATOM     32  H10 6OX d   1      38.838  14.034  23.521  0.00  0.00     0.049 H 
ENDBRANCH  26  29
ENDBRANCH  17  26
BRANCH  19  33
ATOM     33  C24 6OX d   1      35.931  14.084  18.801  0.00  0.00     0.045 C 
ATOM     34  H6  6OX d   1      34.970  14.237  18.287  0.00  0.00     0.081 H 
ATOM     35  H7  6OX d   1      35.810  13.322  19.585  0.00  0.00     0.081 H 
BRANCH  33  36
ATOM     36  O4  6OX d   1      36.924  13.608  17.823  0.00  0.00    -0.396 OA
ATOM     37  H11 6OX d   1      36.624  12.791  17.441  0.00  0.00     0.209 HD
ENDBRANCH  33  36
ENDBRANCH  19  33
ENDBRANCH   4   7
BRANCH   1  38
ATOM     38  C5  6OX d   1      36.535  24.606  20.861  0.00  0.00     0.044 C 
BRANCH  38  39
ATOM     39  C4  6OX d   1      35.519  23.422  21.064  0.00  0.00     0.001 A 
ATOM     40  C3  6OX d   1      35.179  23.035  22.374  0.00  0.00     0.043 A 
ATOM     41 CL1  6OX d   1      35.899  23.808  23.765  0.00  0.00    -0.084 Cl
ATOM     42  C21 6OX d   1      34.269  21.992  22.569  0.00  0.00    -0.061 A 
ATOM     43  C1  6OX d   1      33.691  21.329  21.494  0.00  0.00    -0.080 A 
ATOM     44  H28 6OX d   1      34.009  21.695  23.579  0.00  0.00     0.086 H 
ATOM     45  C2  6OX d   1      34.014  21.702  20.199  0.00  0.00    -0.061 A 
ATOM     46  H1  6OX d   1      32.989  20.522  21.668  0.00  0.00     0.083 H 
ATOM     47  C6  6OX d   1      34.916  22.740  19.997  0.00  0.00     0.043 A 
ATOM     48  H2  6OX d   1      33.569  21.190  19.354  0.00  0.00     0.086 H 
ATOM     49 CL2  6OX d   1      35.313  23.143  18.366  0.00  0.00    -0.084 Cl
ENDBRANCH  38  39
BRANCH  38  50
ATOM     50  C28 6OX d   1      36.986  24.915  19.404  0.00  0.00    -0.059 C 
ATOM     51  H22 6OX d   1      36.103  25.128  18.784  0.00  0.00     0.029 H 
ATOM     52  H23 6OX d   1      37.521  24.046  18.994  0.00  0.00     0.029 H 
ATOM     53  H24 6OX d   1      37.653  25.789  19.404  0.00  0.00     0.029 H 
ENDBRANCH  38  50
BRANCH  38  54
ATOM     54  C29 6OX d   1      35.826  25.845  21.424  0.00  0.00    -0.059 C 
ATOM     55  H25 6OX d   1      35.500  25.644  22.455  0.00  0.00     0.029 H 
ATOM     56  H26 6OX d   1      34.950  26.081  20.802  0.00  0.00     0.029 H 
ATOM     57  H27 6OX d   1      36.520  26.699  21.419  0.00  0.00     0.029 H 
ENDBRANCH  38  54
ENDBRANCH   1  38
BRANCH   2  58
ATOM     58  C18 6OX d   1      40.626  25.799  23.190  0.00  0.00     0.096 C 
BRANCH  58  59
ATOM     59  C19 6OX d   1      41.069  25.277  24.552  0.00  0.00    -0.043 C 
ATOM     60  H15 6OX d   1      41.811  25.964  24.985  0.00  0.00     0.032 H 
ATOM     61  H16 6OX d   1      41.518  24.280  24.434  0.00  0.00     0.032 H 
ATOM     62  H17 6OX d   1      40.198  25.210  25.220  0.00  0.00     0.032 H 
ENDBRANCH  58  59
BRANCH  58  63
ATOM     63  C20 6OX d   1      41.790  25.975  22.205  0.00  0.00    -0.043 C 
ATOM     64  H18 6OX d   1      41.405  26.352  21.246  0.00  0.00     0.032 H 
ATOM     65  H19 6OX d   1      42.285  25.006  22.045  0.00  0.00     0.032 H 
ATOM     66  H20 6OX d   1      42.514  26.693  22.617  0.00  0.00     0.032 H 
ENDBRANCH  58  63
BRANCH  58  67
ATOM     67  O3  6OX d   1      39.912  27.021  23.214  0.00  0.00    -0.384 OA
ATOM     68  H21 6OX d   1      39.678  27.267  22.327  0.00  0.00     0.211 HD
ENDBRANCH  58  67
ENDBRANCH   2  58
TORSDOF 13
