REMARK WARNING: 32 MAX_TORS EXCEEDED!!!
REMARK  47 active torsions:
REMARK  status: ('A' for Active; 'I' for Inactive)
REMARK    1  A    between atoms: N_1  and  CA_2 
REMARK    2  A    between atoms: CA_2  and  C_3 
REMARK    3  A    between atoms: CA_2  and  CB_5 
REMARK       I    between atoms: C_3  and  N_10 
REMARK    4  A    between atoms: CB_5  and  CG_6 
REMARK    5  A    between atoms: CG_6  and  CD_7 
REMARK    6  A    between atoms: CD_7  and  CE_8 
REMARK    7  A    between atoms: CE_8  and  NZ_9 
REMARK    8  A    between atoms: N_10  and  CA_11 
REMARK    9  A    between atoms: CA_11  and  C_12 
REMARK   10  A    between atoms: CA_11  and  CB_14 
REMARK       I    between atoms: C_12  and  N_18 
REMARK   11  A    between atoms: CB_14  and  CG_15 
REMARK   12  A    between atoms: CG_15  and  CD1_16 
REMARK   13  A    between atoms: CG_15  and  CD2_17 
REMARK   14  A    between atoms: N_18  and  CA_19 
REMARK   15  A    between atoms: CA_19  and  C_20 
REMARK   16  A    between atoms: CA_19  and  CB_22 
REMARK       I    between atoms: C_20  and  N_25 
REMARK   17  A    between atoms: CB_22  and  CG1_23 
REMARK   18  A    between atoms: CB_22  and  CG2_24 
REMARK   19  A    between atoms: N_25  and  CA_26 
REMARK   20  A    between atoms: CA_26  and  C_27 
REMARK   21  A    between atoms: CA_26  and  CB_29 
REMARK       I    between atoms: C_27  and  N_30 
REMARK   22  A    between atoms: N_30  and  CA_31 
REMARK   23  A    between atoms: CA_31  and  C_32 
REMARK   24  A    between atoms: CA_31  and  CB_34 
REMARK       I    between atoms: C_32  and  N_38 
REMARK   25  A    between atoms: CB_34  and  CG_35 
REMARK   26  A    between atoms: CG_35  and  CD1_36 
REMARK   27  A    between atoms: CG_35  and  CD2_37 
REMARK   28  A    between atoms: N_38  and  CA_39 
REMARK   29  A    between atoms: CA_39  and  C_40 
REMARK       I    between atoms: C_40  and  N_42 
REMARK   30  A    between atoms: N_42  and  CA_43 
REMARK   31  A    between atoms: CA_43  and  C_44 
REMARK   32  A    between atoms: CA_43  and  CB_46 
REMARK       I    between atoms: C_44  and  N_50 
REMARK   33  A    between atoms: CB_46  and  CG1_47 
REMARK   34  A    between atoms: CB_46  and  CG2_48 
REMARK   35  A    between atoms: CG1_47  and  CD1_49 
REMARK   36  A    between atoms: N_50  and  CA_51 
REMARK   37  A    between atoms: CA_51  and  C_52 
REMARK   38  A    between atoms: CA_51  and  CB_54 
REMARK       I    between atoms: C_52  and  N_58 
REMARK   39  A    between atoms: CB_54  and  CG_55 
REMARK       I    between atoms: CG_55  and  ND2_57 
REMARK   40  A    between atoms: N_58  and  CA_59 
REMARK   41  A    between atoms: CA_59  and  C_60 
REMARK   42  A    between atoms: CA_59  and  CB_62 
REMARK       I    between atoms: C_60  and  N_63 
REMARK   43  A    between atoms: N_63  and  CA_64 
REMARK   44  A    between atoms: CA_64  and  C_65 
REMARK   45  A    between atoms: CA_64  and  CB_67 
REMARK   46  A    between atoms: CB_67  and  CG1_68 
REMARK   47  A    between atoms: CB_67  and  CG2_69 
ROOT
ATOM      1  CA  LEU d   1     -87.688  65.815  24.434  0.00  0.00     0.089 C 
ATOM      2  H42 LEU d   1     -87.215  65.727  23.445  0.00  0.00     0.087 H 
ENDROOT
BRANCH   1   3
ATOM      3  N   LEU d   1     -86.774  66.511  25.327  0.00  0.00    -0.346 N 
ATOM      4  C   ALA d   1     -85.465  66.567  25.098  0.00  0.00     0.240 C 
ATOM      5  O   ALA d   1     -84.924  66.060  24.116  0.00  0.00    -0.271 OA
ATOM      6  H41 LEU d   1     -87.142  66.962  26.140  0.00  0.00     0.163 HD
BRANCH   4   7
ATOM      7  CA  ALA d   1     -84.650  67.318  26.135  0.00  0.00     0.086 C 
ATOM      8  H37 ALA d   1     -83.816  67.828  25.630  0.00  0.00     0.086 H 
BRANCH   7   9
ATOM      9  N   ALA d   1     -85.494  68.315  26.772  0.00  0.00    -0.346 N 
ATOM     10  C   VAL d   1     -85.532  69.573  26.350  0.00  0.00     0.241 C 
ATOM     11  O   VAL d   1     -84.818  70.005  25.447  0.00  0.00    -0.271 OA
ATOM     12  H36 ALA d   1     -86.062  68.046  27.550  0.00  0.00     0.163 HD
BRANCH  10  13
ATOM     13  CA  VAL d   1     -86.532  70.474  27.049  0.00  0.00     0.092 C 
ATOM     14  H28 VAL d   1     -87.008  69.916  27.869  0.00  0.00     0.088 H 
BRANCH  13  15
ATOM     15  N   VAL d   1     -85.835  71.619  27.603  0.00  0.00    -0.346 N 
ATOM     16  C   LEU d   1     -85.026  71.505  28.648  0.00  0.00     0.241 C 
ATOM     17  O   LEU d   1     -84.860  70.457  29.269  0.00  0.00    -0.271 OA
ATOM     18  H27 VAL d   1     -85.968  72.518  27.186  0.00  0.00     0.163 HD
BRANCH  16  19
ATOM     19  CA  LEU d   1     -84.298  72.773  29.041  0.00  0.00     0.089 C 
ATOM     20  H17 LEU d   1     -85.035  73.588  29.098  0.00  0.00     0.087 H 
BRANCH  19  21
ATOM     21  N   LEU d   1     -83.645  72.668  30.341  0.00  0.00    -0.346 N 
ATOM     22  C   LYS d   1     -84.338  72.615  31.472  0.00  0.00     0.248 C 
ATOM     23  O   LYS d   1     -85.565  72.552  31.501  0.00  0.00    -0.271 OA
ATOM     24  H16 LEU d   1     -82.646  72.635  30.381  0.00  0.00     0.163 HD
BRANCH  22  25
ATOM     25  CA  LYS d   1     -83.527  72.637  32.765  0.00  0.00     0.176 C 
ATOM     26  H4  LYS d   1     -82.508  72.983  32.536  0.00  0.00     0.099 H 
BRANCH  25  27
ATOM     27  N   LYS d   1     -84.153  73.587  33.723  0.00  0.00    -0.067 N 
ATOM     28  H1  LYS d   1     -83.619  73.603  34.578  0.00  0.00     0.275 HD
ATOM     29  H2  LYS d   1     -85.096  73.291  33.922  0.00  0.00     0.275 HD
ATOM     30  H3  LYS d   1     -84.168  74.510  33.319  0.00  0.00     0.275 HD
ENDBRANCH  25  27
BRANCH  25  31
ATOM     31  CB  LYS d   1     -83.437  71.240  33.381  0.00  0.00    -0.030 C 
ATOM     32  H5  LYS d   1     -84.445  70.800  33.387  0.00  0.00     0.036 H 
ATOM     33  H6  LYS d   1     -83.075  71.341  34.415  0.00  0.00     0.036 H 
BRANCH  31  34
ATOM     34  CG  LYS d   1     -82.511  70.295  32.644  0.00  0.00    -0.061 C 
ATOM     35  H7  LYS d   1     -81.628  70.854  32.301  0.00  0.00     0.033 H 
ATOM     36  H8  LYS d   1     -83.042  69.878  31.775  0.00  0.00     0.033 H 
BRANCH  34  37
ATOM     37  CD  LYS d   1     -82.058  69.156  33.540  0.00  0.00    -0.043 C 
ATOM     38  H9  LYS d   1     -82.923  68.517  33.771  0.00  0.00     0.035 H 
ATOM     39  H10 LYS d   1     -81.652  69.574  34.473  0.00  0.00     0.035 H 
BRANCH  37  40
ATOM     40  CE  LYS d   1     -80.987  68.314  32.869  0.00  0.00     0.080 C 
ATOM     41  H11 LYS d   1     -80.122  68.955  32.644  0.00  0.00     0.075 H 
ATOM     42  H12 LYS d   1     -81.394  67.905  31.932  0.00  0.00     0.075 H 
BRANCH  40  43
ATOM     43  NZ  LYS d   1     -80.536  67.186  33.728  0.00  0.00    -0.079 N 
ATOM     44  H13 LYS d   1     -79.828  66.657  33.243  0.00  0.00     0.274 HD
ATOM     45  H14 LYS d   1     -81.320  66.587  33.935  0.00  0.00     0.274 HD
ATOM     46  H15 LYS d   1     -80.155  67.550  34.587  0.00  0.00     0.274 HD
ENDBRANCH  40  43
ENDBRANCH  37  40
ENDBRANCH  34  37
ENDBRANCH  31  34
ENDBRANCH  25  31
ENDBRANCH  22  25
ENDBRANCH  19  21
BRANCH  19  47
ATOM     47  CB  LEU d   1     -83.277  73.114  27.957  0.00  0.00    -0.035 C 
ATOM     48  H18 LEU d   1     -83.773  72.995  26.982  0.00  0.00     0.037 H 
ATOM     49  H19 LEU d   1     -82.451  72.392  28.038  0.00  0.00     0.037 H 
BRANCH  47  50
ATOM     50  CG  LEU d   1     -82.674  74.514  28.001  0.00  0.00    -0.059 C 
ATOM     51  H20 LEU d   1     -82.316  74.713  29.022  0.00  0.00     0.038 H 
BRANCH  50  52
ATOM     52  CD1 LEU d   1     -81.499  74.599  27.049  0.00  0.00    -0.073 C 
ATOM     53  H21 LEU d   1     -81.070  75.611  27.086  0.00  0.00     0.028 H 
ATOM     54  H22 LEU d   1     -81.840  74.383  26.026  0.00  0.00     0.028 H 
ATOM     55  H23 LEU d   1     -80.734  73.865  27.344  0.00  0.00     0.028 H 
ENDBRANCH  50  52
BRANCH  50  56
ATOM     56  CD2 LEU d   1     -83.723  75.548  27.647  0.00  0.00    -0.073 C 
ATOM     57  H24 LEU d   1     -84.566  75.470  28.349  0.00  0.00     0.028 H 
ATOM     58  H25 LEU d   1     -84.081  75.371  26.622  0.00  0.00     0.028 H 
ATOM     59  H26 LEU d   1     -83.283  76.554  27.713  0.00  0.00     0.028 H 
ENDBRANCH  50  56
ENDBRANCH  47  50
ENDBRANCH  19  47
ENDBRANCH  16  19
ENDBRANCH  13  15
BRANCH  13  60
ATOM     60  CB  VAL d   1     -87.623  70.916  26.052  0.00  0.00    -0.033 C 
ATOM     61  H29 VAL d   1     -87.166  71.603  25.324  0.00  0.00     0.042 H 
BRANCH  60  62
ATOM     62  CG1 VAL d   1     -88.191  69.722  25.288  0.00  0.00    -0.071 C 
ATOM     63  H30 VAL d   1     -88.964  70.069  24.587  0.00  0.00     0.028 H 
ATOM     64  H31 VAL d   1     -88.634  69.009  25.999  0.00  0.00     0.028 H 
ATOM     65  H32 VAL d   1     -87.384  69.228  24.728  0.00  0.00     0.028 H 
ENDBRANCH  60  62
BRANCH  60  66
ATOM     66  CG2 VAL d   1     -88.724  71.654  26.777  0.00  0.00    -0.071 C 
ATOM     67  H33 VAL d   1     -88.296  72.509  27.320  0.00  0.00     0.028 H 
ATOM     68  H34 VAL d   1     -89.213  70.974  27.490  0.00  0.00     0.028 H 
ATOM     69  H35 VAL d   1     -89.464  72.016  26.048  0.00  0.00     0.028 H 
ENDBRANCH  60  66
ENDBRANCH  13  60
ENDBRANCH  10  13
ENDBRANCH   7   9
BRANCH   7  70
ATOM     70  CB  ALA d   1     -84.080  66.366  27.165  0.00  0.00    -0.049 C 
ATOM     71  H38 ALA d   1     -83.445  65.621  26.664  0.00  0.00     0.030 H 
ATOM     72  H39 ALA d   1     -84.903  65.855  27.687  0.00  0.00     0.030 H 
ATOM     73  H40 ALA d   1     -83.478  66.930  27.892  0.00  0.00     0.030 H 
ENDBRANCH   7  70
ENDBRANCH   4   7
ENDBRANCH   1   3
BRANCH   1  74
ATOM     74  C   LEU d   1     -88.986  66.606  24.280  0.00  0.00     0.240 C 
ATOM     75  O   LEU d   1     -89.686  66.860  25.258  0.00  0.00    -0.271 OA
ATOM     76  N   GLY d   1     -89.300  66.993  23.048  0.00  0.00    -0.351 N 
ATOM     77  H52 GLY d   1     -88.681  66.771  22.295  0.00  0.00     0.163 HD
BRANCH  76  78
ATOM     78  CA  GLY d   1     -90.518  67.729  22.769  0.00  0.00     0.069 C 
ATOM     79  H53 GLY d   1     -90.846  68.224  23.695  0.00  0.00     0.078 H 
ATOM     80  H54 GLY d   1     -91.289  67.015  22.442  0.00  0.00     0.078 H 
BRANCH  78  81
ATOM     81  C   GLY d   1     -90.355  68.785  21.693  0.00  0.00     0.236 C 
ATOM     82  O   GLY d   1     -91.309  69.113  20.988  0.00  0.00    -0.272 OA
ATOM     83  N   ILE d   1     -89.151  69.331  21.572  0.00  0.00    -0.346 N 
ATOM     84  H55 ILE d   1     -88.411  69.025  22.171  0.00  0.00     0.163 HD
BRANCH  83  85
ATOM     85  CA  ILE d   1     -88.887  70.368  20.583  0.00  0.00     0.092 C 
ATOM     86  H56 ILE d   1     -89.666  71.138  20.685  0.00  0.00     0.088 H 
BRANCH  85  87
ATOM     87  C   ILE d   1     -88.951  69.802  19.167  0.00  0.00     0.241 C 
ATOM     88  O   ILE d   1     -88.091  69.024  18.752  0.00  0.00    -0.271 OA
ATOM     89  N   ASN d   1     -89.987  70.200  18.439  0.00  0.00    -0.346 N 
ATOM     90  H66 ASN d   1     -90.687  70.770  18.869  0.00  0.00     0.163 HD
BRANCH  89  91
ATOM     91  CA  ASN d   1     -90.143  69.839  17.041  0.00  0.00     0.097 C 
ATOM     92  H67 ASN d   1     -89.284  69.224  16.733  0.00  0.00     0.088 H 
BRANCH  91  93
ATOM     93  C   ASN d   1     -90.173  71.102  16.207  0.00  0.00     0.241 C 
ATOM     94  O   ASN d   1     -90.319  72.201  16.741  0.00  0.00    -0.271 OA
ATOM     95  N   ALA d   1     -90.030  70.947  14.897  0.00  0.00    -0.346 N 
ATOM     96  H72 ALA d   1     -89.870  70.032  14.527  0.00  0.00     0.163 HD
BRANCH  95  97
ATOM     97  CA  ALA d   1     -90.101  72.080  13.989  0.00  0.00     0.086 C 
ATOM     98  H73 ALA d   1     -89.720  72.972  14.508  0.00  0.00     0.086 H 
BRANCH  97  99
ATOM     99  C   ALA d   1     -91.553  72.331  13.590  0.00  0.00     0.240 C 
ATOM    100  O   ALA d   1     -92.406  71.460  13.749  0.00  0.00    -0.271 OA
ATOM    101  N   VAL d   1     -91.824  73.527  13.076  0.00  0.00    -0.344 N 
ATOM    102  H77 VAL d   1     -91.078  74.182  12.954  0.00  0.00     0.163 HD
BRANCH 101 103
ATOM    103  CA  VAL d   1     -93.177  73.915  12.684  0.00  0.00     0.099 C 
ATOM    104  H78 VAL d   1     -93.872  73.518  13.439  0.00  0.00     0.090 H 
BRANCH 103 105
ATOM    105  C   VAL d   1     -93.575  73.347  11.322  0.00  0.00     0.197 C 
ATOM    106  O   VAL d   1     -94.752  73.334  10.956  0.00  0.00    -0.646 OA
ATOM    107  OXT VAL d   1     -92.730  72.895  10.552  0.00  0.00    -0.646 OA
ENDBRANCH 103 105
BRANCH 103 108
ATOM    108  CB  VAL d   1     -93.325  75.450  12.643  0.00  0.00    -0.032 C 
ATOM    109  H79 VAL d   1     -94.358  75.690  12.352  0.00  0.00     0.042 H 
BRANCH 108 110
ATOM    110  CG1 VAL d   1     -93.066  76.040  14.017  0.00  0.00    -0.071 C 
ATOM    111  H80 VAL d   1     -93.175  77.134  13.973  0.00  0.00     0.028 H 
ATOM    112  H81 VAL d   1     -92.045  75.786  14.339  0.00  0.00     0.028 H 
ATOM    113  H82 VAL d   1     -93.790  75.628  14.735  0.00  0.00     0.028 H 
ENDBRANCH 108 110
BRANCH 108 114
ATOM    114  CG2 VAL d   1     -92.385  76.058  11.611  0.00  0.00    -0.071 C 
ATOM    115  H83 VAL d   1     -92.589  75.617  10.624  0.00  0.00     0.028 H 
ATOM    116  H84 VAL d   1     -91.343  75.850  11.897  0.00  0.00     0.028 H 
ATOM    117  H85 VAL d   1     -92.543  77.146  11.567  0.00  0.00     0.028 H 
ENDBRANCH 108 114
ENDBRANCH 103 108
ENDBRANCH 101 103
ENDBRANCH  97  99
BRANCH  97 118
ATOM    118  CB  ALA d   1     -89.240  71.831  12.767  0.00  0.00    -0.049 C 
ATOM    119  H74 ALA d   1     -89.304  72.696  12.091  0.00  0.00     0.030 H 
ATOM    120  H75 ALA d   1     -89.596  70.930  12.245  0.00  0.00     0.030 H 
ATOM    121  H76 ALA d   1     -88.195  71.686  13.078  0.00  0.00     0.030 H 
ENDBRANCH  97 118
ENDBRANCH  95  97
ENDBRANCH  91  93
BRANCH  91 122
ATOM    122  CB  ASN d   1     -91.424  69.035  16.824  0.00  0.00     0.036 C 
ATOM    123  H68 ASN d   1     -91.570  68.890  15.743  0.00  0.00     0.051 H 
ATOM    124  H69 ASN d   1     -92.271  69.604  17.235  0.00  0.00     0.051 H 
BRANCH 122 125
ATOM    125  CG  ASN d   1     -91.383  67.677  17.493  0.00  0.00     0.217 C 
ATOM    126  OD1 ASN d   1     -91.241  66.649  16.831  0.00  0.00    -0.274 OA
ATOM    127  ND2 ASN d   1     -91.499  67.667  18.813  0.00  0.00    -0.370 N 
ATOM    128  H70 ASN d   1     -91.479  66.800  19.310  0.00  0.00     0.159 HD
ATOM    129  H71 ASN d   1     -91.607  68.527  19.312  0.00  0.00     0.159 HD
ENDBRANCH 122 125
ENDBRANCH  91 122
ENDBRANCH  89  91
ENDBRANCH  85  87
BRANCH  85 130
ATOM    130  CB  ILE d   1     -87.515  71.039  20.800  0.00  0.00    -0.030 C 
ATOM    131  H57 ILE d   1     -86.731  70.285  20.637  0.00  0.00     0.043 H 
BRANCH 130 132
ATOM    132  CG1 ILE d   1     -87.385  71.567  22.232  0.00  0.00    -0.063 C 
ATOM    133  H58 ILE d   1     -86.393  72.030  22.340  0.00  0.00     0.033 H 
ATOM    134  H59 ILE d   1     -87.469  70.715  22.922  0.00  0.00     0.033 H 
BRANCH 132 135
ATOM    135  CD1 ILE d   1     -88.436  72.597  22.617  0.00  0.00    -0.076 C 
ATOM    136  H63 ILE d   1     -88.269  72.921  23.655  0.00  0.00     0.027 H 
ATOM    137  H64 ILE d   1     -89.437  72.150  22.529  0.00  0.00     0.027 H 
ATOM    138  H65 ILE d   1     -88.362  73.465  21.946  0.00  0.00     0.027 H 
ENDBRANCH 132 135
ENDBRANCH 130 132
BRANCH 130 139
ATOM    139  CG2 ILE d   1     -87.312  72.173  19.796  0.00  0.00    -0.071 C 
ATOM    140  H60 ILE d   1     -87.408  71.779  18.773  0.00  0.00     0.028 H 
ATOM    141  H61 ILE d   1     -86.310  72.606  19.929  0.00  0.00     0.028 H 
ATOM    142  H62 ILE d   1     -88.072  72.951  19.962  0.00  0.00     0.028 H 
ENDBRANCH 130 139
ENDBRANCH  85 130
ENDBRANCH  83  85
ENDBRANCH  78  81
ENDBRANCH  76  78
ENDBRANCH   1  74
BRANCH   1 143
ATOM    143  CB  LEU d   1     -87.966  64.410  24.966  0.00  0.00    -0.035 C 
ATOM    144  H43 LEU d   1     -88.784  64.487  25.698  0.00  0.00     0.037 H 
ATOM    145  H44 LEU d   1     -87.054  64.059  25.471  0.00  0.00     0.037 H 
BRANCH 143 146
ATOM    146  CG  LEU d   1     -88.363  63.350  23.941  0.00  0.00    -0.059 C 
ATOM    147  H45 LEU d   1     -88.099  63.719  22.939  0.00  0.00     0.038 H 
BRANCH 146 148
ATOM    148  CD1 LEU d   1     -87.601  62.057  24.192  0.00  0.00    -0.073 C 
ATOM    149  H46 LEU d   1     -87.898  61.305  23.446  0.00  0.00     0.028 H 
ATOM    150  H47 LEU d   1     -87.833  61.684  25.201  0.00  0.00     0.028 H 
ATOM    151  H48 LEU d   1     -86.520  62.246  24.111  0.00  0.00     0.028 H 
ENDBRANCH 146 148
BRANCH 146 152
ATOM    152  CD2 LEU d   1     -89.857  63.111  23.984  0.00  0.00    -0.073 C 
ATOM    153  H49 LEU d   1     -90.385  64.058  23.800  0.00  0.00     0.028 H 
ATOM    154  H50 LEU d   1     -90.138  62.721  24.973  0.00  0.00     0.028 H 
ATOM    155  H51 LEU d   1     -90.134  62.380  23.210  0.00  0.00     0.028 H 
ENDBRANCH 146 152
ENDBRANCH 143 146
ENDBRANCH   1 143
TORSDOF 47
