REMARK  2 active torsions:
REMARK  status: ('A' for Active; 'I' for Inactive)
REMARK    1  A    between atoms: C6_9  and  C12_14 
REMARK    2  A    between atoms: C9_12  and  C14_15 
ROOT
ATOM      1  C10 6P4 d   1      18.104  13.270  17.663  0.00  0.00    -0.035 A 
ATOM      2  C13 6P4 d   1      21.662  16.280  20.750  0.00  0.00    -0.072 A 
ATOM      3  C15 6P4 d   1      17.570  12.530  16.622  0.00  0.00     0.024 A 
ATOM      4  N1  6P4 d   1      19.686  15.727  18.870  0.00  0.00    -0.302 N 
ATOM      5  C2  6P4 d   1      18.611  15.761  17.958  0.00  0.00     0.093 A 
ATOM      6  C3  6P4 d   1      19.787  17.017  19.420  0.00  0.00     0.134 A 
ATOM      7  C4  6P4 d   1      20.553  14.707  19.244  0.00  0.00    -0.007 A 
ATOM      8  C5  6P4 d   1      18.151  14.629  17.206  0.00  0.00     0.080 A 
ATOM      9  C6  6P4 d   1      18.107  17.068  18.004  0.00  0.00     0.062 A 
ATOM     10  N7  6P4 d   1      18.829  17.838  18.902  0.00  0.00    -0.233 NA
ATOM     11  C8  6P4 d   1      20.820  17.280  20.379  0.00  0.00    -0.038 A 
ATOM     12  C9  6P4 d   1      21.537  14.974  20.176  0.00  0.00    -0.046 A 
ATOM     13  N11 6P4 d   1      17.642  14.724  15.946  0.00  0.00    -0.276 N 
ATOM     14  N16 6P4 d   1      17.300  13.430  15.618  0.00  0.00    -0.187 NA
ATOM     15  H1  6P4 d   1      18.424  12.896  18.634  0.00  0.00     0.089 H 
ATOM     16  H2  6P4 d   1      22.438  16.473  21.489  0.00  0.00     0.084 H 
ATOM     17  H3  6P4 d   1      17.399  11.455  16.602  0.00  0.00     0.117 H 
ATOM     18  H4  6P4 d   1      20.458  13.713  18.809  0.00  0.00     0.113 H 
ATOM     19  H5  6P4 d   1      20.929  18.275  20.808  0.00  0.00     0.089 H 
ATOM     20  H6  6P4 d   1      17.537  15.571  15.369  0.00  0.00     0.189 HD
ENDROOT
BRANCH   9  21
ATOM     21  C12 6P4 d   1      16.969  17.612  17.222  0.00  0.00    -0.033 C 
ATOM     22  H7  6P4 d   1      16.818  18.670  17.482  0.00  0.00     0.035 H 
ATOM     23  H8  6P4 d   1      16.057  17.044  17.457  0.00  0.00     0.035 H 
ATOM     24  H9  6P4 d   1      17.188  17.526  16.148  0.00  0.00     0.035 H 
ENDBRANCH   9  21
BRANCH  12  25
ATOM     25  C14 6P4 d   1      22.502  13.904  20.611  0.00  0.00    -0.050 C 
ATOM     26  H10 6P4 d   1      23.200  14.319  21.353  0.00  0.00     0.033 H 
ATOM     27  H11 6P4 d   1      23.067  13.543  19.739  0.00  0.00     0.033 H 
ATOM     28  H12 6P4 d   1      21.945  13.068  21.059  0.00  0.00     0.033 H 
ENDBRANCH  12  25
TORSDOF 2
