REMARK  15 active torsions:
REMARK  status: ('A' for Active; 'I' for Inactive)
REMARK    1  A    between atoms: C7_4  and  C4_19 
REMARK    2  A    between atoms: S8_20  and  C7_4 
REMARK    3  A    between atoms: C13_6  and  C12_5 
REMARK    4  A    between atoms: C12_5  and  C30_14 
REMARK    5  A    between atoms: C12_5  and  N11_21 
REMARK       I    between atoms: N15_26  and  C13_6 
REMARK    6  A    between atoms: C16_7  and  N15_26 
REMARK    7  A    between atoms: C17_27  and  C16_7 
REMARK    8  A    between atoms: C20_8  and  C21_9 
REMARK    9  A    between atoms: N19_28  and  C20_8 
REMARK   10  A    between atoms: C24_11  and  C27_12 
REMARK   11  A    between atoms: C27_12  and  N29_13 
REMARK   12  A    between atoms: C30_14  and  O31_22 
REMARK   13  A    between atoms: C32_15  and  C33_16 
REMARK   14  A    between atoms: O31_22  and  C32_15 
REMARK   15  A    between atoms: N11_21  and  S8_20 
REMARK       I    between atoms: C17_27  and  N19_28 
ROOT
ATOM      1  C12 6PK d   1       5.571   4.838  19.974  0.00  0.00     0.117 C 
ATOM      2  H6  6PK d   1       4.789   5.462  19.516  0.00  0.00     0.091 H 
ENDROOT
BRANCH   1   3
ATOM      3  C13 6PK d   1       6.856   5.613  20.004  0.00  0.00     0.243 C 
ATOM      4  N15 6PK d   1       7.087   6.663  19.092  0.00  0.00    -0.350 N 
ATOM      5  H24 6PK d   1       6.420   6.907  18.388  0.00  0.00     0.163 HD
ATOM      6  O14 6PK d   1       7.656   5.298  20.877  0.00  0.00    -0.271 OA
BRANCH   4   7
ATOM      7  C16 6PK d   1       8.373   7.385  19.234  0.00  0.00     0.069 C 
ATOM      8  H7  6PK d   1       8.587   7.955  18.318  0.00  0.00     0.078 H 
ATOM      9  H8  6PK d   1       9.188   6.669  19.419  0.00  0.00     0.078 H 
BRANCH   7  10
ATOM     10  C17 6PK d   1       8.234   8.336  20.420  0.00  0.00     0.235 C 
ATOM     11  N19 6PK d   1       9.263   9.105  20.831  0.00  0.00    -0.355 N 
ATOM     12  H25 6PK d   1      10.140   9.089  20.351  0.00  0.00     0.162 HD
ATOM     13  O18 6PK d   1       7.150   8.360  20.999  0.00  0.00    -0.272 OA
BRANCH  11  14
ATOM     14  C20 6PK d   1       9.058   9.977  22.016  0.00  0.00     0.019 C 
ATOM     15  H9  6PK d   1       9.730  10.845  21.954  0.00  0.00     0.071 H 
ATOM     16  H10 6PK d   1       8.014  10.322  22.041  0.00  0.00     0.071 H 
BRANCH  14  17
ATOM     17  C21 6PK d   1       9.371   9.168  23.313  0.00  0.00    -0.040 A 
ATOM     18  C22 6PK d   1      10.633   9.364  23.974  0.00  0.00    -0.074 A 
ATOM     19  C23 6PK d   1      10.949   8.629  25.171  0.00  0.00    -0.069 A 
ATOM     20  H11 6PK d   1      11.350  10.069  23.569  0.00  0.00     0.084 H 
ATOM     21  C24 6PK d   1      10.008   7.678  25.738  0.00  0.00     0.007 A 
ATOM     22  H30 6PK d   1      11.905   8.788  25.657  0.00  0.00     0.085 H 
ATOM     23  C25 6PK d   1       8.738   7.477  25.079  0.00  0.00    -0.069 A 
ATOM     24  C26 6PK d   1       8.420   8.210  23.882  0.00  0.00    -0.074 A 
ATOM     25  H27 6PK d   1       8.023   6.772  25.487  0.00  0.00     0.085 H 
ATOM     26  H26 6PK d   1       7.465   8.051  23.395  0.00  0.00     0.084 H 
BRANCH  21  27
ATOM     27  C27 6PK d   1      10.369   6.926  26.995  0.00  0.00     0.102 C 
ATOM     28  N28 6PK d   1      11.590   6.933  27.410  0.00  0.00    -0.385 N 
ATOM     29  H28 6PK d   1      12.311   7.444  26.881  0.00  0.00     0.157 HD
ATOM     30  H29 6PK d   1      11.844   6.428  28.271  0.00  0.00     0.157 HD
BRANCH  27  31
ATOM     31  N29 6PK d   1       9.438   6.264  27.683  0.00  0.00    -0.385 N 
ATOM     32  H12 6PK d   1       9.696   5.754  28.540  0.00  0.00     0.157 HD
ATOM     33  H13 6PK d   1       8.461   6.263  27.358  0.00  0.00     0.157 HD
ENDBRANCH  27  31
ENDBRANCH  21  27
ENDBRANCH  14  17
ENDBRANCH  11  14
ENDBRANCH   7  10
ENDBRANCH   4   7
ENDBRANCH   1   3
BRANCH   1  34
ATOM     34  C30 6PK d   1       5.641   3.484  19.230  0.00  0.00     0.047 C 
ATOM     35  H14 6PK d   1       6.031   3.640  18.213  0.00  0.00     0.078 H 
ATOM     36  H15 6PK d   1       4.636   3.041  19.173  0.00  0.00     0.078 H 
BRANCH  34  37
ATOM     37  O31 6PK d   1       6.526   2.594  19.961  0.00  0.00    -0.384 OA
BRANCH  37  38
ATOM     38  C32 6PK d   1       6.634   1.271  19.389  0.00  0.00     0.043 C 
ATOM     39  H16 6PK d   1       6.897   0.578  20.202  0.00  0.00     0.081 H 
ATOM     40  H17 6PK d   1       5.647   1.003  18.984  0.00  0.00     0.081 H 
BRANCH  38  41
ATOM     41  C33 6PK d   1       7.664   1.080  18.266  0.00  0.00    -0.035 A 
ATOM     42  C34 6PK d   1       7.171   0.918  16.907  0.00  0.00    -0.075 A 
ATOM     43  C35 6PK d   1       8.086   0.723  15.814  0.00  0.00    -0.082 A 
ATOM     44  H18 6PK d   1       6.104   0.945  16.716  0.00  0.00     0.084 H 
ATOM     45  C36 6PK d   1       9.499   0.687  16.073  0.00  0.00    -0.083 A 
ATOM     46  H19 6PK d   1       7.713   0.604  14.803  0.00  0.00     0.083 H 
ATOM     47  C37 6PK d   1      10.003   0.848  17.428  0.00  0.00    -0.082 A 
ATOM     48  H23 6PK d   1      10.193   0.539  15.254  0.00  0.00     0.083 H 
ATOM     49  C38 6PK d   1       9.085   1.043  18.521  0.00  0.00    -0.075 A 
ATOM     50  H22 6PK d   1      11.070   0.821  17.616  0.00  0.00     0.083 H 
ATOM     51  H21 6PK d   1       9.460   1.161  19.531  0.00  0.00     0.084 H 
ENDBRANCH  38  41
ENDBRANCH  37  38
ENDBRANCH  34  37
ENDBRANCH   1  34
BRANCH   1  52
ATOM     52  N11 6PK d   1       5.224   4.505  21.380  0.00  0.00    -0.303 N 
ATOM     53  H20 6PK d   1       5.659   3.699  21.782  0.00  0.00     0.173 HD
BRANCH  52  54
ATOM     54  S8  6PK d   1       4.179   5.357  22.333  0.00  0.00     0.231 S 
ATOM     55  O10 6PK d   1       2.979   5.590  21.553  0.00  0.00    -0.206 OA
ATOM     56  O9  6PK d   1       4.095   4.703  23.629  0.00  0.00    -0.206 OA
BRANCH  54  57
ATOM     57  C7  6PK d   1       5.022   6.943  22.601  0.00  0.00     0.070 C 
ATOM     58  H4  6PK d   1       5.984   6.742  23.096  0.00  0.00     0.066 H 
ATOM     59  H5  6PK d   1       5.204   7.406  21.620  0.00  0.00     0.066 H 
BRANCH  57  60
ATOM     60  C4  6PK d   1       4.235   7.943  23.466  0.00  0.00    -0.043 A 
ATOM     61  C3  6PK d   1       4.301   7.876  24.910  0.00  0.00    -0.076 A 
ATOM     62  C2  6PK d   1       3.558   8.815  25.721  0.00  0.00    -0.082 A 
ATOM     63  H3  6PK d   1       4.911   7.117  25.387  0.00  0.00     0.084 H 
ATOM     64  C1  6PK d   1       2.743   9.828  25.083  0.00  0.00    -0.083 A 
ATOM     65  H2  6PK d   1       3.611   8.761  26.802  0.00  0.00     0.083 H 
ATOM     66  C6  6PK d   1       2.677   9.898  23.637  0.00  0.00    -0.082 A 
ATOM     67  H1  6PK d   1       2.183  10.533  25.686  0.00  0.00     0.083 H 
ATOM     68  C5  6PK d   1       3.422   8.958  22.839  0.00  0.00    -0.076 A 
ATOM     69  H32 6PK d   1       2.068  10.656  23.157  0.00  0.00     0.083 H 
ATOM     70  H31 6PK d   1       3.372   9.013  21.758  0.00  0.00     0.084 H 
ENDBRANCH  57  60
ENDBRANCH  54  57
ENDBRANCH  52  54
ENDBRANCH   1  52
TORSDOF 15
