REMARK  8 active torsions:
REMARK  status: ('A' for Active; 'I' for Inactive)
REMARK    1  A    between atoms: N1_1  and  C17_11 
REMARK    2  A    between atoms: N3_2  and  S_30 
REMARK    3  A    between atoms: C6_5  and  C5_4 
REMARK    4  A    between atoms: C2_22  and  N_23 
REMARK    5  A    between atoms: N_23  and  C1_24 
REMARK    6  A    between atoms: N_23  and  C_25 
REMARK    7  A    between atoms: C9_27  and  N2_28 
REMARK    8  A    between atoms: S_30  and  C16_32 
ROOT
ATOM      1  N1  6PU d   1     -15.474 -24.634  22.401  0.00  0.00    -0.060 N 
ATOM      2  C4  6PU d   1     -16.228 -23.438  22.793  0.00  0.00     0.093 C 
ATOM      3  C5  6PU d   1     -17.503 -23.989  23.439  0.00  0.00     0.024 C 
ATOM      4  C3  6PU d   1     -16.519 -25.399  21.700  0.00  0.00     0.111 C 
ATOM      5  C2  6PU d   1     -17.690 -25.341  22.675  0.00  0.00     0.135 C 
ATOM      6  H1  6PU d   1     -15.175 -25.138  23.221  0.00  0.00     0.280 HD
ATOM      7  H2  6PU d   1     -16.471 -22.825  21.913  0.00  0.00     0.077 H 
ATOM      8  H3  6PU d   1     -15.655 -22.835  23.513  0.00  0.00     0.077 H 
ATOM      9  H4  6PU d   1     -18.350 -23.318  23.233  0.00  0.00     0.053 H 
ATOM     10  H20 6PU d   1     -16.200 -26.437  21.525  0.00  0.00     0.079 H 
ATOM     11  H21 6PU d   1     -16.779 -24.928  20.740  0.00  0.00     0.079 H 
ATOM     12  H22 6PU d   1     -17.603 -26.175  23.386  0.00  0.00     0.088 H 
ENDROOT
BRANCH   3  13
ATOM     13  C6  6PU d   1     -17.400 -24.157  24.943  0.00  0.00    -0.050 A 
ATOM     14  C7  6PU d   1     -16.503 -25.059  25.501  0.00  0.00    -0.075 A 
ATOM     15  C8  6PU d   1     -16.389 -25.203  26.870  0.00  0.00    -0.062 A 
ATOM     16  H5  6PU d   1     -15.880 -25.662  24.849  0.00  0.00     0.084 H 
ATOM     17  C9  6PU d   1     -17.161 -24.425  27.736  0.00  0.00     0.010 A 
ATOM     18  H6  6PU d   1     -15.693 -25.928  27.277  0.00  0.00     0.086 H 
ATOM     19  C10 6PU d   1     -18.068 -23.518  27.173  0.00  0.00    -0.062 A 
ATOM     20  C11 6PU d   1     -18.186 -23.401  25.798  0.00  0.00    -0.075 A 
ATOM     21  H7  6PU d   1     -18.683 -22.902  27.819  0.00  0.00     0.086 H 
ATOM     22  H30 6PU d   1     -18.906 -22.705  25.383  0.00  0.00     0.084 H 
BRANCH  17  23
ATOM     23  N2  6PU d   1     -16.988 -24.523  29.136  0.00  0.00    -0.280 NA
ATOM     24  C15 6PU d   1     -15.607 -24.395  29.599  0.00  0.00    -0.001 C 
ATOM     25  C14 6PU d   1     -15.458 -25.002  30.968  0.00  0.00     0.016 C 
ATOM     26  H10 6PU d   1     -15.336 -23.330  29.643  0.00  0.00     0.058 H 
ATOM     27  H11 6PU d   1     -14.939 -24.915  28.897  0.00  0.00     0.058 H 
ATOM     28  N3  6PU d   1     -16.366 -24.334  31.921  0.00  0.00    -0.309 N 
ATOM     29  H31 6PU d   1     -15.705 -26.073  30.920  0.00  0.00     0.067 H 
ATOM     30  H32 6PU d   1     -14.419 -24.880  31.309  0.00  0.00     0.067 H 
ATOM     31  C13 6PU d   1     -17.765 -24.249  31.450  0.00  0.00     0.016 C 
ATOM     32  C12 6PU d   1     -17.822 -23.718  30.031  0.00  0.00    -0.001 C 
ATOM     33  H8  6PU d   1     -18.328 -23.574  32.111  0.00  0.00     0.067 H 
ATOM     34  H9  6PU d   1     -18.217 -25.251  31.479  0.00  0.00     0.067 H 
ATOM     35  H36 6PU d   1     -17.462 -22.679  30.021  0.00  0.00     0.058 H 
ATOM     36  H37 6PU d   1     -18.863 -23.748  29.677  0.00  0.00     0.058 H 
BRANCH  28  37
ATOM     37  S   6PU d   1     -16.031 -23.998  33.484  0.00  0.00     0.224 S 
ATOM     38  O1  6PU d   1     -16.353 -25.174  34.226  0.00  0.00    -0.206 OA
ATOM     39  O   6PU d   1     -16.705 -22.782  33.804  0.00  0.00    -0.206 OA
BRANCH  37  40
ATOM     40  C16 6PU d   1     -14.308 -23.726  33.619  0.00  0.00     0.032 C 
ATOM     41  H33 6PU d   1     -14.054 -23.497  34.664  0.00  0.00     0.051 H 
ATOM     42  H34 6PU d   1     -14.019 -22.880  32.978  0.00  0.00     0.051 H 
ATOM     43  H35 6PU d   1     -13.768 -24.630  33.300  0.00  0.00     0.051 H 
ENDBRANCH  37  40
ENDBRANCH  28  37
ENDBRANCH  17  23
ENDBRANCH   3  13
BRANCH   5  44
ATOM     44  N   6PU d   1     -19.017 -25.443  22.035  0.00  0.00    -0.072 N 
ATOM     45  H23 6PU d   1     -19.135 -24.597  21.500  0.00  0.00     0.279 HD
BRANCH  44  46
ATOM     46  C1  6PU d   1     -19.134 -26.552  21.083  0.00  0.00     0.066 C 
ATOM     47  H24 6PU d   1     -20.146 -26.560  20.652  0.00  0.00     0.068 H 
ATOM     48  H25 6PU d   1     -18.950 -27.503  21.604  0.00  0.00     0.068 H 
ATOM     49  H26 6PU d   1     -18.394 -26.425  20.279  0.00  0.00     0.068 H 
ENDBRANCH  44  46
BRANCH  44  50
ATOM     50  C   6PU d   1     -20.110 -25.472  23.023  0.00  0.00     0.066 C 
ATOM     51  H27 6PU d   1     -19.995 -24.630  23.722  0.00  0.00     0.068 H 
ATOM     52  H28 6PU d   1     -20.075 -26.419  23.581  0.00  0.00     0.068 H 
ATOM     53  H29 6PU d   1     -21.076 -25.388  22.504  0.00  0.00     0.068 H 
ENDBRANCH  44  50
ENDBRANCH   5  44
BRANCH   1  54
ATOM     54  C17 6PU d   1     -14.263 -24.342  21.600  0.00  0.00     0.133 C 
ATOM     55  C25 6PU d   1     -13.549 -25.612  21.205  0.00  0.00     0.017 A 
ATOM     56  C20 6PU d   1     -12.482 -25.844  22.075  0.00  0.00    -0.047 A 
ATOM     57  C24 6PU d   1     -13.762 -26.561  20.217  0.00  0.00     0.125 A 
ATOM     58  C21 6PU d   1     -11.706 -26.993  21.951  0.00  0.00    -0.076 A 
ATOM     59  C19 6PU d   1     -12.337 -24.698  23.039  0.00  0.00    -0.038 C 
ATOM     60  C22 6PU d   1     -11.961 -27.910  20.944  0.00  0.00    -0.080 A 
ATOM     61  H13 6PU d   1     -10.895 -27.172  22.648  0.00  0.00     0.084 H 
ATOM     62  C23 6PU d   1     -13.001 -27.692  20.060  0.00  0.00    -0.045 A 
ATOM     63  H14 6PU d   1     -11.346 -28.797  20.850  0.00  0.00     0.083 H 
ATOM     64  H15 6PU d   1     -13.210 -28.396  19.263  0.00  0.00     0.088 H 
ATOM     65  C18 6PU d   1     -13.152 -23.593  22.354  0.00  0.00    -0.030 C 
ATOM     66  H16 6PU d   1     -11.283 -24.404  23.153  0.00  0.00     0.040 H 
ATOM     67  H17 6PU d   1     -12.756 -24.950  24.024  0.00  0.00     0.040 H 
ATOM     68  H18 6PU d   1     -13.582 -22.909  23.100  0.00  0.00     0.036 H 
ATOM     69  H19 6PU d   1     -12.523 -23.024  21.654  0.00  0.00     0.036 H 
ATOM     70  F   6PU d   1     -14.802 -26.373  19.380  0.00  0.00    -0.205 F 
ATOM     71  H12 6PU d   1     -14.568 -23.771  20.711  0.00  0.00     0.092 H 
ENDBRANCH   1  54
TORSDOF 8
