REMARK  7 active torsions:
REMARK  status: ('A' for Active; 'I' for Inactive)
REMARK    1  A    between atoms: P_1  and  O5'_5 
REMARK    2  A    between atoms: O5'_5  and  C5'_6 
REMARK    3  A    between atoms: C5'_6  and  C4'_7 
REMARK    4  A    between atoms: C3'_9  and  O3'_10 
REMARK    5  A    between atoms: C2'_11  and  O2'_12 
REMARK    6  A    between atoms: C1'_13  and  N9_14 
REMARK    7  A    between atoms: C2_21  and  N2_22 
ROOT
ATOM      1  C4' 5GP d   1      -1.922   0.404  21.747  0.00  0.00     0.089 C 
ATOM      2  O4' 5GP d   1      -2.288  -1.001  21.645  0.00  0.00    -0.353 OA
ATOM      3  C3' 5GP d   1      -0.478   0.440  22.254  0.00  0.00     0.091 C 
ATOM      4  C2' 5GP d   1       0.034  -0.966  21.930  0.00  0.00     0.105 C 
ATOM      5  C1' 5GP d   1      -1.227  -1.800  22.134  0.00  0.00     0.139 C 
ATOM      6  H3  5GP d   1      -2.563   0.897  22.493  0.00  0.00     0.090 H 
ATOM      7  H4  5GP d   1       0.116   1.218  21.752  0.00  0.00     0.091 H 
ATOM      8  H6  5GP d   1       0.369  -1.016  20.883  0.00  0.00     0.093 H 
ATOM      9  H8  5GP d   1      -1.357  -1.998  23.208  0.00  0.00     0.122 H 
ENDROOT
BRANCH   5  10
ATOM     10  N9  5GP d   1      -1.249  -3.083  21.417  0.00  0.00    -0.295 N 
ATOM     11  C8  5GP d   1      -0.773  -3.322  20.183  0.00  0.00     0.071 A 
ATOM     12  N7  5GP d   1      -0.987  -4.619  19.870  0.00  0.00    -0.234 NA
ATOM     13  H9  5GP d   1      -0.292  -2.588  19.538  0.00  0.00     0.144 H 
ATOM     14  C5  5GP d   1      -1.606  -5.200  20.923  0.00  0.00     0.171 A 
ATOM     15  C6  5GP d   1      -2.073  -6.494  21.169  0.00  0.00     0.292 A 
ATOM     16  C4  5GP d   1      -1.780  -4.220  21.890  0.00  0.00     0.161 A 
ATOM     17  O6  5GP d   1      -1.932  -7.394  20.305  0.00  0.00    -0.265 OA
ATOM     18  N1  5GP d   1      -2.675  -6.769  22.340  0.00  0.00    -0.154 N 
ATOM     19  C2  5GP d   1      -2.830  -5.814  23.277  0.00  0.00     0.680 A 
ATOM     20  H10 5GP d   1      -3.012  -7.694  22.517  0.00  0.00     0.187 HD
ATOM     21  N3  5GP d   1      -2.384  -4.546  23.065  0.00  0.00    -0.174 N 
ATOM     22  H13 5GP d   1      -2.504  -3.831  23.796  0.00  0.00     0.186 HD
BRANCH  19  23
ATOM     23  N2  5GP d   1      -3.434  -6.126  24.452  0.00  0.00    -0.234 N 
ATOM     24  H11 5GP d   1      -3.558  -5.403  25.175  0.00  0.00     0.174 HD
ATOM     25  H12 5GP d   1      -3.769  -7.085  24.620  0.00  0.00     0.174 HD
ENDBRANCH  19  23
ENDBRANCH   5  10
BRANCH   4  26
ATOM     26  O2' 5GP d   1       1.094  -1.404  22.753  0.00  0.00    -0.388 OA
ATOM     27  H7  5GP d   1       0.807  -1.415  23.659  0.00  0.00     0.210 HD
ENDBRANCH   4  26
BRANCH   1  28
ATOM     28  C5' 5GP d   1      -2.156   1.084  20.416  0.00  0.00     0.059 C 
ATOM     29  H1  5GP d   1      -3.150   0.794  20.044  0.00  0.00     0.079 H 
ATOM     30  H2  5GP d   1      -2.124   2.173  20.568  0.00  0.00     0.079 H 
BRANCH  28  31
ATOM     31  O5' 5GP d   1      -1.183   0.733  19.435  0.00  0.00    -0.280 OA
BRANCH  31  32
ATOM     32  P   5GP d   1      -0.649   1.822  18.392  0.00  0.00     0.422 P 
ATOM     33  O1P 5GP d   1       0.293   1.012  17.502  0.00  0.00    -0.617 OA
ATOM     34  O2P 5GP d   1      -0.016   2.876  19.269  0.00  0.00    -0.617 OA
ATOM     35  O3P 5GP d   1      -1.893   2.370  17.725  0.00  0.00    -0.617 OA
ENDBRANCH  31  32
ENDBRANCH  28  31
ENDBRANCH   1  28
BRANCH   3  36
ATOM     36  O3' 5GP d   1      -0.478   0.643  23.667  0.00  0.00    -0.390 OA
ATOM     37  H5  5GP d   1       0.418   0.665  23.983  0.00  0.00     0.210 HD
ENDBRANCH   3  36
TORSDOF 7
