REMARK  6 active torsions:
REMARK  status: ('A' for Active; 'I' for Inactive)
REMARK    1  A    between atoms: P_1  and  O5'_5 
REMARK    2  A    between atoms: O5'_5  and  C5'_6 
REMARK    3  A    between atoms: C5'_6  and  C4'_7 
REMARK    4  A    between atoms: C3'_9  and  O3'_10 
REMARK    5  A    between atoms: C2'_11  and  O2'_12 
REMARK    6  A    between atoms: C1'_13  and  N9_14 
ROOT
ATOM      1  C4' IMP d   1      -1.997   0.166  21.787  0.00  0.00     0.089 C 
ATOM      2  O4' IMP d   1      -2.311  -1.248  21.622  0.00  0.00    -0.353 OA
ATOM      3  C3' IMP d   1      -0.572   0.222  22.349  0.00  0.00     0.091 C 
ATOM      4  C2' IMP d   1       0.003  -1.132  21.937  0.00  0.00     0.105 C 
ATOM      5  C1' IMP d   1      -1.225  -2.027  22.091  0.00  0.00     0.139 C 
ATOM      6  H3  IMP d   1      -2.679   0.609  22.528  0.00  0.00     0.090 H 
ATOM      7  H4  IMP d   1       0.007   1.062  21.938  0.00  0.00     0.091 H 
ATOM      8  H6  IMP d   1       0.324  -1.097  20.886  0.00  0.00     0.093 H 
ATOM      9  H8  IMP d   1      -1.362  -2.281  23.152  0.00  0.00     0.122 H 
ENDROOT
BRANCH   5  10
ATOM     10  N9  IMP d   1      -1.165  -3.268  21.315  0.00  0.00    -0.294 N 
ATOM     11  C8  IMP d   1      -0.600  -3.448  20.076  0.00  0.00     0.071 A 
ATOM     12  N7  IMP d   1      -0.767  -4.739  19.713  0.00  0.00    -0.234 NA
ATOM     13  H9  IMP d   1      -0.102  -2.680  19.486  0.00  0.00     0.144 H 
ATOM     14  C5  IMP d   1      -1.437  -5.384  20.701  0.00  0.00     0.172 A 
ATOM     15  C6  IMP d   1      -1.872  -6.703  20.845  0.00  0.00     0.279 A 
ATOM     16  C4  IMP d   1      -1.700  -4.466  21.716  0.00  0.00     0.169 A 
ATOM     17  O6  IMP d   1      -1.552  -7.555  20.008  0.00  0.00    -0.265 OA
ATOM     18  N1  IMP d   1      -2.555  -7.069  21.996  0.00  0.00    -0.316 N 
ATOM     19  C2  IMP d   1      -2.805  -6.139  22.989  0.00  0.00     0.069 A 
ATOM     20  H10 IMP d   1      -2.869  -8.012  22.108  0.00  0.00     0.170 HD
ATOM     21  N3  IMP d   1      -2.371  -4.834  22.843  0.00  0.00    -0.223 NA
ATOM     22  H11 IMP d   1      -3.345  -6.435  23.887  0.00  0.00     0.143 H 
ENDBRANCH   5  10
BRANCH   4  23
ATOM     23  O2' IMP d   1       1.104  -1.584  22.708  0.00  0.00    -0.388 OA
ATOM     24  H7  IMP d   1       0.840  -1.668  23.616  0.00  0.00     0.210 HD
ENDBRANCH   4  23
BRANCH   1  25
ATOM     25  C5' IMP d   1      -2.208   0.894  20.477  0.00  0.00     0.059 C 
ATOM     26  H1  IMP d   1      -3.163   0.569  20.038  0.00  0.00     0.079 H 
ATOM     27  H2  IMP d   1      -2.244   1.976  20.672  0.00  0.00     0.079 H 
BRANCH  25  28
ATOM     28  O5' IMP d   1      -1.159   0.627  19.549  0.00  0.00    -0.280 OA
BRANCH  28  29
ATOM     29  P   IMP d   1      -0.681   1.738  18.510  0.00  0.00     0.422 P 
ATOM     30  O1P IMP d   1      -1.886   2.206  17.713  0.00  0.00    -0.617 OA
ATOM     31  O2P IMP d   1      -0.035   2.797  19.373  0.00  0.00    -0.617 OA
ATOM     32  O3P IMP d   1       0.354   1.061  17.609  0.00  0.00    -0.617 OA
ENDBRANCH  28  29
ENDBRANCH  25  28
ENDBRANCH   1  25
BRANCH   3  33
ATOM     33  O3' IMP d   1      -0.639   0.296  23.772  0.00  0.00    -0.390 OA
ATOM     34  H5  IMP d   1       0.241   0.331  24.128  0.00  0.00     0.210 HD
ENDBRANCH   3  33
TORSDOF 6
