REMARK  3 active torsions:
REMARK  status: ('A' for Active; 'I' for Inactive)
REMARK    1  A    between atoms: C2'_10  and  O2'_11 
REMARK    2  A    between atoms: C1'_12  and  N9_13 
REMARK    3  A    between atoms: C6_17  and  N6_18 
ROOT
ATOM      1  P   CMP d   1      19.460 -18.076 -18.142  0.00  0.00     0.408 P 
ATOM      2  O1P CMP d   1      19.311 -16.786 -18.974  0.00  0.00    -0.624 OA
ATOM      3  O2P CMP d   1      20.804 -18.529 -17.754  0.00  0.00    -0.624 OA
ATOM      4  O5' CMP d   1      18.759 -19.301 -18.896  0.00  0.00    -0.287 OA
ATOM      5  C5' CMP d   1      18.455 -20.512 -18.193  0.00  0.00     0.058 C 
ATOM      6  C4' CMP d   1      17.686 -20.118 -16.977  0.00  0.00     0.090 C 
ATOM      7  O4' CMP d   1      17.452 -21.173 -16.038  0.00  0.00    -0.353 OA
ATOM      8  C3' CMP d   1      18.367 -19.096 -16.123  0.00  0.00     0.106 C 
ATOM      9  O3' CMP d   1      18.518 -17.852 -16.797  0.00  0.00    -0.279 OA
ATOM     10  C2' CMP d   1      17.473 -19.089 -14.884  0.00  0.00     0.106 C 
ATOM     11  C1' CMP d   1      16.997 -20.561 -14.853  0.00  0.00     0.140 C 
ATOM     12  H1  CMP d   1      19.383 -21.027 -17.904  0.00  0.00     0.079 H 
ATOM     13  H2  CMP d   1      17.849 -21.177 -18.826  0.00  0.00     0.079 H 
ATOM     14  H3  CMP d   1      16.721 -19.721 -17.325  0.00  0.00     0.090 H 
ATOM     15  H4  CMP d   1      19.373 -19.442 -15.844  0.00  0.00     0.092 H 
ATOM     16  H5  CMP d   1      18.012 -18.787 -13.974  0.00  0.00     0.093 H 
ATOM     17  H7  CMP d   1      15.897 -20.569 -14.842  0.00  0.00     0.122 H 
ENDROOT
BRANCH  11  18
ATOM     18  N9  CMP d   1      17.463 -21.320 -13.682  0.00  0.00    -0.294 N 
ATOM     19  C8  CMP d   1      16.682 -22.114 -12.903  0.00  0.00     0.071 A 
ATOM     20  N7  CMP d   1      17.428 -22.663 -11.933  0.00  0.00    -0.236 NA
ATOM     21  H8  CMP d   1      15.615 -22.279 -13.045  0.00  0.00     0.144 H 
ATOM     22  C5  CMP d   1      18.691 -22.198 -12.118  0.00  0.00     0.149 A 
ATOM     23  C6  CMP d   1      19.822 -22.448 -11.388  0.00  0.00     0.155 A 
ATOM     24  C4  CMP d   1      18.729 -21.373 -13.195  0.00  0.00     0.167 A 
ATOM     25  N1  CMP d   1      20.988 -21.874 -11.751  0.00  0.00    -0.222 NA
ATOM     26  C2  CMP d   1      21.004 -21.049 -12.850  0.00  0.00     0.091 A 
ATOM     27  N3  CMP d   1      19.885 -20.774 -13.589  0.00  0.00    -0.222 NA
ATOM     28  H11 CMP d   1      21.944 -20.596 -13.145  0.00  0.00     0.146 H 
BRANCH  23  29
ATOM     29  N6  CMP d   1      20.001 -23.266 -10.245  0.00  0.00    -0.382 N 
ATOM     30  H9  CMP d   1      20.931 -23.346  -9.810  0.00  0.00     0.157 HD
ATOM     31  H10 CMP d   1      19.201 -23.780  -9.849  0.00  0.00     0.157 HD
ENDBRANCH  23  29
ENDBRANCH  11  18
BRANCH  10  32
ATOM     32  O2' CMP d   1      16.330 -18.273 -15.104  0.00  0.00    -0.388 OA
ATOM     33  H6  CMP d   1      16.608 -17.384 -15.291  0.00  0.00     0.210 HD
ENDBRANCH  10  32
TORSDOF 3
