REMARK  3 active torsions:
REMARK  status: ('A' for Active; 'I' for Inactive)
REMARK    1  A    between atoms: C14_8  and  N19_13 
REMARK    2  A    between atoms: C15_9  and  C16_10 
REMARK       I    between atoms: N19_13  and  C20_14 
REMARK    3  A    between atoms: C20_14  and  C21_15 
ROOT
ATOM      1  N1  OTA d   1       6.952 117.698  -6.567  0.00  0.00    -0.070 N 
ATOM      2  C2  OTA d   1       6.880 118.287  -5.248  0.00  0.00     0.112 C 
ATOM      3  C3  OTA d   1       5.506 118.725  -4.759  0.00  0.00     0.018 A 
ATOM      4  C4  OTA d   1       4.401 118.215  -5.512  0.00  0.00    -0.022 A 
ATOM      5  C5  OTA d   1       4.565 117.322  -6.683  0.00  0.00    -0.016 C 
ATOM      6  C6  OTA d   1       5.905 116.720  -6.852  0.00  0.00     0.086 C 
ATOM      7  S13 OTA d   1       5.009 119.653  -3.585  0.00  0.00    -0.073 SA
ATOM      8  C14 OTA d   1       3.451 119.573  -3.769  0.00  0.00     0.095 A 
ATOM      9  C15 OTA d   1       3.098 118.762  -4.859  0.00  0.00     0.082 A 
ATOM     10  H1  OTA d   1       7.845 117.239  -6.659  0.00  0.00     0.277 HD
ATOM     11  H2  OTA d   1       6.884 118.439  -7.247  0.00  0.00     0.277 HD
ATOM     12  H3  OTA d   1       7.531 119.174  -5.245  0.00  0.00     0.084 H 
ATOM     13  H4  OTA d   1       7.266 117.546  -4.532  0.00  0.00     0.084 H 
ATOM     14  H5  OTA d   1       4.342 117.907  -7.587  0.00  0.00     0.042 H 
ATOM     15  H6  OTA d   1       3.837 116.503  -6.587  0.00  0.00     0.042 H 
ATOM     16  H7  OTA d   1       6.008 115.870  -6.162  0.00  0.00     0.076 H 
ATOM     17  H8  OTA d   1       6.014 116.367  -7.888  0.00  0.00     0.076 H 
ENDROOT
BRANCH   8  18
ATOM     18  N19 OTA d   1       2.396 120.152  -3.048  0.00  0.00    -0.311 N 
ATOM     19  C20 OTA d   1       2.593 121.003  -1.975  0.00  0.00     0.323 C 
ATOM     20  O24 OTA d   1       3.734 121.322  -1.566  0.00  0.00    -0.260 OA
ATOM     21  H9  OTA d   1       1.458 119.940  -3.322  0.00  0.00     0.170 HD
BRANCH  19  22
ATOM     22  C21 OTA d   1       1.299 121.491  -1.372  0.00  0.00     0.270 C 
ATOM     23  O22 OTA d   1       1.180 122.711  -0.994  0.00  0.00    -0.640 OA
ATOM     24  O23 OTA d   1       0.360 120.656  -1.292  0.00  0.00    -0.640 OA
ENDBRANCH  19  22
ENDBRANCH   8  18
BRANCH   9  25
ATOM     25  C16 OTA d   1       1.645 118.497  -5.353  0.00  0.00     0.212 C 
ATOM     26  O17 OTA d   1       0.669 118.816  -4.623  0.00  0.00    -0.644 OA
ATOM     27  O18 OTA d   1       1.476 117.993  -6.537  0.00  0.00    -0.644 OA
ENDBRANCH   9  25
TORSDOF 3
