REMARK  3 active torsions:
REMARK  status: ('A' for Active; 'I' for Inactive)
REMARK    1  A    between atoms: C14_8  and  N19_13 
REMARK    2  A    between atoms: C15_9  and  C16_10 
REMARK       I    between atoms: N19_13  and  C20_14 
REMARK    3  A    between atoms: C20_14  and  C21_15 
ROOT
ATOM      1  N1  OTA d   1      31.423 -30.580  -0.915  0.00  0.00    -0.070 N 
ATOM      2  C2  OTA d   1      31.591 -30.373  -2.338  0.00  0.00     0.112 C 
ATOM      3  C3  OTA d   1      32.995 -30.080  -2.854  0.00  0.00     0.018 A 
ATOM      4  C4  OTA d   1      34.063 -30.391  -1.952  0.00  0.00    -0.022 A 
ATOM      5  C5  OTA d   1      33.838 -30.985  -0.602  0.00  0.00    -0.016 C 
ATOM      6  C6  OTA d   1      32.458 -31.373  -0.239  0.00  0.00     0.086 C 
ATOM      7  S13 OTA d   1      33.557 -29.470  -4.198  0.00  0.00    -0.073 SA
ATOM      8  C14 OTA d   1      35.105 -29.492  -3.970  0.00  0.00     0.095 A 
ATOM      9  C15 OTA d   1      35.407 -30.005  -2.680  0.00  0.00     0.082 A 
ATOM     10  H1  OTA d   1      30.541 -31.047  -0.776  0.00  0.00     0.277 HD
ATOM     11  H2  OTA d   1      31.396 -29.673  -0.475  0.00  0.00     0.277 HD
ATOM     12  H3  OTA d   1      30.953 -29.523  -2.623  0.00  0.00     0.084 H 
ATOM     13  H4  OTA d   1      31.238 -31.283  -2.845  0.00  0.00     0.084 H 
ATOM     14  H5  OTA d   1      34.178 -30.248   0.141  0.00  0.00     0.042 H 
ATOM     15  H6  OTA d   1      34.461 -31.889  -0.533  0.00  0.00     0.042 H 
ATOM     16  H7  OTA d   1      32.314 -32.431  -0.505  0.00  0.00     0.076 H 
ATOM     17  H8  OTA d   1      32.337 -31.248   0.847  0.00  0.00     0.076 H 
ENDROOT
BRANCH   8  18
ATOM     18  N19 OTA d   1      36.168 -29.053  -4.798  0.00  0.00    -0.311 N 
ATOM     19  C20 OTA d   1      36.047 -28.594  -6.117  0.00  0.00     0.323 C 
ATOM     20  O24 OTA d   1      34.951 -28.572  -6.731  0.00  0.00    -0.260 OA
ATOM     21  H9  OTA d   1      37.088 -29.072  -4.406  0.00  0.00     0.170 HD
BRANCH  19  22
ATOM     22  C21 OTA d   1      37.342 -28.142  -6.759  0.00  0.00     0.270 C 
ATOM     23  O22 OTA d   1      38.382 -28.819  -6.542  0.00  0.00    -0.640 OA
ATOM     24  O23 OTA d   1      37.354 -27.064  -7.472  0.00  0.00    -0.640 OA
ENDBRANCH  19  22
ENDBRANCH   8  18
BRANCH   9  25
ATOM     25  C16 OTA d   1      36.844 -30.155  -2.087  0.00  0.00     0.212 C 
ATOM     26  O17 OTA d   1      37.010 -30.368  -0.812  0.00  0.00    -0.644 OA
ATOM     27  O18 OTA d   1      37.845 -30.041  -2.859  0.00  0.00    -0.644 OA
ENDBRANCH   9  25
TORSDOF 3
