REMARK  3 active torsions:
REMARK  status: ('A' for Active; 'I' for Inactive)
REMARK    1  A    between atoms: C14_8  and  N19_13 
REMARK    2  A    between atoms: C15_9  and  C16_10 
REMARK       I    between atoms: N19_13  and  C20_14 
REMARK    3  A    between atoms: C20_14  and  C21_15 
ROOT
ATOM      1  N1  OTA d   1      34.735 -11.192 -18.322  0.00  0.00    -0.272 NA
ATOM      2  C2  OTA d   1      33.723 -10.704 -17.425  0.00  0.00     0.019 C 
ATOM      3  C3  OTA d   1      32.601 -11.648 -17.005  0.00  0.00     0.036 A 
ATOM      4  C4  OTA d   1      32.470 -12.851 -17.762  0.00  0.00     0.004 A 
ATOM      5  C5  OTA d   1      33.367 -13.170 -18.897  0.00  0.00    -0.054 C 
ATOM      6  C6  OTA d   1      34.351 -12.158 -19.343  0.00  0.00     0.003 C 
ATOM      7  S13 OTA d   1      31.504 -11.588 -15.882  0.00  0.00    -0.069 SA
ATOM      8  C14 OTA d   1      30.715 -12.926 -16.068  0.00  0.00     0.095 A 
ATOM      9  C15 OTA d   1      31.264 -13.654 -17.166  0.00  0.00     0.086 A 
ATOM     10  H1  OTA d   1      33.757  -9.686 -17.055  0.00  0.00     0.116 H 
ATOM     11  H2  OTA d   1      33.304 -14.131 -19.394  0.00  0.00     0.087 H 
ATOM     12  H3  OTA d   1      34.754 -12.137 -20.349  0.00  0.00     0.114 H 
ENDROOT
BRANCH   8  13
ATOM     13  N19 OTA d   1      29.584 -13.404 -15.356  0.00  0.00    -0.311 N 
ATOM     14  C20 OTA d   1      29.081 -12.974 -14.115  0.00  0.00     0.323 C 
ATOM     15  O24 OTA d   1      29.620 -12.096 -13.376  0.00  0.00    -0.260 OA
ATOM     16  H4  OTA d   1      29.077 -14.146 -15.796  0.00  0.00     0.170 HD
BRANCH  14  17
ATOM     17  C21 OTA d   1      27.800 -13.677 -13.693  0.00  0.00     0.270 C 
ATOM     18  O22 OTA d   1      26.797 -12.904 -13.398  0.00  0.00    -0.640 OA
ATOM     19  O23 OTA d   1      27.746 -14.950 -13.675  0.00  0.00    -0.640 OA
ENDBRANCH  14  17
ENDBRANCH   8  13
BRANCH   9  20
ATOM     20  C16 OTA d   1      30.755 -15.022 -17.725  0.00  0.00     0.213 C 
ATOM     21  O17 OTA d   1      29.906 -15.679 -17.058  0.00  0.00    -0.644 OA
ATOM     22  O18 OTA d   1      31.191 -15.454 -18.883  0.00  0.00    -0.644 OA
ENDBRANCH   9  20
TORSDOF 3
