REMARK  3 active torsions:
REMARK  status: ('A' for Active; 'I' for Inactive)
REMARK    1  A    between atoms: C14_8  and  N19_13 
REMARK    2  A    between atoms: C15_9  and  C16_10 
REMARK       I    between atoms: N19_13  and  C20_14 
REMARK    3  A    between atoms: C20_14  and  C21_15 
ROOT
ATOM      1  N1  OTA d   1      59.661  30.331  10.722  0.00  0.00    -0.070 N 
ATOM      2  C2  OTA d   1      59.834  28.909  10.854  0.00  0.00     0.112 C 
ATOM      3  C3  OTA d   1      59.564  28.332  12.236  0.00  0.00     0.018 A 
ATOM      4  C4  OTA d   1      59.589  29.256  13.323  0.00  0.00    -0.022 A 
ATOM      5  C5  OTA d   1      59.855  30.702  13.135  0.00  0.00    -0.016 C 
ATOM      6  C6  OTA d   1      60.228  31.160  11.782  0.00  0.00     0.086 C 
ATOM      7  S13 OTA d   1      59.246  26.894  12.761  0.00  0.00    -0.073 SA
ATOM      8  C14 OTA d   1      59.086  27.090  14.294  0.00  0.00     0.095 A 
ATOM      9  C15 OTA d   1      59.280  28.441  14.628  0.00  0.00     0.082 A 
ATOM     10  H1  OTA d   1      58.671  30.517  10.685  0.00  0.00     0.277 HD
ATOM     11  H2  OTA d   1      60.088  30.612   9.853  0.00  0.00     0.277 HD
ATOM     12  H3  OTA d   1      60.874  28.670  10.586  0.00  0.00     0.084 H 
ATOM     13  H4  OTA d   1      59.151  28.419  10.145  0.00  0.00     0.084 H 
ATOM     14  H5  OTA d   1      60.677  30.976  13.813  0.00  0.00     0.042 H 
ATOM     15  H6  OTA d   1      58.943  31.244  13.426  0.00  0.00     0.042 H 
ATOM     16  H7  OTA d   1      59.869  32.191  11.650  0.00  0.00     0.076 H 
ATOM     17  H8  OTA d   1      61.324  31.139  11.695  0.00  0.00     0.076 H 
ENDROOT
BRANCH   8  18
ATOM     18  N19 OTA d   1      58.814  26.177  15.339  0.00  0.00    -0.311 N 
ATOM     19  C20 OTA d   1      58.689  24.792  15.183  0.00  0.00     0.323 C 
ATOM     20  O24 OTA d   1      58.791  24.223  14.076  0.00  0.00    -0.260 OA
ATOM     21  H9  OTA d   1      58.702  26.550  16.260  0.00  0.00     0.170 HD
BRANCH  19  22
ATOM     22  C21 OTA d   1      58.415  24.049  16.467  0.00  0.00     0.270 C 
ATOM     23  O22 OTA d   1      57.676  24.634  17.340  0.00  0.00    -0.640 OA
ATOM     24  O23 OTA d   1      58.917  22.923  16.672  0.00  0.00    -0.640 OA
ENDBRANCH  19  22
ENDBRANCH   8  18
BRANCH   9  25
ATOM     25  C16 OTA d   1      59.208  28.986  16.080  0.00  0.00     0.212 C 
ATOM     26  O17 OTA d   1      58.777  28.206  16.977  0.00  0.00    -0.644 OA
ATOM     27  O18 OTA d   1      59.603  30.198  16.355  0.00  0.00    -0.644 OA
ENDBRANCH   9  25
TORSDOF 3
