REMARK  4 active torsions:
REMARK  status: ('A' for Active; 'I' for Inactive)
REMARK    1  A    between atoms: P_1  and  C1A_2 
REMARK    2  A    between atoms: P_1  and  C1C_8 
REMARK    3  A    between atoms: P_1  and  C1D_14 
REMARK    4  A    between atoms: C1B_25  and  P_1 
ROOT
ATOM      1  P   P4P d   1     -15.829 -13.126  -8.458  0.00  0.00    -0.019 P 
ENDROOT
BRANCH   1   2
ATOM      2  C1A P4P d   1     -14.544 -12.305  -9.445  0.00  0.00    -0.022 A 
ATOM      3  C2A P4P d   1     -13.478 -11.667  -8.835  0.00  0.00    -0.072 A 
ATOM      4  C3A P4P d   1     -12.509 -11.049  -9.612  0.00  0.00    -0.082 A 
ATOM      5  H1  P4P d   1     -13.400 -11.650  -7.754  0.00  0.00     0.084 H 
ATOM      6  C4A P4P d   1     -12.604 -11.068 -10.995  0.00  0.00    -0.083 A 
ATOM      7  H2  P4P d   1     -11.674 -10.549  -9.136  0.00  0.00     0.083 H 
ATOM      8  C5A P4P d   1     -13.670 -11.707 -11.604  0.00  0.00    -0.082 A 
ATOM      9  H3  P4P d   1     -11.845 -10.583 -11.598  0.00  0.00     0.083 H 
ATOM     10  C6A P4P d   1     -14.639 -12.326 -10.830  0.00  0.00    -0.072 A 
ATOM     11  H4  P4P d   1     -13.747 -11.723 -12.685  0.00  0.00     0.083 H 
ATOM     12  H5  P4P d   1     -15.473 -12.828 -11.307  0.00  0.00     0.084 H 
ENDBRANCH   1   2
BRANCH   1  13
ATOM     13  C1C P4P d   1     -17.329 -12.091  -8.497  0.00  0.00    -0.022 A 
ATOM     14  C6C P4P d   1     -17.267 -10.807  -9.023  0.00  0.00    -0.072 A 
ATOM     15  C5C P4P d   1     -18.401 -10.008  -9.056  0.00  0.00    -0.082 A 
ATOM     16  H6  P4P d   1     -16.328 -10.427  -9.410  0.00  0.00     0.084 H 
ATOM     17  C4C P4P d   1     -19.602 -10.490  -8.561  0.00  0.00    -0.083 A 
ATOM     18  H7  P4P d   1     -18.347  -9.007  -9.469  0.00  0.00     0.083 H 
ATOM     19  C3C P4P d   1     -19.666 -11.771  -8.034  0.00  0.00    -0.082 A 
ATOM     20  H8  P4P d   1     -20.489  -9.867  -8.586  0.00  0.00     0.083 H 
ATOM     21  C2C P4P d   1     -18.532 -12.570  -8.001  0.00  0.00    -0.072 A 
ATOM     22  H9  P4P d   1     -20.605 -12.149  -7.646  0.00  0.00     0.083 H 
ATOM     23  H10 P4P d   1     -18.587 -13.570  -7.587  0.00  0.00     0.084 H 
ENDBRANCH   1  13
BRANCH   1  24
ATOM     24  C1D P4P d   1     -16.104 -14.747  -9.236  0.00  0.00    -0.022 A 
ATOM     25  C6D P4P d   1     -15.264 -15.812  -8.952  0.00  0.00    -0.072 A 
ATOM     26  C5D P4P d   1     -15.464 -17.048  -9.549  0.00  0.00    -0.082 A 
ATOM     27  H11 P4P d   1     -14.443 -15.678  -8.257  0.00  0.00     0.084 H 
ATOM     28  C4D P4P d   1     -16.507 -17.219 -10.443  0.00  0.00    -0.083 A 
ATOM     29  H12 P4P d   1     -14.806 -17.877  -9.316  0.00  0.00     0.083 H 
ATOM     30  C3D P4P d   1     -17.337 -16.152 -10.738  0.00  0.00    -0.082 A 
ATOM     31  H13 P4P d   1     -16.672 -18.183 -10.909  0.00  0.00     0.083 H 
ATOM     32  C2D P4P d   1     -17.139 -14.920 -10.135  0.00  0.00    -0.072 A 
ATOM     33  H14 P4P d   1     -18.148 -16.281 -11.446  0.00  0.00     0.083 H 
ATOM     34  H15 P4P d   1     -17.797 -14.091 -10.369  0.00  0.00     0.084 H 
ENDBRANCH   1  24
BRANCH   1  35
ATOM     35  C1B P4P d   1     -15.304 -13.339  -6.726  0.00  0.00    -0.022 A 
ATOM     36  C6B P4P d   1     -16.059 -12.786  -5.700  0.00  0.00    -0.072 A 
ATOM     37  C5B P4P d   1     -15.670 -12.946  -4.378  0.00  0.00    -0.082 A 
ATOM     38  H16 P4P d   1     -16.957 -12.226  -5.933  0.00  0.00     0.084 H 
ATOM     39  C4B P4P d   1     -14.522 -13.659  -4.076  0.00  0.00    -0.083 A 
ATOM     40  H17 P4P d   1     -16.265 -12.513  -3.582  0.00  0.00     0.083 H 
ATOM     41  C3B P4P d   1     -13.765 -14.212  -5.096  0.00  0.00    -0.082 A 
ATOM     42  H18 P4P d   1     -14.216 -13.784  -3.044  0.00  0.00     0.083 H 
ATOM     43  C2B P4P d   1     -14.155 -14.052  -6.417  0.00  0.00    -0.072 A 
ATOM     44  H19 P4P d   1     -12.866 -14.771  -4.861  0.00  0.00     0.083 H 
ATOM     45  H20 P4P d   1     -13.559 -14.486  -7.212  0.00  0.00     0.084 H 
ENDBRANCH   1  35
TORSDOF 4
