REMARK  13 active torsions:
REMARK  status: ('A' for Active; 'I' for Inactive)
REMARK    1  A    between atoms: C4_4  and  C21_23 
REMARK    2  A    between atoms: C5_5  and  N2_26 
REMARK    3  A    between atoms: C9_10  and  C14_16 
REMARK    4  A    between atoms: C11_12  and  N1_15 
REMARK    5  A    between atoms: C12_13  and  C20_22 
REMARK    6  A    between atoms: N1_15  and  C22_24 
REMARK    7  A    between atoms: C19_21  and  C26_29 
REMARK    8  A    between atoms: C22_24  and  C23_25 
REMARK    9  A    between atoms: N2_26  and  C24_27 
REMARK   10  A    between atoms: C24_27  and  C25_28 
REMARK   11  A    between atoms: C26_29  and  O2_31 
REMARK   12  A    between atoms: O2_31  and  C28_32 
REMARK   13  A    between atoms: C28_32  and  C29_33 
ROOT
ATOM      1  C1  RHQ d   1      -3.258  22.477 -10.737  0.00  0.00     0.085 A 
ATOM      2  C2  RHQ d   1      -1.915  22.736 -10.393  0.00  0.00    -0.011 A 
ATOM      3  C3  RHQ d   1      -1.185  21.726  -9.745  0.00  0.00    -0.065 A 
ATOM      4  C4  RHQ d   1      -1.755  20.471  -9.433  0.00  0.00    -0.035 A 
ATOM      5  C5  RHQ d   1      -3.083  20.202  -9.776  0.00  0.00     0.036 A 
ATOM      6  C6  RHQ d   1      -3.834  21.204 -10.424  0.00  0.00    -0.024 A 
ATOM      7  O1  RHQ d   1      -4.003  23.451 -11.377  0.00  0.00    -0.310 OA
ATOM      8  C7  RHQ d   1      -3.489  24.681 -11.701  0.00  0.00     0.085 A 
ATOM      9  C8  RHQ d   1      -2.162  25.017 -11.392  0.00  0.00    -0.011 A 
ATOM     10  C9  RHQ d   1      -1.308  24.046 -10.713  0.00  0.00     0.029 A 
ATOM     11  C10 RHQ d   1      -4.319  25.628 -12.350  0.00  0.00    -0.024 A 
ATOM     12  C11 RHQ d   1      -3.807  26.885 -12.693  0.00  0.00     0.036 A 
ATOM     13  C12 RHQ d   1      -2.515  27.201 -12.394  0.00  0.00    -0.035 A 
ATOM     14  C13 RHQ d   1      -1.681  26.294 -11.742  0.00  0.00    -0.065 A 
ATOM     15  H1  RHQ d   1      -0.152  21.915  -9.476  0.00  0.00     0.085 H 
ATOM     16  H2  RHQ d   1      -4.866  21.007 -10.690  0.00  0.00     0.091 H 
ATOM     17  H3  RHQ d   1      -1.619  24.452  -9.739  0.00  0.00     0.062 H 
ATOM     18  H4  RHQ d   1      -5.349  25.380 -12.581  0.00  0.00     0.091 H 
ATOM     19  H5  RHQ d   1      -0.661  26.572 -11.504  0.00  0.00     0.085 H 
ENDROOT
BRANCH  10  20
ATOM     20  C14 RHQ d   1       0.169  24.304 -10.337  0.00  0.00    -0.029 A 
ATOM     21  C15 RHQ d   1       0.583  24.218  -8.881  0.00  0.00    -0.075 A 
ATOM     22  C16 RHQ d   1       1.912  24.415  -8.480  0.00  0.00    -0.082 A 
ATOM     23  H7  RHQ d   1      -0.168  23.998  -8.131  0.00  0.00     0.084 H 
ATOM     24  C17 RHQ d   1       2.968  24.721  -9.509  0.00  0.00    -0.082 A 
ATOM     25  H8  RHQ d   1       2.179  24.347  -7.431  0.00  0.00     0.083 H 
ATOM     26  C18 RHQ d   1       2.623  24.794 -10.840  0.00  0.00    -0.067 A 
ATOM     27  H9  RHQ d   1       3.995  24.883  -9.203  0.00  0.00     0.083 H 
ATOM     28  C19 RHQ d   1       1.176  24.576 -11.271  0.00  0.00     0.046 A 
ATOM     29  H10 RHQ d   1       3.382  25.007 -11.584  0.00  0.00     0.085 H 
BRANCH  28  30
ATOM     30  C26 RHQ d   1       0.920  24.682 -12.762  0.00  0.00     0.293 C 
ATOM     31  O27 RHQ d   1       0.138  23.926 -13.302  0.00  0.00    -0.259 OA
BRANCH  30  32
ATOM     32  O2  RHQ d   1       1.577  25.629 -13.523  0.00  0.00    -0.318 OA
BRANCH  32  33
ATOM     33  C28 RHQ d   1       0.780  26.485 -14.303  0.00  0.00     0.026 C 
ATOM     34  H28 RHQ d   1       0.778  27.488 -13.851  0.00  0.00     0.074 H 
ATOM     35  H29 RHQ d   1      -0.248  26.094 -14.332  0.00  0.00     0.074 H 
BRANCH  33  36
ATOM     36  C29 RHQ d   1       1.303  26.577 -15.685  0.00  0.00    -0.056 C 
ATOM     37  H30 RHQ d   1       0.664  27.251 -16.275  0.00  0.00     0.030 H 
ATOM     38  H31 RHQ d   1       1.304  25.577 -16.144  0.00  0.00     0.030 H 
ATOM     39  H32 RHQ d   1       2.330  26.971 -15.663  0.00  0.00     0.030 H 
ENDBRANCH  33  36
ENDBRANCH  32  33
ENDBRANCH  30  32
ENDBRANCH  28  30
ENDBRANCH  10  20
BRANCH   4  40
ATOM     40  C21 RHQ d   1      -0.897  19.429  -8.732  0.00  0.00    -0.049 C 
ATOM     41  H14 RHQ d   1       0.108  19.840  -8.555  0.00  0.00     0.033 H 
ATOM     42  H15 RHQ d   1      -0.820  18.532  -9.364  0.00  0.00     0.033 H 
ATOM     43  H16 RHQ d   1      -1.359  19.161  -7.770  0.00  0.00     0.033 H 
ENDBRANCH   4  40
BRANCH  13  44
ATOM     44  C20 RHQ d   1      -2.009  28.540 -12.778  0.00  0.00    -0.049 C 
ATOM     45  H11 RHQ d   1      -2.810  29.105 -13.278  0.00  0.00     0.033 H 
ATOM     46  H12 RHQ d   1      -1.157  28.427 -13.464  0.00  0.00     0.033 H 
ATOM     47  H13 RHQ d   1      -1.685  29.082 -11.877  0.00  0.00     0.033 H 
ENDBRANCH  13  44
BRANCH   5  48
ATOM     48  N2  RHQ d   1      -3.654  18.895  -9.435  0.00  0.00    -0.390 N 
ATOM     49  H22 RHQ d   1      -3.221  18.336  -8.686  0.00  0.00     0.159 HD
BRANCH  48  50
ATOM     50  C24 RHQ d   1      -4.821  18.371 -10.134  0.00  0.00    -0.011 C 
ATOM     51  H23 RHQ d   1      -4.551  18.157 -11.179  0.00  0.00     0.063 H 
ATOM     52  H24 RHQ d   1      -5.625  19.121 -10.109  0.00  0.00     0.063 H 
BRANCH  50  53
ATOM     53  C25 RHQ d   1      -5.307  17.096  -9.473  0.00  0.00    -0.061 C 
ATOM     54  H25 RHQ d   1      -6.187  16.715 -10.013  0.00  0.00     0.029 H 
ATOM     55  H26 RHQ d   1      -5.580  17.306  -8.428  0.00  0.00     0.029 H 
ATOM     56  H27 RHQ d   1      -4.507  16.342  -9.498  0.00  0.00     0.029 H 
ENDBRANCH  50  53
ENDBRANCH  48  50
ENDBRANCH   5  48
BRANCH  12  57
ATOM     57  N1  RHQ d   1      -4.624  27.895 -13.369  0.00  0.00    -0.390 N 
ATOM     58  H6  RHQ d   1      -4.180  28.700 -13.833  0.00  0.00     0.159 HD
BRANCH  57  59
ATOM     59  C22 RHQ d   1      -6.053  27.748 -13.377  0.00  0.00    -0.011 C 
ATOM     60  H17 RHQ d   1      -6.401  27.585 -12.346  0.00  0.00     0.063 H 
ATOM     61  H18 RHQ d   1      -6.319  26.879 -13.996  0.00  0.00     0.063 H 
BRANCH  59  62
ATOM     62  C23 RHQ d   1      -6.731  28.971 -13.934  0.00  0.00    -0.061 C 
ATOM     63  H19 RHQ d   1      -7.821  28.822 -13.925  0.00  0.00     0.029 H 
ATOM     64  H20 RHQ d   1      -6.393  29.139 -14.967  0.00  0.00     0.029 H 
ATOM     65  H21 RHQ d   1      -6.475  29.845 -13.317  0.00  0.00     0.029 H 
ENDBRANCH  59  62
ENDBRANCH  57  59
ENDBRANCH  12  57
TORSDOF 13
