REMARK  1 active torsions:
REMARK  status: ('A' for Active; 'I' for Inactive)
REMARK    1  A    between atoms: C1_1  and  O1_7 
ROOT
ATOM      1  C1  IPH d   1      28.894   2.469 -12.956  0.00  0.00     0.065 A 
ATOM      2  C2  IPH d   1      29.016   2.772 -14.317  0.00  0.00    -0.051 A 
ATOM      3  C3  IPH d   1      30.238   3.072 -14.853  0.00  0.00    -0.080 A 
ATOM      4  C4  IPH d   1      31.400   3.053 -14.053  0.00  0.00    -0.083 A 
ATOM      5  C5  IPH d   1      31.307   2.767 -12.699  0.00  0.00    -0.080 A 
ATOM      6  C6  IPH d   1      30.052   2.468 -12.163  0.00  0.00    -0.051 A 
ATOM      7  H1  IPH d   1      28.136   2.769 -14.950  0.00  0.00     0.087 H 
ATOM      8  H2  IPH d   1      30.315   3.327 -15.904  0.00  0.00     0.083 H 
ATOM      9  H3  IPH d   1      32.367   3.262 -14.497  0.00  0.00     0.083 H 
ATOM     10  H4  IPH d   1      32.190   2.775 -12.070  0.00  0.00     0.083 H 
ATOM     11  H5  IPH d   1      29.971   2.229 -11.109  0.00  0.00     0.087 H 
ENDROOT
BRANCH   1  12
ATOM     12  O1  IPH d   1      27.640   2.211 -12.403  0.00  0.00    -0.361 OA
ATOM     13  H6  IPH d   1      27.450   2.860 -11.736  0.00  0.00     0.217 HD
ENDBRANCH   1  12
TORSDOF 1
