REMARK  5 active torsions:
REMARK  status: ('A' for Active; 'I' for Inactive)
REMARK    1  A    between atoms: C3_3  and  N23_23 
REMARK    2  A    between atoms: N5_5  and  C21_21 
REMARK    3  A    between atoms: C6_6  and  C15_15 
REMARK    4  A    between atoms: C8_8  and  N24_24 
REMARK    5  A    between atoms: C21_21  and  C22_22 
ROOT
ATOM      1  C1   ET d   1     -12.236  -0.543  -0.116  0.00  0.00    -0.068 A 
ATOM      2  C2   ET d   1     -11.387  -0.146   0.896  0.00  0.00    -0.057 A 
ATOM      3  C3   ET d   1     -10.326  -0.954   1.280  0.00  0.00     0.027 A 
ATOM      4  C4   ET d   1     -10.074  -2.175   0.664  0.00  0.00    -0.031 A 
ATOM      5  N5   ET d   1     -10.652  -3.877  -1.011  0.00  0.00    -0.367 N 
ATOM      6  C6   ET d   1     -11.461  -4.313  -2.008  0.00  0.00     0.064 A 
ATOM      7  C7   ET d   1     -13.447  -3.914  -3.471  0.00  0.00    -0.049 A 
ATOM      8  C8   ET d   1     -14.512  -3.118  -3.862  0.00  0.00     0.026 A 
ATOM      9  C9   ET d   1     -14.780  -1.898  -3.262  0.00  0.00    -0.057 A 
ATOM     10  C10  ET d   1     -13.981  -1.430  -2.239  0.00  0.00    -0.069 A 
ATOM     11  C11  ET d   1     -12.617  -3.490  -2.455  0.00  0.00    -0.018 A 
ATOM     12  C12  ET d   1     -12.910  -2.193  -1.825  0.00  0.00    -0.015 A 
ATOM     13  C13  ET d   1     -12.021  -1.752  -0.746  0.00  0.00     0.001 A 
ATOM     14  C14  ET d   1     -10.895  -2.634  -0.354  0.00  0.00     0.044 A 
ATOM     15  H1   ET d   1     -13.065   0.089  -0.414  0.00  0.00     0.085 H 
ATOM     16  H2   ET d   1     -11.550   0.803   1.394  0.00  0.00     0.086 H 
ATOM     17  H3   ET d   1      -9.228  -2.773   0.983  0.00  0.00     0.090 H 
ATOM     18  H4   ET d   1     -10.809  -3.815  -2.741  0.00  0.00     0.088 H 
ATOM     19  H5   ET d   1     -13.268  -4.864  -3.961  0.00  0.00     0.087 H 
ATOM     20  H6   ET d   1     -15.624  -1.307  -3.599  0.00  0.00     0.086 H 
ATOM     21  H7   ET d   1     -14.192  -0.477  -1.768  0.00  0.00     0.085 H 
ENDROOT
BRANCH   6  22
ATOM     22  C15  ET d   1     -11.246  -5.622  -2.700  0.00  0.00    -0.031 A 
ATOM     23  C16  ET d   1     -12.173  -6.643  -2.541  0.00  0.00    -0.074 A 
ATOM     24  C17  ET d   1     -11.989  -7.860  -3.172  0.00  0.00    -0.082 A 
ATOM     25  H8   ET d   1     -13.046  -6.486  -1.919  0.00  0.00     0.084 H 
ATOM     26  C18  ET d   1     -10.863  -8.080  -3.962  0.00  0.00    -0.083 A 
ATOM     27  H9   ET d   1     -12.725  -8.647  -3.051  0.00  0.00     0.083 H 
ATOM     28  C19  ET d   1      -9.925  -7.067  -4.127  0.00  0.00    -0.082 A 
ATOM     29  H10  ET d   1     -10.718  -9.039  -4.447  0.00  0.00     0.083 H 
ATOM     30  C20  ET d   1     -10.129  -5.834  -3.500  0.00  0.00    -0.074 A 
ATOM     31  H11  ET d   1      -9.044  -7.232  -4.736  0.00  0.00     0.083 H 
ATOM     32  H12  ET d   1      -9.409  -5.036  -3.639  0.00  0.00     0.084 H 
ENDBRANCH   6  22
BRANCH   5  33
ATOM     33  C21  ET d   1      -9.515  -4.696  -0.551  0.00  0.00    -0.007 C 
ATOM     34  H13  ET d   1      -8.613  -4.068  -0.515  0.00  0.00     0.063 H 
ATOM     35  H14  ET d   1      -9.359  -5.522  -1.260  0.00  0.00     0.063 H 
BRANCH  33  36
ATOM     36  C22  ET d   1      -9.769  -5.271   0.826  0.00  0.00    -0.061 C 
ATOM     37  H15  ET d   1      -8.903  -5.874   1.137  0.00  0.00     0.029 H 
ATOM     38  H16  ET d   1     -10.667  -5.905   0.798  0.00  0.00     0.029 H 
ATOM     39  H17  ET d   1      -9.921  -4.451   1.543  0.00  0.00     0.029 H 
ENDBRANCH  33  36
ENDBRANCH   5  33
BRANCH   8  40
ATOM     40  N24  ET d   1     -15.313  -3.544  -4.851  0.00  0.00    -0.399 N 
ATOM     41  H20  ET d   1     -15.130  -4.448  -5.309  0.00  0.00     0.156 HD
ATOM     42  H21  ET d   1     -16.111  -2.967  -5.152  0.00  0.00     0.156 HD
ENDBRANCH   8  40
BRANCH   3  43
ATOM     43  N23  ET d   1      -9.516  -0.532   2.274  0.00  0.00    -0.399 N 
ATOM     44  H18  ET d   1      -9.695   0.371   2.736  0.00  0.00     0.156 HD
ATOM     45  H19  ET d   1      -8.719  -1.113   2.571  0.00  0.00     0.156 HD
ENDBRANCH   3  43
TORSDOF 5
