REMARK  17 active torsions:
REMARK  status: ('A' for Active; 'I' for Inactive)
REMARK    1  A    between atoms: N1_1  and  CA1_2 
REMARK    2  A    between atoms: CA1_2  and  C1_3 
REMARK    3  A    between atoms: CA1_2  and  CB1_6 
REMARK    4  A    between atoms: CB1_6  and  CG1_7 
REMARK    5  A    between atoms: CG1_7  and  CD1_8 
REMARK       I    between atoms: CD1_8  and  N2_10 
REMARK    6  A    between atoms: N2_10  and  CA2_11 
REMARK    7  A    between atoms: CA2_11  and  C2_12 
REMARK    8  A    between atoms: CA2_11  and  CB2_14 
REMARK       I    between atoms: C2_12  and  N3_22 
REMARK    9  A    between atoms: CB2_14  and  SG2_15 
REMARK   10  A    between atoms: SG2_15  and  C1S_16 
REMARK   11  A    between atoms: C1S_16  and  C2S_17 
REMARK   12  A    between atoms: C2S_17  and  C3S_18 
REMARK   13  A    between atoms: C3S_18  and  C4S_19 
REMARK   14  A    between atoms: C4S_19  and  C5S_20 
REMARK   15  A    between atoms: C5S_20  and  C6S_21 
REMARK   16  A    between atoms: N3_22  and  CA3_23 
REMARK   17  A    between atoms: CA3_23  and  C3_24 
ROOT
ATOM      1  CA2 GTX d   1     -39.769   3.387 -33.024  0.00  0.00     0.097 C 
ATOM      2  H10 GTX d   1     -40.068   4.102 -32.243  0.00  0.00     0.088 H 
ENDROOT
BRANCH   1   3
ATOM      3  N2  GTX d   1     -38.360   3.564 -33.277  0.00  0.00    -0.347 N 
ATOM      4  CD1 GTX d   1     -37.536   4.014 -32.359  0.00  0.00     0.218 C 
ATOM      5  OE1 GTX d   1     -37.944   4.483 -31.356  0.00  0.00    -0.274 OA
ATOM      6  H9  GTX d   1     -37.999   3.337 -34.181  0.00  0.00     0.163 HD
BRANCH   4   7
ATOM      7  CG1 GTX d   1     -36.060   3.965 -32.615  0.00  0.00     0.012 C 
ATOM      8  H7  GTX d   1     -35.599   3.268 -31.900  0.00  0.00     0.047 H 
ATOM      9  H8  GTX d   1     -35.890   3.605 -33.640  0.00  0.00     0.047 H 
BRANCH   7  10
ATOM     10  CB1 GTX d   1     -35.410   5.320 -32.461  0.00  0.00    -0.021 C 
ATOM     11  H5  GTX d   1     -35.795   5.990 -33.244  0.00  0.00     0.037 H 
ATOM     12  H6  GTX d   1     -35.665   5.727 -31.471  0.00  0.00     0.037 H 
BRANCH  10  13
ATOM     13  CA1 GTX d   1     -33.894   5.237 -32.584  0.00  0.00     0.183 C 
ATOM     14  H4  GTX d   1     -33.599   4.178 -32.539  0.00  0.00     0.101 H 
BRANCH  13  15
ATOM     15  N1  GTX d   1     -33.248   5.958 -31.490  0.00  0.00    -0.065 N 
ATOM     16  H1  GTX d   1     -33.559   5.580 -30.609  0.00  0.00     0.275 HD
ATOM     17  H2  GTX d   1     -33.492   6.935 -31.541  0.00  0.00     0.275 HD
ATOM     18  H3  GTX d   1     -32.248   5.857 -31.565  0.00  0.00     0.275 HD
ENDBRANCH  13  15
BRANCH  13  19
ATOM     19  C1  GTX d   1     -33.420   5.813 -33.870  0.00  0.00     0.204 C 
ATOM     20  O11 GTX d   1     -33.133   5.058 -34.750  0.00  0.00    -0.646 OA
ATOM     21  O12 GTX d   1     -33.307   7.011 -34.012  0.00  0.00    -0.646 OA
ENDBRANCH  13  19
ENDBRANCH  10  13
ENDBRANCH   7  10
ENDBRANCH   4   7
ENDBRANCH   1   3
BRANCH   1  22
ATOM     22  C2  GTX d   1     -40.049   2.011 -32.558  0.00  0.00     0.241 C 
ATOM     23  O2  GTX d   1     -41.171   1.573 -32.585  0.00  0.00    -0.271 OA
ATOM     24  N3  GTX d   1     -39.020   1.315 -32.156  0.00  0.00    -0.349 N 
ATOM     25  H26 GTX d   1     -38.105   1.707 -32.249  0.00  0.00     0.163 HD
BRANCH  24  26
ATOM     26  CA3 GTX d   1     -39.156   0.025 -31.593  0.00  0.00     0.075 C 
ATOM     27  H27 GTX d   1     -38.249  -0.567 -31.786  0.00  0.00     0.080 H 
ATOM     28  H28 GTX d   1     -40.027  -0.486 -32.029  0.00  0.00     0.080 H 
BRANCH  26  29
ATOM     29  C3  GTX d   1     -39.349   0.199 -30.120  0.00  0.00     0.191 C 
ATOM     30  O31 GTX d   1     -39.149  -0.761 -29.351  0.00  0.00    -0.647 OA
ATOM     31  O32 GTX d   1     -39.713   1.325 -29.749  0.00  0.00    -0.647 OA
ENDBRANCH  26  29
ENDBRANCH  24  26
ENDBRANCH   1  22
BRANCH   1  32
ATOM     32  CB2 GTX d   1     -40.627   3.623 -34.257  0.00  0.00     0.004 C 
ATOM     33  H11 GTX d   1     -41.556   3.047 -34.132  0.00  0.00     0.052 H 
ATOM     34  H12 GTX d   1     -40.073   3.241 -35.127  0.00  0.00     0.052 H 
BRANCH  32  35
ATOM     35  SG2 GTX d   1     -41.076   5.295 -34.601  0.00  0.00    -0.167 SA
BRANCH  35  36
ATOM     36  C1S GTX d   1     -41.450   5.995 -33.044  0.00  0.00    -0.023 C 
ATOM     37  H13 GTX d   1     -40.565   6.530 -32.668  0.00  0.00     0.049 H 
ATOM     38  H14 GTX d   1     -41.718   5.191 -32.343  0.00  0.00     0.049 H 
BRANCH  36  39
ATOM     39  C2S GTX d   1     -42.620   6.976 -33.152  0.00  0.00    -0.057 C 
ATOM     40  H15 GTX d   1     -42.608   7.437 -34.151  0.00  0.00     0.034 H 
ATOM     41  H16 GTX d   1     -42.502   7.757 -32.386  0.00  0.00     0.034 H 
BRANCH  39  42
ATOM     42  C3S GTX d   1     -43.965   6.280 -32.945  0.00  0.00    -0.064 C 
ATOM     43  H17 GTX d   1     -44.633   6.961 -32.398  0.00  0.00     0.033 H 
ATOM     44  H18 GTX d   1     -43.802   5.370 -32.350  0.00  0.00     0.033 H 
BRANCH  42  45
ATOM     45  C4S GTX d   1     -44.630   5.893 -34.251  0.00  0.00    -0.065 C 
ATOM     46  H19 GTX d   1     -44.202   6.515 -35.051  0.00  0.00     0.033 H 
ATOM     47  H20 GTX d   1     -45.707   6.100 -34.162  0.00  0.00     0.033 H 
BRANCH  45  48
ATOM     48  C5S GTX d   1     -44.459   4.431 -34.643  0.00  0.00    -0.069 C 
ATOM     49  H21 GTX d   1     -43.505   4.322 -35.180  0.00  0.00     0.032 H 
ATOM     50  H22 GTX d   1     -45.288   4.147 -35.308  0.00  0.00     0.032 H 
BRANCH  48  51
ATOM     51  C6S GTX d   1     -44.453   3.498 -33.458  0.00  0.00    -0.077 C 
ATOM     52  H23 GTX d   1     -44.327   2.463 -33.807  0.00  0.00     0.027 H 
ATOM     53  H24 GTX d   1     -45.406   3.588 -32.915  0.00  0.00     0.027 H 
ATOM     54  H25 GTX d   1     -43.622   3.763 -32.787  0.00  0.00     0.027 H 
ENDBRANCH  48  51
ENDBRANCH  45  48
ENDBRANCH  42  45
ENDBRANCH  39  42
ENDBRANCH  36  39
ENDBRANCH  35  36
ENDBRANCH  32  35
ENDBRANCH   1  32
TORSDOF 17
