REMARK  3 active torsions:
REMARK  status: ('A' for Active; 'I' for Inactive)
REMARK    1  A    between atoms: C2_4  and  C1_2 
REMARK    2  A    between atoms: C1_2  and  C_14 
REMARK    3  A    between atoms: C3_3  and  C2_4 
ROOT
ATOM      1  C9  6U6 d   1      -1.403   2.240   8.078  0.00  0.00     0.035 A 
ATOM      2  C3  6U6 d   1       0.993   1.986   7.818  0.00  0.00     0.077 A 
ATOM      3  C5  6U6 d   1      -1.614   4.072   6.529  0.00  0.00    -0.033 A 
ATOM      4  C8  6U6 d   1      -2.743   2.328   8.406  0.00  0.00    -0.062 A 
ATOM      5  C7  6U6 d   1      -3.524   3.274   7.797  0.00  0.00    -0.060 A 
ATOM      6  C6  6U6 d   1      -2.966   4.111   6.861  0.00  0.00     0.036 A 
ATOM      7  C4  6U6 d   1      -0.805   3.118   7.175  0.00  0.00     0.076 A 
ATOM      8 CL   6U6 d   1      -4.015   5.211   6.025  0.00  0.00    -0.084 Cl
ATOM      9  N   6U6 d   1       0.583   2.945   7.045  0.00  0.00    -0.245 NA
ATOM     10  S   6U6 d   1      -0.239   1.173   8.729  0.00  0.00    -0.073 SA
ATOM     11  H5  6U6 d   1      -1.198   4.754   5.797  0.00  0.00     0.089 H 
ATOM     12  H6  6U6 d   1      -3.172   1.654   9.139  0.00  0.00     0.085 H 
ATOM     13  H7  6U6 d   1      -4.574   3.362   8.051  0.00  0.00     0.086 H 
ENDROOT
BRANCH   2  14
ATOM     14  C2  6U6 d   1       2.363   1.549   8.124  0.00  0.00    -0.009 C 
ATOM     15  H3  6U6 d   1       2.452   1.481   9.218  0.00  0.00     0.043 H 
ATOM     16  H4  6U6 d   1       2.498   0.550   7.683  0.00  0.00     0.043 H 
BRANCH  14  17
ATOM     17  C1  6U6 d   1       3.430   2.372   7.657  0.00  0.00     0.021 C 
ATOM     18  H1  6U6 d   1       3.322   2.454   6.565  0.00  0.00     0.049 H 
ATOM     19  H2  6U6 d   1       4.369   1.851   7.894  0.00  0.00     0.049 H 
BRANCH  17  20
ATOM     20  C   6U6 d   1       3.550   3.753   8.190  0.00  0.00     0.172 C 
ATOM     21  O1  6U6 d   1       3.094   4.325   9.217  0.00  0.00    -0.648 OA
ATOM     22  O   6U6 d   1       4.225   4.247   7.272  0.00  0.00    -0.648 OA
ENDBRANCH  17  20
ENDBRANCH  14  17
ENDBRANCH   2  14
TORSDOF 3
