REMARK  10 active torsions:
REMARK  status: ('A' for Active; 'I' for Inactive)
REMARK    1  A    between atoms: C1_1  and  O_34 
REMARK    2  A    between atoms: N6_4  and  C19_15 
REMARK    3  A    between atoms: C8_6  and  C11_9 
REMARK    4  A    between atoms: C14_12  and  O1_24 
REMARK    5  A    between atoms: C15_13  and  C16_14 
REMARK    6  A    between atoms: O1_24  and  C15_13 
REMARK    7  A    between atoms: C16_14  and  N5_23 
REMARK    8  A    between atoms: C21_17  and  C22_18 
REMARK    9  A    between atoms: C5_28  and  N4_27 
REMARK   10  A    between atoms: O_34  and  C_35 
ROOT
ATOM      1  C11 XNH d   1      62.164  50.443 134.727  0.00  0.00    -0.054 A 
ATOM      2  C12 XNH d   1      61.859  51.461 135.620  0.00  0.00    -0.074 A 
ATOM      3  C13 XNH d   1      61.210  51.200 136.810  0.00  0.00    -0.050 A 
ATOM      4  C14 XNH d   1      60.880  49.902 137.138  0.00  0.00     0.068 A 
ATOM      5  C24 XNH d   1      61.822  49.141 135.076  0.00  0.00    -0.074 A 
ATOM      6  C23 XNH d   1      61.156  48.872 136.254  0.00  0.00    -0.050 A 
ATOM      7  H9  XNH d   1      62.136  52.481 135.378  0.00  0.00     0.084 H 
ATOM      8  H10 XNH d   1      60.961  52.012 137.484  0.00  0.00     0.087 H 
ATOM      9  H22 XNH d   1      62.083  48.325 134.412  0.00  0.00     0.084 H 
ATOM     10  H28 XNH d   1      60.850  47.858 136.487  0.00  0.00     0.087 H 
ENDROOT
BRANCH   1  11
ATOM     11  C8  XNH d   1      62.882  50.753 133.432  0.00  0.00    -0.026 C 
ATOM     12  C7  XNH d   1      61.966  51.246 132.327  0.00  0.00    -0.043 C 
ATOM     13  C6  XNH d   1      62.777  51.694 131.119  0.00  0.00    -0.003 C 
ATOM     14  H2  XNH d   1      61.374  52.095 132.700  0.00  0.00     0.036 H 
ATOM     15  H3  XNH d   1      61.291  50.431 132.027  0.00  0.00     0.036 H 
ATOM     16  N4  XNH d   1      63.632  50.611 130.605  0.00  0.00    -0.364 N 
ATOM     17  H29 XNH d   1      63.413  52.542 131.411  0.00  0.00     0.064 H 
ATOM     18  H30 XNH d   1      62.086  52.011 130.324  0.00  0.00     0.064 H 
ATOM     19  C10 XNH d   1      64.525  50.071 131.641  0.00  0.00    -0.003 C 
ATOM     20  C9  XNH d   1      63.752  49.624 132.886  0.00  0.00    -0.043 C 
ATOM     21  H7  XNH d   1      65.066  49.206 131.229  0.00  0.00     0.064 H 
ATOM     22  H8  XNH d   1      65.246  50.850 131.931  0.00  0.00     0.064 H 
ATOM     23  H5  XNH d   1      63.109  48.772 132.622  0.00  0.00     0.036 H 
ATOM     24  H6  XNH d   1      64.469  49.316 133.662  0.00  0.00     0.036 H 
ATOM     25  H4  XNH d   1      63.564  51.583 133.668  0.00  0.00     0.047 H 
BRANCH  16  26
ATOM     26  C5  XNH d   1      63.439  50.041 129.334  0.00  0.00     0.146 A 
ATOM     27  C4  XNH d   1      63.867  48.729 128.967  0.00  0.00    -0.033 A 
ATOM     28  C3  XNH d   1      63.612  48.247 127.722  0.00  0.00    -0.031 A 
ATOM     29  H31 XNH d   1      64.400  48.112 129.688  0.00  0.00     0.089 H 
ATOM     30  C2  XNH d   1      62.932  49.080 126.802  0.00  0.00     0.177 A 
ATOM     31  H1  XNH d   1      63.924  47.243 127.439  0.00  0.00     0.089 H 
ATOM     32  N3  XNH d   1      62.586  50.342 127.256  0.00  0.00    -0.171 N 
ATOM     33  N1  XNH d   1      62.508  48.918 125.562  0.00  0.00    -0.126 NA
ATOM     34  C1  XNH d   1      61.898  50.873 126.236  0.00  0.00     0.290 A 
ATOM     35  N2  XNH d   1      62.829  50.867 128.536  0.00  0.00    -0.144 NA
ATOM     36  N   XNH d   1      61.840  50.098 125.190  0.00  0.00    -0.102 NA
BRANCH  34  37
ATOM     37  O   XNH d   1      61.400  52.100 126.370  0.00  0.00    -0.323 OA
BRANCH  37  38
ATOM     38  C   XNH d   1      60.409  52.499 125.391  0.00  0.00     0.013 C 
ATOM     39  H32 XNH d   1      60.075  53.525 125.605  0.00  0.00     0.067 H 
ATOM     40  H33 XNH d   1      59.549  51.816 125.441  0.00  0.00     0.067 H 
ATOM     41  H34 XNH d   1      60.851  52.459 124.385  0.00  0.00     0.067 H 
ENDBRANCH  37  38
ENDBRANCH  34  37
ENDBRANCH  16  26
ENDBRANCH   1  11
BRANCH   4  42
ATOM     42  O1  XNH d   1      60.248  49.846 138.347  0.00  0.00    -0.349 OA
BRANCH  42  43
ATOM     43  C15 XNH d   1      59.834  48.575 138.849  0.00  0.00     0.049 C 
ATOM     44  H11 XNH d   1      59.063  48.136 138.199  0.00  0.00     0.077 H 
ATOM     45  H12 XNH d   1      60.691  47.889 138.916  0.00  0.00     0.077 H 
BRANCH  43  46
ATOM     46  C16 XNH d   1      59.277  48.855 140.211  0.00  0.00     0.104 C 
ATOM     47  H13 XNH d   1      58.918  47.921 140.669  0.00  0.00     0.079 H 
ATOM     48  H14 XNH d   1      58.445  49.570 140.136  0.00  0.00     0.079 H 
BRANCH  46  49
ATOM     49  N5  XNH d   1      60.364  49.431 141.028  0.00  0.00    -0.055 N 
ATOM     50  C21 XNH d   1      61.004  48.668 142.115  0.00  0.00     0.176 C 
ATOM     51  C20 XNH d   1      62.183  49.382 142.744  0.00  0.00     0.250 C 
ATOM     52  H18 XNH d   1      61.397  47.752 141.649  0.00  0.00     0.099 H 
ATOM     53  N6  XNH d   1      62.304  50.708 142.589  0.00  0.00    -0.353 N 
ATOM     54  O2  XNH d   1      62.939  48.729 143.434  0.00  0.00    -0.271 OA
ATOM     55  C18 XNH d   1      61.349  51.546 141.862  0.00  0.00     0.020 C 
ATOM     56  C17 XNH d   1      60.088  50.826 141.411  0.00  0.00     0.099 C 
ATOM     57  H23 XNH d   1      61.853  51.946 140.970  0.00  0.00     0.066 H 
ATOM     58  H24 XNH d   1      61.053  52.377 142.519  0.00  0.00     0.066 H 
ATOM     59  H25 XNH d   1      59.665  51.356 140.545  0.00  0.00     0.078 H 
ATOM     60  H26 XNH d   1      59.360  50.832 142.236  0.00  0.00     0.078 H 
ATOM     61  H27 XNH d   1      61.113  49.508 140.357  0.00  0.00     0.281 HD
BRANCH  50  62
ATOM     62  C22 XNH d   1      60.045  48.226 143.212  0.00  0.00    -0.041 C 
ATOM     63  H19 XNH d   1      60.599  47.666 143.980  0.00  0.00     0.030 H 
ATOM     64  H20 XNH d   1      59.265  47.582 142.780  0.00  0.00     0.030 H 
ATOM     65  H21 XNH d   1      59.578  49.111 143.669  0.00  0.00     0.030 H 
ENDBRANCH  50  62
BRANCH  53  66
ATOM     66  C19 XNH d   1      63.433  51.412 143.195  0.00  0.00    -0.016 C 
ATOM     67  H15 XNH d   1      63.364  52.485 142.962  0.00  0.00     0.056 H 
ATOM     68  H16 XNH d   1      64.374  51.009 142.793  0.00  0.00     0.056 H 
ATOM     69  H17 XNH d   1      63.410  51.272 144.286  0.00  0.00     0.056 H 
ENDBRANCH  53  66
ENDBRANCH  46  49
ENDBRANCH  43  46
ENDBRANCH  42  43
ENDBRANCH   4  42
TORSDOF 10
