REMARK  10 active torsions:
REMARK  status: ('A' for Active; 'I' for Inactive)
REMARK    1  A    between atoms: C1_1  and  C3_3 
REMARK    2  A    between atoms: N1P_18  and  C1_1 
REMARK    3  A    between atoms: C3_3  and  C7_7 
REMARK    4  A    between atoms: C1'_11  and  N9_24 
REMARK    5  A    between atoms: C2'_12  and  O2'_22 
REMARK    6  A    between atoms: C3'_13  and  O3'_21 
REMARK    7  A    between atoms: C5'_15  and  C4'_14 
REMARK    8  A    between atoms: O5'_20  and  C5'_15 
REMARK    9  A    between atoms: P_17  and  N1P_18 
REMARK   10  A    between atoms: P_17  and  O5'_20 
ROOT
ATOM      1  C5' 6UR d   1     -30.330   4.152 -26.215  0.00  0.00     0.058 C 
ATOM      2  H11 6UR d   1     -30.150   3.095 -26.459  0.00  0.00     0.079 H 
ATOM      3  H12 6UR d   1     -31.359   4.423 -26.495  0.00  0.00     0.079 H 
ENDROOT
BRANCH   1   4
ATOM      4  C4' 6UR d   1     -29.341   5.032 -26.951  0.00  0.00     0.089 C 
ATOM      5  C3' 6UR d   1     -29.743   6.514 -26.992  0.00  0.00     0.091 C 
ATOM      6  C2' 6UR d   1     -29.833   6.816 -28.487  0.00  0.00     0.105 C 
ATOM      7  H9  6UR d   1     -30.724   6.662 -26.518  0.00  0.00     0.091 H 
ATOM      8  C1' 6UR d   1     -28.961   5.721 -29.071  0.00  0.00     0.139 C 
ATOM      9  H8  6UR d   1     -30.873   6.703 -28.828  0.00  0.00     0.093 H 
ATOM     10  O4' 6UR d   1     -29.296   4.581 -28.299  0.00  0.00    -0.353 OA
ATOM     11  H7  6UR d   1     -27.897   5.982 -28.976  0.00  0.00     0.122 H 
ATOM     12  H10 6UR d   1     -28.352   4.937 -26.479  0.00  0.00     0.090 H 
BRANCH   5  13
ATOM     13  O3' 6UR d   1     -28.771   7.325 -26.301  0.00  0.00    -0.390 OA
ATOM     14  H14 6UR d   1     -27.923   7.225 -26.717  0.00  0.00     0.210 HD
ENDBRANCH   5  13
BRANCH   6  15
ATOM     15  O2' 6UR d   1     -29.384   8.122 -28.873  0.00  0.00    -0.388 OA
ATOM     16  H15 6UR d   1     -28.472   8.227 -28.629  0.00  0.00     0.210 HD
ENDBRANCH   6  15
BRANCH   8  17
ATOM     17  N9  6UR d   1     -29.275   5.409 -30.470  0.00  0.00    -0.294 N 
ATOM     18  C4  6UR d   1     -28.354   5.245 -31.406  0.00  0.00     0.167 A 
ATOM     19  C5  6UR d   1     -29.097   4.931 -32.624  0.00  0.00     0.149 A 
ATOM     20  N3  6UR d   1     -27.002   5.325 -31.410  0.00  0.00    -0.222 NA
ATOM     21  C6  6UR d   1     -28.301   4.713 -33.837  0.00  0.00     0.155 A 
ATOM     22  N7  6UR d   1     -30.407   4.929 -32.306  0.00  0.00    -0.236 NA
ATOM     23  N1  6UR d   1     -26.958   4.814 -33.734  0.00  0.00    -0.222 NA
ATOM     24  N6  6UR d   1     -28.911   4.419 -35.014  0.00  0.00    -0.382 N 
ATOM     25  C2  6UR d   1     -26.350   5.103 -32.566  0.00  0.00     0.091 A 
ATOM     26  H3  6UR d   1     -25.267   5.160 -32.557  0.00  0.00     0.146 H 
ATOM     27  H16 6UR d   1     -28.347   4.267 -35.862  0.00  0.00     0.157 HD
ATOM     28  H17 6UR d   1     -29.938   4.348 -35.058  0.00  0.00     0.157 HD
ATOM     29  C8  6UR d   1     -30.502   5.208 -30.983  0.00  0.00     0.071 A 
ATOM     30  H6  6UR d   1     -31.433   5.261 -30.420  0.00  0.00     0.144 H 
ENDBRANCH   8  17
ENDBRANCH   1   4
BRANCH   1  31
ATOM     31  O5' 6UR d   1     -30.126   4.375 -24.827  0.00  0.00    -0.293 OA
BRANCH  31  32
ATOM     32  P   6UR d   1     -31.254   4.042 -23.738  0.00  0.00     0.359 P 
ATOM     33  O3P 6UR d   1     -32.115   2.894 -24.210  0.00  0.00    -0.630 OA
ATOM     34  O2P 6UR d   1     -30.511   3.882 -22.451  0.00  0.00    -0.630 OA
BRANCH  32  35
ATOM     35  N1P 6UR d   1     -32.231   5.481 -23.684  0.00  0.00    -0.325 N 
ATOM     36  H13 6UR d   1     -33.205   5.459 -23.911  0.00  0.00     0.165 HD
BRANCH  35  37
ATOM     37  C1  6UR d   1     -31.569   6.719 -23.294  0.00  0.00     0.002 C 
ATOM     38  H1  6UR d   1     -31.675   6.838 -22.206  0.00  0.00     0.064 H 
ATOM     39  H2  6UR d   1     -30.503   6.636 -23.552  0.00  0.00     0.064 H 
BRANCH  37  40
ATOM     40  C3  6UR d   1     -32.127   7.968 -23.968  0.00  0.00    -0.024 C 
ATOM     41  H4  6UR d   1     -32.045   7.842 -25.058  0.00  0.00     0.042 H 
ATOM     42  H5  6UR d   1     -31.525   8.833 -23.652  0.00  0.00     0.042 H 
BRANCH  40  43
ATOM     43  C7  6UR d   1     -33.574   8.241 -23.625  0.00  0.00    -0.029 A 
ATOM     44  C9  6UR d   1     -34.128   8.674 -22.322  0.00  0.00    -0.002 A 
ATOM     45  C10 6UR d   1     -35.582   8.821 -22.525  0.00  0.00     0.042 A 
ATOM     46  C13 6UR d   1     -33.544   8.909 -21.087  0.00  0.00    -0.070 A 
ATOM     47  N11 6UR d   1     -35.821   8.512 -23.813  0.00  0.00    -0.365 N 
ATOM     48  C16 6UR d   1     -36.368   9.212 -21.445  0.00  0.00    -0.056 A 
ATOM     49  C12 6UR d   1     -34.675   8.179 -24.475  0.00  0.00    -0.015 A 
ATOM     50  H18 6UR d   1     -36.755   8.525 -24.246  0.00  0.00     0.165 HD
ATOM     51  H19 6UR d   1     -34.628   7.902 -25.527  0.00  0.00     0.112 H 
ATOM     52  C15 6UR d   1     -35.756   9.451 -20.217  0.00  0.00    -0.081 A 
ATOM     53  H23 6UR d   1     -37.440   9.329 -21.558  0.00  0.00     0.086 H 
ATOM     54  C14 6UR d   1     -34.376   9.307 -20.038  0.00  0.00    -0.082 A 
ATOM     55  H22 6UR d   1     -36.367   9.758 -19.375  0.00  0.00     0.083 H 
ATOM     56  H21 6UR d   1     -33.943   9.508 -19.065  0.00  0.00     0.083 H 
ATOM     57  H20 6UR d   1     -32.477   8.788 -20.940  0.00  0.00     0.084 H 
ENDBRANCH  40  43
ENDBRANCH  37  40
ENDBRANCH  35  37
ENDBRANCH  32  35
ENDBRANCH  31  32
ENDBRANCH   1  31
TORSDOF 10
