REMARK  5 active torsions:
REMARK  status: ('A' for Active; 'I' for Inactive)
REMARK    1  A    between atoms: O5'_1  and  C5'_2 
REMARK    2  A    between atoms: C5'_2  and  C4'_3 
REMARK    3  A    between atoms: C3'_5  and  O3'_6 
REMARK    4  A    between atoms: C2'_7  and  O2'_8 
REMARK    5  A    between atoms: C1'_9  and  N9_10 
ROOT
ATOM      1  C4' ADN d   1     -10.834  -1.986   1.293  0.00  0.00     0.088 C 
ATOM      2  O4' ADN d   1      -9.718  -2.669   1.932  0.00  0.00    -0.353 OA
ATOM      3  C3' ADN d   1     -12.094  -2.800   1.634  0.00  0.00     0.091 C 
ATOM      4  C2' ADN d   1     -11.644  -3.632   2.837  0.00  0.00     0.105 C 
ATOM      5  C1' ADN d   1     -10.174  -3.862   2.527  0.00  0.00     0.139 C 
ATOM      6  H4  ADN d   1     -10.700  -1.974   0.201  0.00  0.00     0.090 H 
ATOM      7  H5  ADN d   1     -12.938  -2.143   1.893  0.00  0.00     0.091 H 
ATOM      8  H7  ADN d   1     -11.754  -3.036   3.755  0.00  0.00     0.093 H 
ATOM      9  H9  ADN d   1     -10.065  -4.706   1.830  0.00  0.00     0.122 H 
ENDROOT
BRANCH   5  10
ATOM     10  N9  ADN d   1      -9.393  -4.130   3.735  0.00  0.00    -0.294 N 
ATOM     11  C8  ADN d   1      -9.441  -3.431   4.892  0.00  0.00     0.071 A 
ATOM     12  N7  ADN d   1      -8.616  -3.978   5.819  0.00  0.00    -0.236 NA
ATOM     13  H10 ADN d   1     -10.058  -2.549   5.057  0.00  0.00     0.144 H 
ATOM     14  C5  ADN d   1      -8.032  -5.051   5.258  0.00  0.00     0.149 A 
ATOM     15  C6  ADN d   1      -7.062  -6.076   5.682  0.00  0.00     0.155 A 
ATOM     16  C4  ADN d   1      -8.555  -5.151   3.894  0.00  0.00     0.167 A 
ATOM     17  N6  ADN d   1      -6.535  -6.058   6.924  0.00  0.00    -0.382 N 
ATOM     18  N1  ADN d   1      -6.717  -7.021   4.785  0.00  0.00    -0.222 NA
ATOM     19  H11 ADN d   1      -5.858  -6.781   7.207  0.00  0.00     0.157 HD
ATOM     20  H12 ADN d   1      -6.810  -5.321   7.589  0.00  0.00     0.157 HD
ATOM     21  C2  ADN d   1      -7.239  -7.050   3.545  0.00  0.00     0.091 A 
ATOM     22  N3  ADN d   1      -8.136  -6.162   3.093  0.00  0.00    -0.222 NA
ATOM     23  H13 ADN d   1      -6.916  -7.837   2.873  0.00  0.00     0.146 H 
ENDBRANCH   5  10
BRANCH   4  24
ATOM     24  O2' ADN d   1     -12.325  -4.855   3.036  0.00  0.00    -0.388 OA
ATOM     25  H8  ADN d   1     -12.208  -5.409   2.273  0.00  0.00     0.210 HD
ENDBRANCH   4  24
BRANCH   1  26
ATOM     26  C5' ADN d   1     -10.856  -0.563   1.792  0.00  0.00     0.043 C 
ATOM     27  H2  ADN d   1      -9.835  -0.155   1.755  0.00  0.00     0.078 H 
ATOM     28  H3  ADN d   1     -11.513   0.034   1.143  0.00  0.00     0.078 H 
BRANCH  26  29
ATOM     29  O5' ADN d   1     -11.338  -0.491   3.135  0.00  0.00    -0.398 OA
ATOM     30  H1  ADN d   1     -11.341   0.415   3.421  0.00  0.00     0.209 HD
ENDBRANCH  26  29
ENDBRANCH   1  26
BRANCH   3  31
ATOM     31  O3' ADN d   1     -12.459  -3.654   0.542  0.00  0.00    -0.390 OA
ATOM     32  H6  ADN d   1     -13.238  -4.146   0.773  0.00  0.00     0.210 HD
ENDBRANCH   3  31
TORSDOF 5
