REMARK  10 active torsions:
REMARK  status: ('A' for Active; 'I' for Inactive)
REMARK    1  A    between atoms: C1_1  and  C3_2 
REMARK    2  A    between atoms: C1_1  and  N4_3 
REMARK    3  A    between atoms: N4_3  and  P1_4 
REMARK    4  A    between atoms: P1_4  and  O5'_7 
REMARK    5  A    between atoms: O5'_7  and  C5'_8 
REMARK    6  A    between atoms: C5'_8  and  C4'_9 
REMARK    7  A    between atoms: C3'_11  and  O3'_12 
REMARK    8  A    between atoms: C2'_13  and  O2'_14 
REMARK    9  A    between atoms: C1'_15  and  N9_16 
REMARK   10  A    between atoms: C2_19  and  N2_20 
ROOT
ATOM      1  C4' 777 d   1     -29.330   4.884 -27.087  0.00  0.00     0.089 C 
ATOM      2  O4' 777 d   1     -29.283   4.448 -28.444  0.00  0.00    -0.353 OA
ATOM      3  C3' 777 d   1     -29.755   6.353 -27.103  0.00  0.00     0.091 C 
ATOM      4  C2' 777 d   1     -29.883   6.698 -28.589  0.00  0.00     0.105 C 
ATOM      5  C1' 777 d   1     -29.062   5.599 -29.245  0.00  0.00     0.139 C 
ATOM      6  H9  777 d   1     -28.341   4.791 -26.614  0.00  0.00     0.090 H 
ATOM      7  H10 777 d   1     -30.733   6.469 -26.614  0.00  0.00     0.091 H 
ATOM      8  H12 777 d   1     -30.936   6.618 -28.896  0.00  0.00     0.093 H 
ATOM      9  H14 777 d   1     -27.997   5.875 -29.264  0.00  0.00     0.122 H 
ENDROOT
BRANCH   1  10
ATOM     10  C5' 777 d   1     -30.325   3.998 -26.362  0.00  0.00     0.058 C 
ATOM     11  H7  777 d   1     -31.352   4.293 -26.622  0.00  0.00     0.079 H 
ATOM     12  H8  777 d   1     -30.165   2.946 -26.639  0.00  0.00     0.079 H 
BRANCH  10  13
ATOM     13  O5' 777 d   1     -30.103   4.176 -24.964  0.00  0.00    -0.293 OA
BRANCH  13  14
ATOM     14  P1  777 d   1     -31.278   3.834 -23.913  0.00  0.00     0.359 P 
ATOM     15  O2  777 d   1     -32.055   2.627 -24.390  0.00  0.00    -0.630 OA
ATOM     16  O3  777 d   1     -30.596   3.767 -22.574  0.00  0.00    -0.630 OA
BRANCH  14  17
ATOM     17  N4  777 d   1     -32.296   5.219 -23.968  0.00  0.00    -0.326 N 
ATOM     18  H6  777 d   1     -33.291   5.120 -23.996  0.00  0.00     0.165 HD
BRANCH  17  19
ATOM     19  C1  777 d   1     -31.679   6.541 -23.973  0.00  0.00    -0.005 C 
ATOM     20  H1  777 d   1     -30.610   6.441 -24.211  0.00  0.00     0.063 H 
ATOM     21  H2  777 d   1     -32.167   7.167 -24.735  0.00  0.00     0.063 H 
BRANCH  19  22
ATOM     22  C3  777 d   1     -31.831   7.198 -22.612  0.00  0.00    -0.061 C 
ATOM     23  H3  777 d   1     -31.362   8.193 -22.631  0.00  0.00     0.029 H 
ATOM     24  H4  777 d   1     -31.342   6.576 -21.848  0.00  0.00     0.029 H 
ATOM     25  H5  777 d   1     -32.900   7.301 -22.372  0.00  0.00     0.029 H 
ENDBRANCH  19  22
ENDBRANCH  17  19
ENDBRANCH  14  17
ENDBRANCH  13  14
ENDBRANCH  10  13
ENDBRANCH   1  10
BRANCH   3  26
ATOM     26  O3' 777 d   1     -28.797   7.171 -26.397  0.00  0.00    -0.390 OA
ATOM     27  H11 777 d   1     -27.947   7.093 -26.814  0.00  0.00     0.210 HD
ENDBRANCH   3  26
BRANCH   5  28
ATOM     28  N9  777 d   1     -29.522   5.295 -30.606  0.00  0.00    -0.295 N 
ATOM     29  C4  777 d   1     -28.689   5.130 -31.626  0.00  0.00     0.161 A 
ATOM     30  N3  777 d   1     -27.344   5.211 -31.763  0.00  0.00    -0.174 N 
ATOM     31  C5  777 d   1     -29.546   4.840 -32.771  0.00  0.00     0.171 A 
ATOM     32  C2  777 d   1     -26.792   4.989 -32.982  0.00  0.00     0.680 A 
ATOM     33  H15 777 d   1     -26.749   5.438 -30.953  0.00  0.00     0.186 HD
ATOM     34  N1  777 d   1     -27.536   4.725 -34.077  0.00  0.00    -0.154 N 
ATOM     35  C6  777 d   1     -28.877   4.625 -34.057  0.00  0.00     0.292 A 
ATOM     36  H18 777 d   1     -27.065   4.597 -34.950  0.00  0.00     0.187 HD
ATOM     37  O6  777 d   1     -29.571   4.383 -35.075  0.00  0.00    -0.265 OA
ATOM     38  N7  777 d   1     -30.824   4.831 -32.335  0.00  0.00    -0.234 NA
ATOM     39  C8  777 d   1     -30.793   5.110 -31.010  0.00  0.00     0.071 A 
ATOM     40  H19 777 d   1     -31.668   5.175 -30.365  0.00  0.00     0.144 H 
BRANCH  32  41
ATOM     41  N2  777 d   1     -25.444   5.068 -33.104  0.00  0.00    -0.234 N 
ATOM     42  H16 777 d   1     -24.999   4.904 -34.018  0.00  0.00     0.174 HD
ATOM     43  H17 777 d   1     -24.865   5.292 -32.282  0.00  0.00     0.174 HD
ENDBRANCH  32  41
ENDBRANCH   5  28
BRANCH   4  44
ATOM     44  O2' 777 d   1     -29.425   8.009 -28.949  0.00  0.00    -0.388 OA
ATOM     45  H13 777 d   1     -28.505   8.094 -28.728  0.00  0.00     0.210 HD
ENDBRANCH   4  44
TORSDOF 10
