REMARK  1 active torsions:
REMARK  status: ('A' for Active; 'I' for Inactive)
REMARK    1  A    between atoms: C4_2  and  N4_6 
ROOT
ATOM      1  N3  CYT d   1      -3.517  72.097  79.470  0.00  0.00    -0.296 N 
ATOM      2  C4  CYT d   1      -2.983  70.974  78.988  0.00  0.00     0.083 A 
ATOM      3  N1  CYT d   1      -1.467  73.220  79.042  0.00  0.00    -0.210 NA
ATOM      4  C2  CYT d   1      -2.781  73.236  79.524  0.00  0.00     0.346 A 
ATOM      5  O2  CYT d   1      -3.243  74.275  80.007  0.00  0.00    -0.245 OA
ATOM      6  C5  CYT d   1      -1.647  70.939  78.482  0.00  0.00     0.018 A 
ATOM      7  C6  CYT d   1      -0.934  72.073  78.536  0.00  0.00    -0.006 A 
ATOM      8  H1  CYT d   1      -4.463  72.100  79.793  0.00  0.00     0.172 HD
ATOM      9  H4  CYT d   1      -1.702  70.635  77.426  0.00  0.00     0.052 H 
ATOM     10  H5  CYT d   1      -1.098  70.177  79.055  0.00  0.00     0.052 H 
ATOM     11  H6  CYT d   1       0.091  72.077  78.168  0.00  0.00     0.108 H 
ENDROOT
BRANCH   2  12
ATOM     12  N4  CYT d   1      -3.754  69.881  78.973  0.00  0.00    -0.389 N 
ATOM     13  H2  CYT d   1      -3.381  68.993  78.609  0.00  0.00     0.157 HD
ATOM     14  H3  CYT d   1      -4.721  69.928  79.325  0.00  0.00     0.157 HD
ENDBRANCH   2  12
TORSDOF 1
