REMARK  17 active torsions:
REMARK  status: ('A' for Active; 'I' for Inactive)
REMARK    1  A    between atoms: C_1  and  C2_4 
REMARK       I    between atoms: N_13  and  C_1 
REMARK    2  A    between atoms: CA_14  and  N_13 
REMARK    3  A    between atoms: C1_15  and  CA_14 
REMARK    4  A    between atoms: CA_14  and  CB_17 
REMARK       I    between atoms: N2_24  and  C1_15 
REMARK    5  A    between atoms: CB_17  and  CG_18 
REMARK       I    between atoms: CG_18  and  ND2_20 
REMARK    6  A    between atoms: C9_21  and  O2_22 
REMARK    7  A    between atoms: CA1_23  and  C9_21 
REMARK    8  A    between atoms: C9_21  and  CM_33 
REMARK    9  A    between atoms: CA1_23  and  N2_24 
REMARK   10  A    between atoms: CA1_23  and  CB1_25 
REMARK   11  A    between atoms: CB1_25  and  CG1_26 
REMARK   12  A    between atoms: CM_33  and  N11_32 
REMARK   13  A    between atoms: C21_34  and  CC_35 
REMARK       I    between atoms: CC_35  and  N3_45 
REMARK   14  A    between atoms: N3_45  and  CD_46 
REMARK   15  A    between atoms: CD_46  and  C11_47 
REMARK   16  A    between atoms: CD_46  and  C22_48 
REMARK   17  A    between atoms: CD_46  and  C32_49 
ROOT
ATOM      1  C9  ROC d   1     -17.593  13.915 -18.745  0.00  0.00     0.078 C 
ATOM      2  H13 ROC d   1     -16.560  13.792 -18.388  0.00  0.00     0.088 H 
ENDROOT
BRANCH   1   3
ATOM      3  O2  ROC d   1     -18.368  14.375 -17.680  0.00  0.00    -0.392 OA
ATOM      4  H14 ROC d   1     -18.035  15.215 -17.387  0.00  0.00     0.210 HD
ENDBRANCH   1   3
BRANCH   1   5
ATOM      5  CA1 ROC d   1     -18.087  12.560 -19.259  0.00  0.00     0.042 C 
ATOM      6  H15 ROC d   1     -17.566  12.287 -20.189  0.00  0.00     0.077 H 
BRANCH   5   7
ATOM      7  N2  ROC d   1     -17.808  11.644 -18.221  0.00  0.00    -0.352 N 
ATOM      8  C1  ROC d   1     -16.899  10.549 -18.455  0.00  0.00     0.241 C 
ATOM      9  O1  ROC d   1     -16.372  10.360 -19.537  0.00  0.00    -0.271 OA
ATOM     10  H16 ROC d   1     -18.240  11.754 -17.326  0.00  0.00     0.163 HD
BRANCH   8  11
ATOM     11  CA  ROC d   1     -16.641   9.616 -17.282  0.00  0.00     0.097 C 
ATOM     12  H8  ROC d   1     -16.901  10.099 -16.329  0.00  0.00     0.088 H 
BRANCH  11  13
ATOM     13  N   ROC d   1     -17.503   8.531 -17.532  0.00  0.00    -0.342 N 
ATOM     14  C   ROC d   1     -18.342   8.002 -16.507  0.00  0.00     0.271 C 
ATOM     15  O   ROC d   1     -18.338   8.468 -15.379  0.00  0.00    -0.266 OA
ATOM     16  H7  ROC d   1     -17.527   8.124 -18.445  0.00  0.00     0.163 HD
BRANCH  14  17
ATOM     17  C2  ROC d   1     -19.243   6.843 -16.960  0.00  0.00     0.125 A 
ATOM     18  N1  ROC d   1     -18.713   6.083 -17.960  0.00  0.00    -0.243 NA
ATOM     19  C8A ROC d   1     -19.439   5.028 -18.478  0.00  0.00     0.068 A 
ATOM     20  C8  ROC d   1     -18.886   4.230 -19.503  0.00  0.00    -0.054 A 
ATOM     21  C4A ROC d   1     -20.697   4.756 -17.988  0.00  0.00    -0.007 A 
ATOM     22  C7  ROC d   1     -19.625   3.155 -20.018  0.00  0.00    -0.081 A 
ATOM     23  H6  ROC d   1     -17.897   4.447 -19.889  0.00  0.00     0.087 H 
ATOM     24  C6  ROC d   1     -20.896   2.880 -19.521  0.00  0.00    -0.082 A 
ATOM     25  H5  ROC d   1     -19.206   2.537 -20.804  0.00  0.00     0.083 H 
ATOM     26  C5  ROC d   1     -21.439   3.675 -18.514  0.00  0.00    -0.071 A 
ATOM     27  H4  ROC d   1     -21.464   2.046 -19.918  0.00  0.00     0.083 H 
ATOM     28  H3  ROC d   1     -22.432   3.464 -18.134  0.00  0.00     0.084 H 
ATOM     29  C4  ROC d   1     -21.236   5.544 -16.985  0.00  0.00    -0.068 A 
ATOM     30  C3  ROC d   1     -20.517   6.588 -16.480  0.00  0.00    -0.049 A 
ATOM     31  H2  ROC d   1     -22.227   5.332 -16.602  0.00  0.00     0.085 H 
ATOM     32  H1  ROC d   1     -20.942   7.216 -15.705  0.00  0.00     0.087 H 
ENDBRANCH  14  17
ENDBRANCH  11  13
BRANCH  11  33
ATOM     33  CB  ROC d   1     -15.198   9.224 -17.255  0.00  0.00     0.036 C 
ATOM     34  H9  ROC d   1     -14.566  10.124 -17.275  0.00  0.00     0.051 H 
ATOM     35  H10 ROC d   1     -14.966   8.594 -18.126  0.00  0.00     0.051 H 
BRANCH  33  36
ATOM     36  CG  ROC d   1     -14.949   8.451 -15.982  0.00  0.00     0.217 C 
ATOM     37  OD1 ROC d   1     -14.958   9.011 -14.894  0.00  0.00    -0.274 OA
ATOM     38  ND2 ROC d   1     -14.722   7.051 -16.066  0.00  0.00    -0.370 N 
ATOM     39  H11 ROC d   1     -14.555   6.521 -15.235  0.00  0.00     0.159 HD
ATOM     40  H12 ROC d   1     -14.729   6.596 -16.956  0.00  0.00     0.159 HD
ENDBRANCH  33  36
ENDBRANCH  11  33
ENDBRANCH   8  11
ENDBRANCH   5   7
BRANCH   5  41
ATOM     41  CB1 ROC d   1     -19.578  12.546 -19.477  0.00  0.00    -0.020 C 
ATOM     42  H17 ROC d   1     -19.812  13.164 -20.356  0.00  0.00     0.043 H 
ATOM     43  H18 ROC d   1     -20.069  12.971 -18.589  0.00  0.00     0.043 H 
BRANCH  41  44
ATOM     44  CG1 ROC d   1     -20.127  11.122 -19.712  0.00  0.00    -0.056 A 
ATOM     45  CD1 ROC d   1     -20.647  10.379 -18.654  0.00  0.00    -0.077 A 
ATOM     46  CE1 ROC d   1     -21.161   9.107 -18.881  0.00  0.00    -0.082 A 
ATOM     47  H19 ROC d   1     -20.651  10.793 -17.652  0.00  0.00     0.084 H 
ATOM     48  CZ  ROC d   1     -21.171   8.583 -20.170  0.00  0.00    -0.083 A 
ATOM     49  H21 ROC d   1     -21.553   8.525 -18.055  0.00  0.00     0.083 H 
ATOM     50  CE2 ROC d   1     -20.677   9.327 -21.231  0.00  0.00    -0.082 A 
ATOM     51  H23 ROC d   1     -21.567   7.589 -20.346  0.00  0.00     0.083 H 
ATOM     52  CD2 ROC d   1     -20.154  10.592 -20.995  0.00  0.00    -0.077 A 
ATOM     53  H22 ROC d   1     -20.699   8.924 -22.237  0.00  0.00     0.083 H 
ATOM     54  H20 ROC d   1     -19.762  11.172 -21.823  0.00  0.00     0.084 H 
ENDBRANCH  41  44
ENDBRANCH   5  41
ENDBRANCH   1   5
BRANCH   1  55
ATOM     55  CM  ROC d   1     -17.593  14.937 -19.892  0.00  0.00     0.110 C 
ATOM     56  H25 ROC d   1     -17.614  15.957 -19.482  0.00  0.00     0.080 H 
ATOM     57  H26 ROC d   1     -18.475  14.780 -20.530  0.00  0.00     0.080 H 
BRANCH  55  58
ATOM     58  N11 ROC d   1     -16.365  14.743 -20.682  0.00  0.00    -0.055 N 
ATOM     59  C21 ROC d   1     -16.566  15.494 -21.977  0.00  0.00     0.180 C 
ATOM     60  C31 ROC d   1     -15.293  15.614 -22.827  0.00  0.00    -0.026 C 
ATOM     61  H27 ROC d   1     -16.887  16.515 -21.723  0.00  0.00     0.100 H 
ATOM     62  C3A ROC d   1     -14.156  16.185 -22.029  0.00  0.00    -0.047 C 
ATOM     63  H28 ROC d   1     -15.495  16.273 -23.684  0.00  0.00     0.037 H 
ATOM     64  H29 ROC d   1     -15.009  14.615 -23.191  0.00  0.00     0.037 H 
ATOM     65  C41 ROC d   1     -12.905  16.148 -22.948  0.00  0.00    -0.061 C 
ATOM     66  C7A ROC d   1     -13.942  15.434 -20.744  0.00  0.00    -0.027 C 
ATOM     67  H30 ROC d   1     -14.384  17.231 -21.777  0.00  0.00     0.040 H 
ATOM     68  C51 ROC d   1     -12.407  14.716 -23.156  0.00  0.00    -0.065 C 
ATOM     69  H31 ROC d   1     -12.103  16.742 -22.485  0.00  0.00     0.033 H 
ATOM     70  H32 ROC d   1     -13.165  16.582 -23.925  0.00  0.00     0.033 H 
ATOM     71  C61 ROC d   1     -12.126  14.034 -21.832  0.00  0.00    -0.065 C 
ATOM     72  H33 ROC d   1     -11.482  14.741 -23.750  0.00  0.00     0.033 H 
ATOM     73  H34 ROC d   1     -13.175  14.145 -23.698  0.00  0.00     0.033 H 
ATOM     74  C71 ROC d   1     -13.404  14.005 -20.992  0.00  0.00    -0.060 C 
ATOM     75  H35 ROC d   1     -11.345  14.589 -21.292  0.00  0.00     0.033 H 
ATOM     76  H36 ROC d   1     -11.784  13.005 -22.015  0.00  0.00     0.033 H 
ATOM     77  H37 ROC d   1     -13.187  13.530 -20.024  0.00  0.00     0.033 H 
ATOM     78  H38 ROC d   1     -14.170  13.421 -21.523  0.00  0.00     0.033 H 
ATOM     79  C81 ROC d   1     -15.218  15.293 -19.908  0.00  0.00     0.088 C 
ATOM     80  H39 ROC d   1     -13.200  15.993 -20.155  0.00  0.00     0.043 H 
ATOM     81  H40 ROC d   1     -15.011  14.620 -19.063  0.00  0.00     0.076 H 
ATOM     82  H41 ROC d   1     -15.498  16.286 -19.526  0.00  0.00     0.076 H 
ATOM     83  H24 ROC d   1     -16.212  13.764 -20.869  0.00  0.00     0.281 HD
BRANCH  59  84
ATOM     84  CC  ROC d   1     -17.652  14.845 -22.754  0.00  0.00     0.249 C 
ATOM     85  O3  ROC d   1     -17.876  13.661 -22.656  0.00  0.00    -0.271 OA
ATOM     86  N3  ROC d   1     -18.394  15.744 -23.614  0.00  0.00    -0.351 N 
ATOM     87  H42 ROC d   1     -18.128  16.708 -23.612  0.00  0.00     0.163 HD
BRANCH  86  88
ATOM     88  CD  ROC d   1     -19.491  15.355 -24.476  0.00  0.00     0.022 C 
BRANCH  88  89
ATOM     89  C11 ROC d   1     -19.010  14.348 -25.510  0.00  0.00    -0.054 C 
ATOM     90  H43 ROC d   1     -19.850  14.059 -26.159  0.00  0.00     0.030 H 
ATOM     91  H44 ROC d   1     -18.618  13.456 -24.999  0.00  0.00     0.030 H 
ATOM     92  H45 ROC d   1     -18.214  14.800 -26.120  0.00  0.00     0.030 H 
ENDBRANCH  88  89
BRANCH  88  93
ATOM     93  C22 ROC d   1     -20.636  14.790 -23.644  0.00  0.00    -0.054 C 
ATOM     94  H46 ROC d   1     -21.463  14.498 -24.308  0.00  0.00     0.030 H 
ATOM     95  H47 ROC d   1     -20.987  15.555 -22.936  0.00  0.00     0.030 H 
ATOM     96  H48 ROC d   1     -20.285  13.909 -23.087  0.00  0.00     0.030 H 
ENDBRANCH  88  93
BRANCH  88  97
ATOM     97  C32 ROC d   1     -19.944  16.617 -25.166  0.00  0.00    -0.054 C 
ATOM     98  H49 ROC d   1     -20.782  16.386 -25.840  0.00  0.00     0.030 H 
ATOM     99  H50 ROC d   1     -19.110  17.036 -25.748  0.00  0.00     0.030 H 
ATOM    100  H51 ROC d   1     -20.270  17.350 -24.413  0.00  0.00     0.030 H 
ENDBRANCH  88  97
ENDBRANCH  86  88
ENDBRANCH  59  84
ENDBRANCH  55  58
ENDBRANCH   1  55
TORSDOF 17
