REMARK  16 active torsions:
REMARK  status: ('A' for Active; 'I' for Inactive)
REMARK    1  A    between atoms: C2_2  and  N1_1 
REMARK    2  A    between atoms: S8_8  and  C5_5 
REMARK    3  A    between atoms: N11_11  and  S8_8 
REMARK    4  A    between atoms: N11_11  and  C12_12 
REMARK    5  A    between atoms: C16_16  and  N11_11 
REMARK    6  A    between atoms: C12_12  and  C13_13 
REMARK    7  A    between atoms: C13_13  and  C14_14 
REMARK    8  A    between atoms: C13_13  and  C15_15 
REMARK    9  A    between atoms: C17_17  and  C16_16 
REMARK   10  A    between atoms: C17_17  and  O18_18 
REMARK   11  A    between atoms: C19_19  and  C17_17 
REMARK   12  A    between atoms: C19_19  and  N20_20 
REMARK   13  A    between atoms: C32_32  and  C19_19 
REMARK       I    between atoms: N20_20  and  C21_21 
REMARK   14  A    between atoms: C21_21  and  O23_23 
REMARK   15  A    between atoms: O23_23  and  C24_24 
REMARK   16  A    between atoms: C38_38  and  C32_32 
ROOT
ATOM      1  C17 017 d   1     -17.814  13.625 -19.014  0.00  0.00     0.071 C 
ATOM      2  H18 017 d   1     -18.661  13.171 -19.550  0.00  0.00     0.088 H 
ENDROOT
BRANCH   1   3
ATOM      3  C16 017 d   1     -17.237  12.579 -18.050  0.00  0.00     0.031 C 
ATOM      4  H16 017 d   1     -16.197  12.839 -17.804  0.00  0.00     0.069 H 
ATOM      5  H17 017 d   1     -17.837  12.557 -17.128  0.00  0.00     0.069 H 
BRANCH   3   6
ATOM      6  N11 017 d   1     -17.276  11.253 -18.698  0.00  0.00    -0.304 N 
BRANCH   6   7
ATOM      7  S8  017 d   1     -15.801  10.530 -19.103  0.00  0.00     0.260 S 
ATOM      8  O9  017 d   1     -14.777  11.508 -19.273  0.00  0.00    -0.200 OA
ATOM      9  O10 017 d   1     -15.951   9.830 -20.332  0.00  0.00    -0.200 OA
BRANCH   7  10
ATOM     10  C5  017 d   1     -15.321   9.382 -17.789  0.00  0.00     0.079 A 
ATOM     11  C4  017 d   1     -15.646   8.043 -17.946  0.00  0.00    -0.058 A 
ATOM     12  C3  017 d   1     -15.298   7.136 -16.958  0.00  0.00    -0.056 A 
ATOM     13  H4  017 d   1     -16.168   7.708 -18.835  0.00  0.00     0.086 H 
ATOM     14  C2  017 d   1     -14.624   7.580 -15.829  0.00  0.00     0.025 A 
ATOM     15  H3  017 d   1     -15.550   6.087 -17.066  0.00  0.00     0.086 H 
ATOM     16  C7  017 d   1     -14.298   8.920 -15.669  0.00  0.00    -0.056 A 
ATOM     17  C6  017 d   1     -14.648   9.834 -16.666  0.00  0.00    -0.058 A 
ATOM     18  H6  017 d   1     -13.777   9.254 -14.779  0.00  0.00     0.086 H 
ATOM     19  H5  017 d   1     -14.396  10.883 -16.562  0.00  0.00     0.086 H 
BRANCH  14  20
ATOM     20  N1  017 d   1     -14.273   6.630 -14.819  0.00  0.00    -0.399 N 
ATOM     21  H1  017 d   1     -14.516   5.636 -14.940  0.00  0.00     0.156 HD
ATOM     22  H2  017 d   1     -13.777   6.939 -13.971  0.00  0.00     0.156 HD
ENDBRANCH  14  20
ENDBRANCH   7  10
ENDBRANCH   6   7
BRANCH   6  23
ATOM     23  C12 017 d   1     -18.384  10.340 -18.438  0.00  0.00     0.008 C 
ATOM     24  H7  017 d   1     -18.595  10.363 -17.359  0.00  0.00     0.066 H 
ATOM     25  H8  017 d   1     -18.064   9.328 -18.727  0.00  0.00     0.066 H 
BRANCH  23  26
ATOM     26  C13 017 d   1     -19.705  10.656 -19.190  0.00  0.00    -0.045 C 
ATOM     27  H9  017 d   1     -20.082  11.645 -18.889  0.00  0.00     0.041 H 
BRANCH  26  28
ATOM     28  C14 017 d   1     -19.521  10.614 -20.705  0.00  0.00    -0.072 C 
ATOM     29  H10 017 d   1     -20.478  10.843 -21.197  0.00  0.00     0.028 H 
ATOM     30  H11 017 d   1     -19.185   9.611 -21.006  0.00  0.00     0.028 H 
ATOM     31  H12 017 d   1     -18.768  11.358 -21.004  0.00  0.00     0.028 H 
ENDBRANCH  26  28
BRANCH  26  32
ATOM     32  C15 017 d   1     -20.688   9.567 -18.812  0.00  0.00    -0.072 C 
ATOM     33  H13 017 d   1     -20.841   9.573 -17.723  0.00  0.00     0.028 H 
ATOM     34  H14 017 d   1     -20.289   8.589 -19.121  0.00  0.00     0.028 H 
ATOM     35  H15 017 d   1     -21.648   9.748 -19.318  0.00  0.00     0.028 H 
ENDBRANCH  26  32
ENDBRANCH  23  26
ENDBRANCH   6  23
ENDBRANCH   3   6
ENDBRANCH   1   3
BRANCH   1  36
ATOM     36  O18 017 d   1     -18.279  14.713 -18.283  0.00  0.00    -0.392 OA
ATOM     37  H19 017 d   1     -18.956  14.424 -17.683  0.00  0.00     0.210 HD
ENDBRANCH   1  36
BRANCH   1  38
ATOM     38  C19 017 d   1     -16.787  14.087 -20.051  0.00  0.00     0.044 C 
ATOM     39  H20 017 d   1     -16.457  13.220 -20.643  0.00  0.00     0.077 H 
BRANCH  38  40
ATOM     40  N20 017 d   1     -17.446  15.040 -20.873  0.00  0.00    -0.329 N 
ATOM     41  C21 017 d   1     -17.935  14.733 -22.188  0.00  0.00     0.361 C 
ATOM     42  O22 017 d   1     -17.756  13.657 -22.743  0.00  0.00    -0.238 OA
ATOM     43  H21 017 d   1     -17.575  15.967 -20.520  0.00  0.00     0.165 HD
BRANCH  41  44
ATOM     44  O23 017 d   1     -18.658  15.800 -22.798  0.00  0.00    -0.296 OA
BRANCH  44  45
ATOM     45  C24 017 d   1     -18.915  15.739 -24.154  0.00  0.00     0.081 C 
ATOM     46  C25 017 d   1     -20.274  16.279 -24.341  0.00  0.00     0.048 C 
ATOM     47  O26 017 d   1     -20.123  17.579 -24.252  0.00  0.00    -0.358 OA
ATOM     48  H23 017 d   1     -20.951  15.911 -23.556  0.00  0.00     0.078 H 
ATOM     49  H24 017 d   1     -20.672  16.000 -25.328  0.00  0.00     0.078 H 
ATOM     50  C27 017 d   1     -18.684  17.885 -24.865  0.00  0.00     0.145 C 
ATOM     51  O28 017 d   1     -17.975  18.862 -23.930  0.00  0.00    -0.332 OA
ATOM     52  C31 017 d   1     -18.041  16.809 -24.884  0.00  0.00     0.040 C 
ATOM     53  H25 017 d   1     -18.769  18.307 -25.877  0.00  0.00     0.130 H 
ATOM     54  C29 017 d   1     -16.853  18.081 -23.325  0.00  0.00     0.013 C 
ATOM     55  C30 017 d   1     -16.653  17.103 -24.119  0.00  0.00    -0.071 C 
ATOM     56  H26 017 d   1     -16.319  18.301 -22.401  0.00  0.00     0.122 H 
ATOM     57  H27 017 d   1     -15.716  16.565 -24.255  0.00  0.00     0.080 H 
ATOM     58  H28 017 d   1     -17.840  16.485 -25.916  0.00  0.00     0.057 H 
ATOM     59  H22 017 d   1     -18.783  14.724 -24.558  0.00  0.00     0.088 H 
ENDBRANCH  44  45
ENDBRANCH  41  44
ENDBRANCH  38  40
BRANCH  38  60
ATOM     60  C32 017 d   1     -15.566  14.792 -19.472  0.00  0.00    -0.020 C 
ATOM     61  H29 017 d   1     -15.036  14.122 -18.780  0.00  0.00     0.043 H 
ATOM     62  H30 017 d   1     -15.874  15.703 -18.937  0.00  0.00     0.043 H 
BRANCH  60  63
ATOM     63  C38 017 d   1     -14.651  15.159 -20.660  0.00  0.00    -0.056 A 
ATOM     64  C33 017 d   1     -14.609  16.528 -20.903  0.00  0.00    -0.077 A 
ATOM     65  C34 017 d   1     -13.846  17.041 -21.952  0.00  0.00    -0.082 A 
ATOM     66  H31 017 d   1     -15.175  17.203 -20.271  0.00  0.00     0.084 H 
ATOM     67  C35 017 d   1     -13.116  16.181 -22.760  0.00  0.00    -0.083 A 
ATOM     68  H32 017 d   1     -13.823  18.109 -22.136  0.00  0.00     0.083 H 
ATOM     69  C36 017 d   1     -13.158  14.807 -22.511  0.00  0.00    -0.082 A 
ATOM     70  H33 017 d   1     -12.519  16.571 -23.576  0.00  0.00     0.083 H 
ATOM     71  C37 017 d   1     -13.918  14.297 -21.464  0.00  0.00    -0.077 A 
ATOM     72  H34 017 d   1     -12.592  14.131 -23.141  0.00  0.00     0.083 H 
ATOM     73  H35 017 d   1     -13.938  13.230 -21.276  0.00  0.00     0.084 H 
ENDBRANCH  60  63
ENDBRANCH  38  60
ENDBRANCH   1  38
TORSDOF 16
