REMARK  16 active torsions:
REMARK  status: ('A' for Active; 'I' for Inactive)
REMARK       I    between atoms: N1_26  and  C3_3 
REMARK    1  A    between atoms: C3_3  and  O1_29 
REMARK    2  A    between atoms: O1_29  and  C4_4 
REMARK    3  A    between atoms: C6_6  and  C5_5 
REMARK    4  A    between atoms: C5_5  and  C7_7 
REMARK    5  A    between atoms: C5_5  and  N1_26 
REMARK    6  A    between atoms: C14_14  and  C6_6 
REMARK    7  A    between atoms: C6_6  and  O3_31 
REMARK    8  A    between atoms: C7_7  and  C8_8 
REMARK    9  A    between atoms: N2_27  and  C14_14 
REMARK   10  A    between atoms: C15_15  and  C16_16 
REMARK   11  A    between atoms: N2_27  and  C15_15 
REMARK   12  A    between atoms: C16_16  and  C23_23 
REMARK   13  A    between atoms: C16_16  and  C24_24 
REMARK   14  A    between atoms: S1_35  and  C17_17 
REMARK   15  A    between atoms: C20_20  and  N3_28 
REMARK   16  A    between atoms: N2_27  and  S1_35 
ROOT
ATOM      1  C6  478 d   1     -17.650  13.779 -19.034  0.00  0.00     0.071 C 
ATOM      2  H7  478 d   1     -18.591  13.403 -19.462  0.00  0.00     0.088 H 
ENDROOT
BRANCH   1   3
ATOM      3  C5  478 d   1     -16.717  14.152 -20.165  0.00  0.00     0.044 C 
ATOM      4  H6  478 d   1     -16.433  13.248 -20.723  0.00  0.00     0.077 H 
BRANCH   3   5
ATOM      5  C7  478 d   1     -15.451  14.871 -19.653  0.00  0.00    -0.020 C 
ATOM      6  H8  478 d   1     -14.914  14.222 -18.945  0.00  0.00     0.043 H 
ATOM      7  H9  478 d   1     -15.732  15.808 -19.151  0.00  0.00     0.043 H 
BRANCH   5   8
ATOM      8  C8  478 d   1     -14.554  15.177 -20.863  0.00  0.00    -0.056 A 
ATOM      9  C9  478 d   1     -14.595  16.443 -21.480  0.00  0.00    -0.077 A 
ATOM     10  C11 478 d   1     -13.786  16.703 -22.570  0.00  0.00    -0.082 A 
ATOM     11  H10 478 d   1     -15.259  17.211 -21.101  0.00  0.00     0.084 H 
ATOM     12  C13 478 d   1     -12.947  15.728 -23.064  0.00  0.00    -0.083 A 
ATOM     13  H12 478 d   1     -13.812  17.680 -23.039  0.00  0.00     0.083 H 
ATOM     14  C12 478 d   1     -12.909  14.476 -22.460  0.00  0.00    -0.082 A 
ATOM     15  H14 478 d   1     -12.318  15.937 -23.922  0.00  0.00     0.083 H 
ATOM     16  C10 478 d   1     -13.719  14.203 -21.356  0.00  0.00    -0.077 A 
ATOM     17  H13 478 d   1     -12.248  13.709 -22.848  0.00  0.00     0.083 H 
ATOM     18  H11 478 d   1     -13.689  13.225 -20.889  0.00  0.00     0.084 H 
ENDBRANCH   5   8
ENDBRANCH   3   5
BRANCH   3  19
ATOM     19  N1  478 d   1     -17.393  15.068 -21.008  0.00  0.00    -0.329 N 
ATOM     20  C3  478 d   1     -17.626  14.810 -22.382  0.00  0.00     0.361 C 
ATOM     21  O2  478 d   1     -17.465  13.716 -22.864  0.00  0.00    -0.238 OA
ATOM     22  H32 478 d   1     -17.718  15.930 -20.619  0.00  0.00     0.165 HD
BRANCH  20  23
ATOM     23  O1  478 d   1     -18.087  15.919 -23.188  0.00  0.00    -0.296 OA
BRANCH  23  24
ATOM     24  C4  478 d   1     -18.586  15.587 -24.516  0.00  0.00     0.072 C 
ATOM     25  C1  478 d   1     -18.684  16.935 -25.302  0.00  0.00     0.044 C 
ATOM     26  O6  478 d   1     -19.998  17.515 -24.763  0.00  0.00    -0.389 OA
ATOM     27  H1  478 d   1     -18.737  16.763 -26.387  0.00  0.00     0.078 H 
ATOM     28  H2  478 d   1     -17.832  17.594 -25.076  0.00  0.00     0.078 H 
ATOM     29  C25 478 d   1     -20.784  16.460 -24.661  0.00  0.00     0.022 C 
ATOM     30  C2  478 d   1     -19.814  15.165 -24.413  0.00  0.00    -0.018 C 
ATOM     31  H30 478 d   1     -21.474  16.583 -23.813  0.00  0.00     0.074 H 
ATOM     32  H31 478 d   1     -21.361  16.328 -25.588  0.00  0.00     0.074 H 
ATOM     33  H3  478 d   1     -19.988  14.749 -23.410  0.00  0.00     0.040 H 
ATOM     34  H4  478 d   1     -20.013  14.393 -25.170  0.00  0.00     0.040 H 
ATOM     35  H5  478 d   1     -17.940  14.853 -25.020  0.00  0.00     0.087 H 
ENDBRANCH  23  24
ENDBRANCH  20  23
ENDBRANCH   3  19
ENDBRANCH   1   3
BRANCH   1  36
ATOM     36  C14 478 d   1     -17.050  12.684 -18.115  0.00  0.00     0.031 C 
ATOM     37  H15 478 d   1     -17.612  12.664 -17.169  0.00  0.00     0.069 H 
ATOM     38  H16 478 d   1     -15.997  12.927 -17.911  0.00  0.00     0.069 H 
BRANCH  36  39
ATOM     39  N2  478 d   1     -17.120  11.370 -18.733  0.00  0.00    -0.304 N 
BRANCH  39  40
ATOM     40  C15 478 d   1     -18.225  10.471 -18.387  0.00  0.00     0.008 C 
ATOM     41  H17 478 d   1     -17.909   9.439 -18.600  0.00  0.00     0.066 H 
ATOM     42  H18 478 d   1     -18.431  10.577 -17.312  0.00  0.00     0.066 H 
BRANCH  40  43
ATOM     43  C16 478 d   1     -19.553  10.748 -19.170  0.00  0.00    -0.045 C 
ATOM     44  H19 478 d   1     -19.897  11.776 -18.981  0.00  0.00     0.041 H 
BRANCH  43  45
ATOM     45  C23 478 d   1     -19.356  10.534 -20.647  0.00  0.00    -0.072 C 
ATOM     46  H24 478 d   1     -20.300  10.734 -21.175  0.00  0.00     0.028 H 
ATOM     47  H25 478 d   1     -19.047   9.494 -20.829  0.00  0.00     0.028 H 
ATOM     48  H26 478 d   1     -18.577  11.218 -21.016  0.00  0.00     0.028 H 
ENDBRANCH  43  45
BRANCH  43  49
ATOM     49  C24 478 d   1     -20.583   9.739 -18.688  0.00  0.00    -0.072 C 
ATOM     50  H27 478 d   1     -20.749   9.871 -17.609  0.00  0.00     0.028 H 
ATOM     51  H28 478 d   1     -20.216   8.720 -18.881  0.00  0.00     0.028 H 
ATOM     52  H29 478 d   1     -21.529   9.896 -19.226  0.00  0.00     0.028 H 
ENDBRANCH  43  49
ENDBRANCH  40  43
ENDBRANCH  39  40
BRANCH  39  53
ATOM     53  S1  478 d   1     -15.656  10.625 -19.102  0.00  0.00     0.260 S 
ATOM     54  O4  478 d   1     -14.636  11.606 -19.363  0.00  0.00    -0.200 OA
ATOM     55  O5  478 d   1     -15.809   9.809 -20.247  0.00  0.00    -0.200 OA
BRANCH  53  56
ATOM     56  C17 478 d   1     -15.142   9.641 -17.685  0.00  0.00     0.079 A 
ATOM     57  C18 478 d   1     -14.433  10.300 -16.677  0.00  0.00    -0.058 A 
ATOM     58  C19 478 d   1     -14.018   9.601 -15.550  0.00  0.00    -0.056 A 
ATOM     59  H20 478 d   1     -14.207  11.356 -16.774  0.00  0.00     0.086 H 
ATOM     60  C20 478 d   1     -14.313   8.237 -15.436  0.00  0.00     0.025 A 
ATOM     61  H21 478 d   1     -13.470  10.108 -14.764  0.00  0.00     0.086 H 
ATOM     62  C21 478 d   1     -15.022   7.572 -16.442  0.00  0.00    -0.056 A 
ATOM     63  C22 478 d   1     -15.445   8.276 -17.588  0.00  0.00    -0.058 A 
ATOM     64  H22 478 d   1     -15.246   6.516 -16.340  0.00  0.00     0.086 H 
ATOM     65  H23 478 d   1     -15.992   7.773 -18.377  0.00  0.00     0.086 H 
BRANCH  60  66
ATOM     66  N3  478 d   1     -13.862   7.535 -14.251  0.00  0.00    -0.399 N 
ATOM     67  H33 478 d   1     -13.341   8.040 -13.520  0.00  0.00     0.156 HD
ATOM     68  H34 478 d   1     -14.062   6.531 -14.140  0.00  0.00     0.156 HD
ENDBRANCH  60  66
ENDBRANCH  53  56
ENDBRANCH  39  53
ENDBRANCH  36  39
ENDBRANCH   1  36
BRANCH   1  69
ATOM     69  O3  478 d   1     -17.908  14.908 -18.278  0.00  0.00    -0.392 OA
ATOM     70  H35 478 d   1     -18.526  14.692 -17.590  0.00  0.00     0.210 HD
ENDBRANCH   1  69
TORSDOF 16
