REMARK  16 active torsions:
REMARK  status: ('A' for Active; 'I' for Inactive)
REMARK    1  A    between atoms: C2_2  and  N1_1 
REMARK    2  A    between atoms: S8_8  and  C5_5 
REMARK    3  A    between atoms: N11_11  and  S8_8 
REMARK    4  A    between atoms: N11_11  and  C12_12 
REMARK    5  A    between atoms: C16_16  and  N11_11 
REMARK    6  A    between atoms: C12_12  and  C13_13 
REMARK    7  A    between atoms: C13_13  and  C14_14 
REMARK    8  A    between atoms: C13_13  and  C15_15 
REMARK    9  A    between atoms: C17_17  and  C16_16 
REMARK   10  A    between atoms: C17_17  and  O18_18 
REMARK   11  A    between atoms: C19_19  and  C17_17 
REMARK   12  A    between atoms: C19_19  and  N20_20 
REMARK   13  A    between atoms: C32_32  and  C19_19 
REMARK       I    between atoms: N20_20  and  C21_21 
REMARK   14  A    between atoms: C21_21  and  O23_23 
REMARK   15  A    between atoms: O23_23  and  C24_24 
REMARK   16  A    between atoms: C38_38  and  C32_32 
ROOT
ATOM      1  C17 017 d   1      -5.371  -0.883 -15.918  0.00  0.00     0.071 C 
ATOM      2  H18 017 d   1      -4.362  -1.304 -15.794  0.00  0.00     0.088 H 
ENDROOT
BRANCH   1   3
ATOM      3  C16 017 d   1      -6.273  -1.985 -16.475  0.00  0.00     0.031 C 
ATOM      4  H16 017 d   1      -7.324  -1.728 -16.274  0.00  0.00     0.069 H 
ATOM      5  H17 017 d   1      -6.116  -2.066 -17.561  0.00  0.00     0.069 H 
BRANCH   3   6
ATOM      6  N11 017 d   1      -5.961  -3.290 -15.839  0.00  0.00    -0.304 N 
BRANCH   6   7
ATOM      7  S8  017 d   1      -7.137  -3.915 -14.810  0.00  0.00     0.260 S 
ATOM      8  O9  017 d   1      -7.917  -2.838 -14.292  0.00  0.00    -0.200 OA
ATOM      9  O10 017 d   1      -6.482  -4.609 -13.751  0.00  0.00    -0.200 OA
BRANCH   7  10
ATOM     10  C5  017 d   1      -8.158  -5.084 -15.741  0.00  0.00     0.079 A 
ATOM     11  C4  017 d   1      -7.750  -6.409 -15.738  0.00  0.00    -0.058 A 
ATOM     12  C3  017 d   1      -8.472  -7.360 -16.444  0.00  0.00    -0.056 A 
ATOM     13  H4  017 d   1      -6.866  -6.702 -15.183  0.00  0.00     0.086 H 
ATOM     14  C2  017 d   1      -9.596  -6.978 -17.155  0.00  0.00     0.025 A 
ATOM     15  H3  017 d   1      -8.157  -8.397 -16.439  0.00  0.00     0.086 H 
ATOM     16  C7  017 d   1     -10.009  -5.652 -17.167  0.00  0.00    -0.056 A 
ATOM     17  C6  017 d   1      -9.283  -4.686 -16.451  0.00  0.00    -0.058 A 
ATOM     18  H6  017 d   1     -10.890  -5.363 -17.728  0.00  0.00     0.086 H 
ATOM     19  H5  017 d   1      -9.595  -3.648 -16.453  0.00  0.00     0.086 H 
BRANCH  14  20
ATOM     20  N1  017 d   1     -10.322  -7.987 -17.870  0.00  0.00    -0.399 N 
ATOM     21  H1  017 d   1     -10.000  -8.965 -17.849  0.00  0.00     0.156 HD
ATOM     22  H2  017 d   1     -11.165  -7.734 -18.404  0.00  0.00     0.156 HD
ENDBRANCH  14  20
ENDBRANCH   7  10
ENDBRANCH   6   7
BRANCH   6  23
ATOM     23  C12 017 d   1      -5.099  -4.267 -16.516  0.00  0.00     0.008 C 
ATOM     24  H7  017 d   1      -5.434  -4.356 -17.560  0.00  0.00     0.066 H 
ATOM     25  H8  017 d   1      -5.215  -5.237 -16.010  0.00  0.00     0.066 H 
BRANCH  23  26
ATOM     26  C13 017 d   1      -3.591  -3.898 -16.519  0.00  0.00    -0.045 C 
ATOM     27  H9  017 d   1      -3.458  -2.881 -16.915  0.00  0.00     0.041 H 
BRANCH  26  28
ATOM     28  C14 017 d   1      -3.052  -3.965 -15.097  0.00  0.00    -0.072 C 
ATOM     29  H10 017 d   1      -1.984  -3.704 -15.097  0.00  0.00     0.028 H 
ATOM     30  H11 017 d   1      -3.180  -4.984 -14.704  0.00  0.00     0.028 H 
ATOM     31  H12 017 d   1      -3.603  -3.255 -14.462  0.00  0.00     0.028 H 
ENDBRANCH  26  28
BRANCH  26  32
ATOM     32  C15 017 d   1      -2.854  -4.886 -17.394  0.00  0.00    -0.072 C 
ATOM     33  H13 017 d   1      -3.248  -4.833 -18.420  0.00  0.00     0.028 H 
ATOM     34  H14 017 d   1      -2.996  -5.903 -16.999  0.00  0.00     0.028 H 
ATOM     35  H15 017 d   1      -1.782  -4.642 -17.400  0.00  0.00     0.028 H 
ENDBRANCH  26  32
ENDBRANCH  23  26
ENDBRANCH   6  23
ENDBRANCH   3   6
ENDBRANCH   1   3
BRANCH   1  36
ATOM     36  O18 017 d   1      -5.299   0.179 -16.816  0.00  0.00    -0.392 OA
ATOM     37  H19 017 d   1      -6.170   0.531 -16.959  0.00  0.00     0.210 HD
ENDBRANCH   1  36
BRANCH   1  38
ATOM     38  C19 017 d   1      -5.837  -0.370 -14.559  0.00  0.00     0.044 C 
ATOM     39  H20 017 d   1      -5.929  -1.217 -13.864  0.00  0.00     0.077 H 
BRANCH  38  40
ATOM     40  N20 017 d   1      -4.850   0.553 -14.116  0.00  0.00    -0.329 N 
ATOM     41  C21 017 d   1      -3.877   0.242 -13.105  0.00  0.00     0.361 C 
ATOM     42  O22 017 d   1      -3.859  -0.811 -12.482  0.00  0.00    -0.238 OA
ATOM     43  H21 017 d   1      -4.832   1.464 -14.528  0.00  0.00     0.165 HD
BRANCH  41  44
ATOM     44  O23 017 d   1      -2.927   1.279 -12.903  0.00  0.00    -0.296 OA
BRANCH  44  45
ATOM     45  C24 017 d   1      -2.135   1.288 -11.760  0.00  0.00     0.081 C 
ATOM     46  C25 017 d   1      -0.840   1.866 -12.153  0.00  0.00     0.048 C 
ATOM     47  O26 017 d   1      -1.055   3.162 -12.127  0.00  0.00    -0.358 OA
ATOM     48  H23 017 d   1      -0.554   1.536 -13.163  0.00  0.00     0.078 H 
ATOM     49  H24 017 d   1      -0.052   1.585 -11.438  0.00  0.00     0.078 H 
ATOM     50  C27 017 d   1      -2.065   3.406 -10.933  0.00  0.00     0.145 C 
ATOM     51  O28 017 d   1      -3.102   4.344 -11.505  0.00  0.00    -0.332 OA
ATOM     52  C31 017 d   1      -2.620   2.307 -10.682  0.00  0.00     0.040 C 
ATOM     53  H25 017 d   1      -1.571   3.824 -10.043  0.00  0.00     0.130 H 
ATOM     54  C29 017 d   1      -4.397   3.594 -11.496  0.00  0.00     0.013 C 
ATOM     55  C30 017 d   1      -4.203   2.577 -10.742  0.00  0.00    -0.071 C 
ATOM     56  H26 017 d   1      -5.314   3.858 -12.021  0.00  0.00     0.122 H 
ATOM     57  H27 017 d   1      -4.973   1.999 -10.233  0.00  0.00     0.080 H 
ATOM     58  H28 017 d   1      -2.342   1.946  -9.681  0.00  0.00     0.057 H 
ATOM     59  H22 017 d   1      -2.044   0.274 -11.345  0.00  0.00     0.088 H 
ENDBRANCH  44  45
ENDBRANCH  41  44
ENDBRANCH  38  40
BRANCH  38  60
ATOM     60  C32 017 d   1      -7.147   0.413 -14.583  0.00  0.00    -0.020 C 
ATOM     61  H29 017 d   1      -7.952  -0.209 -15.002  0.00  0.00     0.043 H 
ATOM     62  H30 017 d   1      -7.033   1.323 -15.190  0.00  0.00     0.043 H 
BRANCH  60  63
ATOM     63  C38 017 d   1      -7.473   0.788 -13.122  0.00  0.00    -0.056 A 
ATOM     64  C33 017 d   1      -7.416   2.163 -12.913  0.00  0.00    -0.077 A 
ATOM     65  C34 017 d   1      -7.669   2.697 -11.644  0.00  0.00    -0.082 A 
ATOM     66  H31 017 d   1      -7.174   2.824 -13.738  0.00  0.00     0.084 H 
ATOM     67  C35 017 d   1      -7.977   1.850 -10.588  0.00  0.00    -0.083 A 
ATOM     68  H32 017 d   1      -7.625   3.769 -11.486  0.00  0.00     0.083 H 
ATOM     69  C36 017 d   1      -8.034   0.476 -10.799  0.00  0.00    -0.082 A 
ATOM     70  H33 017 d   1      -8.172   2.258  -9.603  0.00  0.00     0.083 H 
ATOM     71  C37 017 d   1      -7.779  -0.059 -12.063  0.00  0.00    -0.077 A 
ATOM     72  H34 017 d   1      -8.278  -0.185  -9.975  0.00  0.00     0.083 H 
ATOM     73  H35 017 d   1      -7.819  -1.131 -12.218  0.00  0.00     0.084 H 
ENDBRANCH  60  63
ENDBRANCH  38  60
ENDBRANCH   1  38
TORSDOF 16
