REMARK  17 active torsions:
REMARK  status: ('A' for Active; 'I' for Inactive)
REMARK    1  A    between atoms: C_1  and  C2_4 
REMARK       I    between atoms: N_13  and  C_1 
REMARK    2  A    between atoms: CA_14  and  N_13 
REMARK    3  A    between atoms: C1_15  and  CA_14 
REMARK    4  A    between atoms: CA_14  and  CB_17 
REMARK       I    between atoms: N2_24  and  C1_15 
REMARK    5  A    between atoms: CB_17  and  CG_18 
REMARK       I    between atoms: CG_18  and  ND2_20 
REMARK    6  A    between atoms: C9_21  and  O2_22 
REMARK    7  A    between atoms: CA1_23  and  C9_21 
REMARK    8  A    between atoms: C9_21  and  CM_33 
REMARK    9  A    between atoms: CA1_23  and  N2_24 
REMARK   10  A    between atoms: CA1_23  and  CB1_25 
REMARK   11  A    between atoms: CB1_25  and  CG1_26 
REMARK   12  A    between atoms: CM_33  and  N11_32 
REMARK   13  A    between atoms: C21_34  and  CC_35 
REMARK       I    between atoms: CC_35  and  N3_45 
REMARK   14  A    between atoms: N3_45  and  CD_46 
REMARK   15  A    between atoms: CD_46  and  C11_47 
REMARK   16  A    between atoms: CD_46  and  C22_48 
REMARK   17  A    between atoms: CD_46  and  C32_49 
ROOT
ATOM      1  C9  ROC d   1      -2.976 -18.319  57.137  0.00  0.00     0.078 C 
ATOM      2  H13 ROC d   1      -1.897 -18.512  57.049  0.00  0.00     0.088 H 
ENDROOT
BRANCH   1   3
ATOM      3  O2  ROC d   1      -3.187 -17.486  58.228  0.00  0.00    -0.392 OA
ATOM      4  H14 ROC d   1      -2.742 -16.659  58.084  0.00  0.00     0.210 HD
ENDBRANCH   1   3
BRANCH   1   5
ATOM      5  CA1 ROC d   1      -3.685 -19.660  57.346  0.00  0.00     0.042 C 
ATOM      6  H15 ROC d   1      -3.623 -20.259  56.425  0.00  0.00     0.077 H 
BRANCH   5   7
ATOM      7  N2  ROC d   1      -3.019 -20.327  58.417  0.00  0.00    -0.352 N 
ATOM      8  C1  ROC d   1      -2.285 -21.573  58.202  0.00  0.00     0.241 C 
ATOM      9  O1  ROC d   1      -2.225 -22.112  57.106  0.00  0.00    -0.271 OA
ATOM     10  H16 ROC d   1      -3.055 -19.933  59.336  0.00  0.00     0.163 HD
BRANCH   8  11
ATOM     11  CA  ROC d   1      -1.612 -22.226  59.408  0.00  0.00     0.097 C 
ATOM     12  H8  ROC d   1      -1.444 -21.492  60.210  0.00  0.00     0.088 H 
BRANCH  11  13
ATOM     13  N   ROC d   1      -2.533 -23.225  59.830  0.00  0.00    -0.342 N 
ATOM     14  C   ROC d   1      -3.009 -23.273  61.180  0.00  0.00     0.271 C 
ATOM     15  O   ROC d   1      -2.580 -22.477  62.011  0.00  0.00    -0.266 OA
ATOM     16  H7  ROC d   1      -2.854 -23.906  59.172  0.00  0.00     0.163 HD
BRANCH  14  17
ATOM     17  C2  ROC d   1      -4.013 -24.392  61.538  0.00  0.00     0.125 A 
ATOM     18  N1  ROC d   1      -4.133 -25.414  60.624  0.00  0.00    -0.243 NA
ATOM     19  C8A ROC d   1      -5.005 -26.468  60.852  0.00  0.00     0.068 A 
ATOM     20  C8  ROC d   1      -5.125 -27.517  59.914  0.00  0.00    -0.054 A 
ATOM     21  C4A ROC d   1      -5.750 -26.498  62.004  0.00  0.00    -0.007 A 
ATOM     22  C7  ROC d   1      -6.000 -28.585  60.148  0.00  0.00    -0.081 A 
ATOM     23  H6  ROC d   1      -4.535 -27.495  59.005  0.00  0.00     0.087 H 
ATOM     24  C6  ROC d   1      -6.755 -28.610  61.316  0.00  0.00    -0.082 A 
ATOM     25  H5  ROC d   1      -6.088 -29.387  59.424  0.00  0.00     0.083 H 
ATOM     26  C5  ROC d   1      -6.636 -27.576  62.243  0.00  0.00    -0.071 A 
ATOM     27  H4  ROC d   1      -7.435 -29.433  61.505  0.00  0.00     0.083 H 
ATOM     28  H3  ROC d   1      -7.225 -27.597  63.153  0.00  0.00     0.084 H 
ATOM     29  C4  ROC d   1      -5.627 -25.467  62.926  0.00  0.00    -0.068 A 
ATOM     30  C3  ROC d   1      -4.766 -24.424  62.704  0.00  0.00    -0.049 A 
ATOM     31  H2  ROC d   1      -6.220 -25.487  63.833  0.00  0.00     0.085 H 
ATOM     32  H1  ROC d   1      -4.673 -23.629  63.435  0.00  0.00     0.087 H 
ENDBRANCH  14  17
ENDBRANCH  11  13
BRANCH  11  33
ATOM     33  CB  ROC d   1      -0.300 -22.825  58.995  0.00  0.00     0.036 C 
ATOM     34  H9  ROC d   1       0.285 -22.078  58.439  0.00  0.00     0.051 H 
ATOM     35  H10 ROC d   1      -0.482 -23.700  58.353  0.00  0.00     0.051 H 
BRANCH  33  36
ATOM     36  CG  ROC d   1       0.469 -23.254  60.228  0.00  0.00     0.217 C 
ATOM     37  OD1 ROC d   1       0.808 -22.434  61.064  0.00  0.00    -0.274 OA
ATOM     38  ND2 ROC d   1       0.796 -24.628  60.399  0.00  0.00    -0.370 N 
ATOM     39  H11 ROC d   1       1.303 -24.924  61.208  0.00  0.00     0.159 HD
ATOM     40  H12 ROC d   1       0.519 -25.297  59.710  0.00  0.00     0.159 HD
ENDBRANCH  33  36
ENDBRANCH  11  33
ENDBRANCH   8  11
ENDBRANCH   5   7
BRANCH   5  41
ATOM     41  CB1 ROC d   1      -5.143 -19.473  57.729  0.00  0.00    -0.020 C 
ATOM     42  H17 ROC d   1      -5.719 -19.189  56.836  0.00  0.00     0.043 H 
ATOM     43  H18 ROC d   1      -5.220 -18.676  58.483  0.00  0.00     0.043 H 
BRANCH  41  44
ATOM     44  CG1 ROC d   1      -5.719 -20.779  58.310  0.00  0.00    -0.056 A 
ATOM     45  CD1 ROC d   1      -6.142 -21.794  57.456  0.00  0.00    -0.077 A 
ATOM     46  CE1 ROC d   1      -6.668 -22.969  57.971  0.00  0.00    -0.082 A 
ATOM     47  H19 ROC d   1      -6.060 -21.665  56.383  0.00  0.00     0.084 H 
ATOM     48  CZ  ROC d   1      -6.764 -23.157  59.342  0.00  0.00    -0.083 A 
ATOM     49  H21 ROC d   1      -7.007 -23.747  57.297  0.00  0.00     0.083 H 
ATOM     50  CE2 ROC d   1      -6.341 -22.151  60.204  0.00  0.00    -0.082 A 
ATOM     51  H23 ROC d   1      -7.166 -24.082  59.739  0.00  0.00     0.083 H 
ATOM     52  CD2 ROC d   1      -5.822 -20.961  59.684  0.00  0.00    -0.077 A 
ATOM     53  H22 ROC d   1      -6.413 -22.289  61.277  0.00  0.00     0.083 H 
ATOM     54  H20 ROC d   1      -5.498 -20.175  60.357  0.00  0.00     0.084 H 
ENDBRANCH  41  44
ENDBRANCH   5  41
ENDBRANCH   1   5
BRANCH   1  55
ATOM     55  CM  ROC d   1      -3.449 -17.618  55.843  0.00  0.00     0.110 C 
ATOM     56  H25 ROC d   1      -3.232 -16.541  55.897  0.00  0.00     0.080 H 
ATOM     57  H26 ROC d   1      -4.530 -17.768  55.707  0.00  0.00     0.080 H 
BRANCH  55  58
ATOM     58  N11 ROC d   1      -2.710 -18.226  54.721  0.00  0.00    -0.055 N 
ATOM     59  C21 ROC d   1      -3.464 -18.084  53.419  0.00  0.00     0.180 C 
ATOM     60  C31 ROC d   1      -2.695 -18.690  52.236  0.00  0.00    -0.026 C 
ATOM     61  H27 ROC d   1      -3.582 -17.008  53.223  0.00  0.00     0.100 H 
ATOM     62  C3A ROC d   1      -1.322 -18.079  52.146  0.00  0.00    -0.047 C 
ATOM     63  H28 ROC d   1      -3.244 -18.490  51.304  0.00  0.00     0.037 H 
ATOM     64  H29 ROC d   1      -2.601 -19.776  52.381  0.00  0.00     0.037 H 
ATOM     65  C41 ROC d   1      -0.565 -18.774  50.979  0.00  0.00    -0.061 C 
ATOM     66  C7A ROC d   1      -0.562 -18.188  53.437  0.00  0.00    -0.027 C 
ATOM     67  H30 ROC d   1      -1.430 -17.010  51.909  0.00  0.00     0.040 H 
ATOM     68  C51 ROC d   1      -0.247 -20.233  51.295  0.00  0.00    -0.065 C 
ATOM     69  H31 ROC d   1       0.377 -18.236  50.796  0.00  0.00     0.033 H 
ATOM     70  H32 ROC d   1      -1.191 -18.734  50.075  0.00  0.00     0.033 H 
ATOM     71  C61 ROC d   1       0.538 -20.356  52.589  0.00  0.00    -0.065 C 
ATOM     72  H33 ROC d   1       0.348 -20.657  50.473  0.00  0.00     0.033 H 
ATOM     73  H34 ROC d   1      -1.189 -20.793  51.392  0.00  0.00     0.033 H 
ATOM     74  C71 ROC d   1      -0.148 -19.645  53.767  0.00  0.00    -0.060 C 
ATOM     75  H35 ROC d   1       1.533 -19.912  52.441  0.00  0.00     0.033 H 
ATOM     76  H36 ROC d   1       0.646 -21.423  52.836  0.00  0.00     0.033 H 
ATOM     77  H37 ROC d   1       0.548 -19.627  54.619  0.00  0.00     0.033 H 
ATOM     78  H38 ROC d   1      -1.050 -20.212  54.042  0.00  0.00     0.033 H 
ATOM     79  C81 ROC d   1      -1.346 -17.628  54.629  0.00  0.00     0.088 C 
ATOM     80  H39 ROC d   1       0.356 -17.592  53.324  0.00  0.00     0.043 H 
ATOM     81  H40 ROC d   1      -0.795 -17.851  55.555  0.00  0.00     0.076 H 
ATOM     82  H41 ROC d   1      -1.441 -16.538  54.513  0.00  0.00     0.076 H 
ATOM     83  H24 ROC d   1      -2.608 -19.211  54.911  0.00  0.00     0.281 HD
BRANCH  59  84
ATOM     84  CC  ROC d   1      -4.825 -18.681  53.512  0.00  0.00     0.249 C 
ATOM     85  O3  ROC d   1      -5.032 -19.740  54.067  0.00  0.00    -0.271 OA
ATOM     86  N3  ROC d   1      -5.861 -17.892  52.891  0.00  0.00    -0.351 N 
ATOM     87  H42 ROC d   1      -5.616 -17.027  52.453  0.00  0.00     0.163 HD
BRANCH  86  88
ATOM     88  CD  ROC d   1      -7.248 -18.317  52.883  0.00  0.00     0.022 C 
BRANCH  88  89
ATOM     89  C11 ROC d   1      -7.412 -19.644  52.161  0.00  0.00    -0.054 C 
ATOM     90  H43 ROC d   1      -8.472 -19.939  52.172  0.00  0.00     0.030 H 
ATOM     91  H44 ROC d   1      -6.812 -20.414  52.668  0.00  0.00     0.030 H 
ATOM     92  H45 ROC d   1      -7.071 -19.540  51.120  0.00  0.00     0.030 H 
ENDBRANCH  88  89
BRANCH  88  93
ATOM     93  C22 ROC d   1      -7.707 -18.440  54.328  0.00  0.00    -0.054 C 
ATOM     94  H46 ROC d   1      -8.759 -18.762  54.352  0.00  0.00     0.030 H 
ATOM     95  H47 ROC d   1      -7.610 -17.465  54.828  0.00  0.00     0.030 H 
ATOM     96  H48 ROC d   1      -7.084 -19.182  54.849  0.00  0.00     0.030 H 
ENDBRANCH  88  93
BRANCH  88  97
ATOM     97  C32 ROC d   1      -8.047 -17.276  52.143  0.00  0.00    -0.054 C 
ATOM     98  H49 ROC d   1      -9.106 -17.573  52.121  0.00  0.00     0.030 H 
ATOM     99  H50 ROC d   1      -7.670 -17.188  51.113  0.00  0.00     0.030 H 
ATOM    100  H51 ROC d   1      -7.949 -16.307  52.654  0.00  0.00     0.030 H 
ENDBRANCH  88  97
ENDBRANCH  86  88
ENDBRANCH  59  84
ENDBRANCH  55  58
ENDBRANCH   1  55
TORSDOF 17
