REMARK  12 active torsions:
REMARK  status: ('A' for Active; 'I' for Inactive)
REMARK    1  A    between atoms: N_1  and  CA_2 
REMARK    2  A    between atoms: CA_2  and  C_3 
REMARK    3  A    between atoms: CA_2  and  CB_6 
REMARK    4  A    between atoms: CB_6  and  CG_7 
REMARK    5  A    between atoms: CG_7  and  SD_8 
REMARK    6  A    between atoms: SD_8  and  CE_9 
REMARK    7  A    between atoms: SD_8  and  C5'_10 
REMARK    8  A    between atoms: C5'_10  and  C4'_11 
REMARK    9  A    between atoms: C3'_13  and  O3'_14 
REMARK   10  A    between atoms: C2'_15  and  O2'_16 
REMARK   11  A    between atoms: C1'_17  and  N9_18 
REMARK   12  A    between atoms: C6_22  and  N6_23 
ROOT
ATOM      1  C4' SAM d   1      43.681  36.083 -16.421  0.00  0.00     0.076 C 
ATOM      2  O4' SAM d   1      44.101  34.791 -16.011  0.00  0.00    -0.355 OA
ATOM      3  C3' SAM d   1      44.163  36.246 -17.860  0.00  0.00     0.090 C 
ATOM      4  C2' SAM d   1      44.883  34.947 -18.204  0.00  0.00     0.105 C 
ATOM      5  C1' SAM d   1      45.169  34.375 -16.829  0.00  0.00     0.139 C 
ATOM      6  H14 SAM d   1      44.153  36.847 -15.786  0.00  0.00     0.088 H 
ATOM      7  H15 SAM d   1      43.317  36.407 -18.544  0.00  0.00     0.091 H 
ATOM      8  H17 SAM d   1      44.235  34.282 -18.793  0.00  0.00     0.093 H 
ATOM      9  H19 SAM d   1      46.119  34.789 -16.462  0.00  0.00     0.122 H 
ENDROOT
BRANCH   1  10
ATOM     10  C5' SAM d   1      42.170  36.221 -16.304  0.00  0.00    -0.005 C 
ATOM     11  H12 SAM d   1      41.700  35.700 -17.151  0.00  0.00     0.051 H 
ATOM     12  H13 SAM d   1      41.844  35.757 -15.361  0.00  0.00     0.051 H 
BRANCH  10  13
ATOM     13  SD  SAM d   1      41.636  37.960 -16.317  0.00  0.00    -0.221 SA
BRANCH  13  14
ATOM     14  CG  SAM d   1      42.346  38.630 -14.794  0.00  0.00    -0.029 C 
ATOM     15  H7  SAM d   1      42.097  37.966 -13.953  0.00  0.00     0.047 H 
ATOM     16  H8  SAM d   1      43.439  38.695 -14.899  0.00  0.00     0.047 H 
BRANCH  14  17
ATOM     17  CB  SAM d   1      41.781  40.021 -14.523  0.00  0.00    -0.022 C 
ATOM     18  H5  SAM d   1      41.749  40.572 -15.474  0.00  0.00     0.037 H 
ATOM     19  H6  SAM d   1      40.760  39.908 -14.130  0.00  0.00     0.037 H 
BRANCH  17  20
ATOM     20  CA  SAM d   1      42.592  40.840 -13.521  0.00  0.00     0.183 C 
ATOM     21  H4  SAM d   1      43.657  40.720 -13.770  0.00  0.00     0.101 H 
BRANCH  20  22
ATOM     22  N   SAM d   1      42.423  40.364 -12.146  0.00  0.00    -0.065 N 
ATOM     23  H1  SAM d   1      42.673  39.389 -12.095  0.00  0.00     0.275 HD
ATOM     24  H2  SAM d   1      41.462  40.479 -11.866  0.00  0.00     0.275 HD
ATOM     25  H3  SAM d   1      43.018  40.896 -11.531  0.00  0.00     0.275 HD
ENDBRANCH  20  22
BRANCH  20  26
ATOM     26  C   SAM d   1      42.240  42.305 -13.708  0.00  0.00     0.204 C 
ATOM     27  O   SAM d   1      41.809  43.005 -12.785  0.00  0.00    -0.646 OA
ATOM     28  OXT SAM d   1      42.390  42.827 -14.814  0.00  0.00    -0.646 OA
ENDBRANCH  20  26
ENDBRANCH  17  20
ENDBRANCH  14  17
ENDBRANCH  13  14
BRANCH  13  29
ATOM     29  CE  SAM d   1      39.909  37.785 -15.810  0.00  0.00    -0.042 C 
ATOM     30  H9  SAM d   1      39.321  37.377 -16.645  0.00  0.00     0.040 H 
ATOM     31  H10 SAM d   1      39.509  38.769 -15.526  0.00  0.00     0.040 H 
ATOM     32  H11 SAM d   1      39.847  37.102 -14.950  0.00  0.00     0.040 H 
ENDBRANCH  13  29
ENDBRANCH  10  13
ENDBRANCH   1  10
BRANCH   3  33
ATOM     33  O3' SAM d   1      45.036  37.356 -17.908  0.00  0.00    -0.390 OA
ATOM     34  H16 SAM d   1      45.347  37.474 -18.798  0.00  0.00     0.210 HD
ENDBRANCH   3  33
BRANCH   5  35
ATOM     35  N9  SAM d   1      45.240  32.909 -16.758  0.00  0.00    -0.294 N 
ATOM     36  C8  SAM d   1      44.459  31.965 -17.373  0.00  0.00     0.071 A 
ATOM     37  N7  SAM d   1      44.901  30.743 -16.975  0.00  0.00    -0.236 NA
ATOM     38  H20 SAM d   1      43.634  32.159 -18.057  0.00  0.00     0.144 H 
ATOM     39  C5  SAM d   1      45.933  30.911 -16.117  0.00  0.00     0.149 A 
ATOM     40  C6  SAM d   1      46.743  30.037 -15.418  0.00  0.00     0.155 A 
ATOM     41  C4  SAM d   1      46.147  32.277 -15.977  0.00  0.00     0.167 A 
ATOM     42  N1  SAM d   1      47.735  30.541 -14.603  0.00  0.00    -0.222 NA
ATOM     43  C2  SAM d   1      47.935  31.902 -14.486  0.00  0.00     0.091 A 
ATOM     44  N3  SAM d   1      47.124  32.773 -15.184  0.00  0.00    -0.222 NA
ATOM     45  H23 SAM d   1      48.725  32.284 -13.849  0.00  0.00     0.146 H 
BRANCH  40  46
ATOM     46  N6  SAM d   1      46.581  28.717 -15.516  0.00  0.00    -0.382 N 
ATOM     47  H21 SAM d   1      47.195  28.082 -14.987  0.00  0.00     0.157 HD
ATOM     48  H22 SAM d   1      45.842  28.332 -16.121  0.00  0.00     0.157 HD
ENDBRANCH  40  46
ENDBRANCH   5  35
BRANCH   4  49
ATOM     49  O2' SAM d   1      46.094  35.156 -18.896  0.00  0.00    -0.388 OA
ATOM     50  H18 SAM d   1      46.679  35.678 -18.359  0.00  0.00     0.210 HD
ENDBRANCH   4  49
TORSDOF 12
