REMARK  11 active torsions:
REMARK  status: ('A' for Active; 'I' for Inactive)
REMARK    1  A    between atoms: C5_7  and  C23_8 
REMARK    2  A    between atoms: C10_9  and  C17_15 
REMARK    3  A    between atoms: C8_21  and  C9_10 
REMARK    4  A    between atoms: O7_28  and  C1_11 
REMARK    5  A    between atoms: C24_13  and  C28_16 
REMARK    6  A    between atoms: C2_14  and  N18_25 
REMARK       I    between atoms: C17_15  and  N20_26 
REMARK    7  A    between atoms: C8_21  and  C15_17 
REMARK    8  A    between atoms: N26_24  and  C29_18 
REMARK    9  A    between atoms: N20_26  and  C21_19 
REMARK   10  A    between atoms: N20_26  and  C22_20 
REMARK   11  A    between atoms: C8_21  and  O7_28 
ROOT
ATOM      1  C8  6YL d   1      32.167  43.455   8.223  0.00  0.00     0.068 C 
ATOM      2  H22 6YL d   1      31.898  43.805   7.215  0.00  0.00     0.091 H 
ENDROOT
BRANCH   1   3
ATOM      3  C9  6YL d   1      33.181  44.444   8.836  0.00  0.00    -0.011 A 
ATOM      4  C14 6YL d   1      33.482  44.336  10.236  0.00  0.00    -0.036 A 
ATOM      5  C13 6YL d   1      34.393  45.211  10.858  0.00  0.00     0.117 A 
ATOM      6  H4  6YL d   1      32.998  43.566  10.826  0.00  0.00     0.089 H 
ATOM      7  C12 6YL d   1      35.042  46.226  10.136  0.00  0.00    -0.045 A 
ATOM      8  F16 6YL d   1      34.639  45.070  12.156  0.00  0.00    -0.206 F 
ATOM      9  C11 6YL d   1      34.782  46.375   8.759  0.00  0.00    -0.064 A 
ATOM     10  H2  6YL d   1      35.738  46.890  10.635  0.00  0.00     0.088 H 
ATOM     11  C10 6YL d   1      33.862  45.497   8.102  0.00  0.00     0.041 A 
ATOM     12  H1  6YL d   1      35.280  47.156   8.196  0.00  0.00     0.085 H 
BRANCH  11  13
ATOM     13  C17 6YL d   1      33.687  45.774   6.643  0.00  0.00     0.253 C 
ATOM     14  N20 6YL d   1      34.506  45.089   5.699  0.00  0.00    -0.357 N 
ATOM     15  O19 6YL d   1      32.826  46.608   6.355  0.00  0.00    -0.267 OA
BRANCH  14  16
ATOM     16  C21 6YL d   1      34.341  45.381   4.279  0.00  0.00    -0.016 C 
ATOM     17  H16 6YL d   1      35.045  44.770   3.695  0.00  0.00     0.056 H 
ATOM     18  H17 6YL d   1      34.543  46.447   4.098  0.00  0.00     0.056 H 
ATOM     19  H18 6YL d   1      33.311  45.146   3.974  0.00  0.00     0.056 H 
ENDBRANCH  14  16
BRANCH  14  20
ATOM     20  C22 6YL d   1      35.544  44.091   5.994  0.00  0.00    -0.016 C 
ATOM     21  H19 6YL d   1      35.601  43.932   7.081  0.00  0.00     0.056 H 
ATOM     22  H20 6YL d   1      36.515  44.452   5.625  0.00  0.00     0.056 H 
ATOM     23  H21 6YL d   1      35.292  43.142   5.497  0.00  0.00     0.056 H 
ENDBRANCH  14  20
ENDBRANCH  11  13
ENDBRANCH   1   3
BRANCH   1  24
ATOM     24  C15 6YL d   1      32.738  42.031   8.153  0.00  0.00    -0.048 C 
ATOM     25  H10 6YL d   1      31.989  41.357   7.712  0.00  0.00     0.031 H 
ATOM     26  H11 6YL d   1      32.989  41.687   9.167  0.00  0.00     0.031 H 
ATOM     27  H12 6YL d   1      33.645  42.030   7.530  0.00  0.00     0.031 H 
ENDBRANCH   1  24
BRANCH   1  28
ATOM     28  O7  6YL d   1      30.977  43.330   9.040  0.00  0.00    -0.338 OA
BRANCH  28  29
ATOM     29  C1  6YL d   1      29.951  44.262   9.060  0.00  0.00     0.116 A 
ATOM     30  C6  6YL d   1      29.866  45.472   8.311  0.00  0.00    -0.035 A 
ATOM     31  C5  6YL d   1      28.761  46.371   8.413  0.00  0.00    -0.002 A 
ATOM     32  H3  6YL d   1      30.676  45.721   7.634  0.00  0.00     0.089 H 
ATOM     33  C4  6YL d   1      27.753  45.974   9.315  0.00  0.00     0.015 A 
ATOM     34  N3  6YL d   1      27.789  44.816  10.059  0.00  0.00    -0.240 NA
ATOM     35  H5  6YL d   1      26.893  46.623   9.431  0.00  0.00     0.116 H 
ATOM     36  C2  6YL d   1      28.874  43.965   9.937  0.00  0.00     0.154 A 
BRANCH  31  37
ATOM     37  C23 6YL d   1      28.699  47.626   7.627  0.00  0.00     0.019 A 
ATOM     38  C27 6YL d   1      29.821  48.196   7.041  0.00  0.00     0.011 A 
ATOM     39  N26 6YL d   1      29.419  49.322   6.408  0.00  0.00    -0.284 N 
ATOM     40  H6  6YL d   1      30.838  47.808   7.083  0.00  0.00     0.115 H 
ATOM     41  N25 6YL d   1      28.106  49.566   6.517  0.00  0.00    -0.177 NA
ATOM     42  C24 6YL d   1      27.642  48.551   7.253  0.00  0.00     0.063 A 
BRANCH  39  43
ATOM     43  C29 6YL d   1      30.259  50.233   5.663  0.00  0.00     0.002 C 
ATOM     44  H13 6YL d   1      29.646  51.055   5.265  0.00  0.00     0.059 H 
ATOM     45  H14 6YL d   1      30.736  49.695   4.830  0.00  0.00     0.059 H 
ATOM     46  H15 6YL d   1      31.035  50.643   6.327  0.00  0.00     0.059 H 
ENDBRANCH  39  43
BRANCH  42  47
ATOM     47  C28 6YL d   1      26.186  48.544   7.552  0.00  0.00    -0.033 C 
ATOM     48  H7  6YL d   1      25.712  49.423   7.090  0.00  0.00     0.035 H 
ATOM     49  H8  6YL d   1      26.035  48.577   8.641  0.00  0.00     0.035 H 
ATOM     50  H9  6YL d   1      25.733  47.627   7.147  0.00  0.00     0.035 H 
ENDBRANCH  42  47
ENDBRANCH  31  37
BRANCH  36  51
ATOM     51  N18 6YL d   1      28.899  42.781  10.709  0.00  0.00    -0.382 N 
ATOM     52  H23 6YL d   1      28.119  42.565  11.345  0.00  0.00     0.157 HD
ATOM     53  H24 6YL d   1      29.698  42.135  10.635  0.00  0.00     0.157 HD
ENDBRANCH  36  51
ENDBRANCH  28  29
ENDBRANCH   1  28
TORSDOF 11
