REMARK  11 active torsions:
REMARK  status: ('A' for Active; 'I' for Inactive)
REMARK    1  A    between atoms: C1_1  and  C3_3 
REMARK    2  A    between atoms: N2_7  and  C1_1 
REMARK    3  A    between atoms: C2_2  and  N7_35 
REMARK    4  A    between atoms: C16_13  and  C4_4 
REMARK    5  A    between atoms: C11_14  and  C14_27 
REMARK    6  A    between atoms: N7_35  and  C8_18 
REMARK    7  A    between atoms: C23_19  and  C25_24 
REMARK    8  A    between atoms: C26_28  and  C27_25 
REMARK    9  A    between atoms: C26_28  and  C28_26 
REMARK   10  A    between atoms: C14_27  and  N30_34 
REMARK   11  A    between atoms: C26_28  and  N22_33 
ROOT
ATOM      1  N7  6ZV d   1      23.895  34.969 -10.656  0.00  0.00    -0.171 N 
ATOM      2  H34 6ZV d   1      24.426  34.661 -11.483  0.00  0.00     0.186 HD
ENDROOT
BRANCH   1   3
ATOM      3  C2  6ZV d   1      24.431  34.548  -9.469  0.00  0.00     0.728 A 
ATOM      4  N1  6ZV d   1      25.073  33.372  -9.550  0.00  0.00    -0.072 NA
ATOM      5  C6  6ZV d   1      25.617  32.918  -8.412  0.00  0.00     0.060 A 
ATOM      6  C5  6ZV d   1      25.546  33.610  -7.195  0.00  0.00     0.164 A 
ATOM      7  H6  6ZV d   1      26.138  31.968  -8.434  0.00  0.00     0.120 H 
ATOM      8  C4  6ZV d   1      24.862  34.876  -7.226  0.00  0.00     0.126 A 
ATOM      9  F15 6ZV d   1      26.034  33.015  -6.081  0.00  0.00    -0.202 F 
ATOM     10  N3  6ZV d   1      24.303  35.319  -8.371  0.00  0.00    -0.059 NA
BRANCH   8  11
ATOM     11  C16 6ZV d   1      24.708  35.793  -6.063  0.00  0.00     0.002 A 
ATOM     12  C17 6ZV d   1      23.750  36.809  -6.086  0.00  0.00    -0.042 A 
ATOM     13  C18 6ZV d   1      23.610  37.638  -4.978  0.00  0.00     0.069 A 
ATOM     14  H10 6ZV d   1      23.122  36.950  -6.958  0.00  0.00     0.088 H 
ATOM     15  C19 6ZV d   1      24.366  37.504  -3.812  0.00  0.00     0.124 A 
ATOM     16  N22 6ZV d   1      22.756  38.737  -4.742  0.00  0.00    -0.329 N 
ATOM     17  C20 6ZV d   1      25.301  36.472  -3.828  0.00  0.00     0.148 A 
ATOM     18  N24 6ZV d   1      24.009  38.469  -2.887  0.00  0.00    -0.230 NA
ATOM     19  C21 6ZV d   1      25.491  35.654  -4.914  0.00  0.00    -0.031 A 
ATOM     20  F29 6ZV d   1      26.033  36.259  -2.713  0.00  0.00    -0.203 F 
ATOM     21  H11 6ZV d   1      26.259  34.890  -4.880  0.00  0.00     0.089 H 
ATOM     22  C23 6ZV d   1      23.068  39.169  -3.465  0.00  0.00     0.104 A 
BRANCH  22  23
ATOM     23  C25 6ZV d   1      22.372  40.315  -2.831  0.00  0.00    -0.021 C 
ATOM     24  H21 6ZV d   1      22.780  40.479  -1.823  0.00  0.00     0.037 H 
ATOM     25  H22 6ZV d   1      21.296  40.097  -2.760  0.00  0.00     0.037 H 
ATOM     26  H23 6ZV d   1      22.524  41.219  -3.440  0.00  0.00     0.037 H 
ENDBRANCH  22  23
BRANCH  16  27
ATOM     27  C26 6ZV d   1      21.983  39.502  -5.756  0.00  0.00     0.011 C 
ATOM     28  H32 6ZV d   1      21.567  40.385  -5.249  0.00  0.00     0.072 H 
BRANCH  27  29
ATOM     29  C27 6ZV d   1      20.807  38.695  -6.272  0.00  0.00    -0.057 C 
ATOM     30  H24 6ZV d   1      20.256  39.286  -7.019  0.00  0.00     0.030 H 
ATOM     31  H25 6ZV d   1      20.138  38.446  -5.435  0.00  0.00     0.030 H 
ATOM     32  H26 6ZV d   1      21.174  37.768  -6.737  0.00  0.00     0.030 H 
ENDBRANCH  27  29
BRANCH  27  33
ATOM     33  C28 6ZV d   1      22.880  40.014  -6.867  0.00  0.00    -0.057 C 
ATOM     34  H27 6ZV d   1      23.711  40.589  -6.432  0.00  0.00     0.030 H 
ATOM     35  H28 6ZV d   1      22.298  40.662  -7.539  0.00  0.00     0.030 H 
ATOM     36  H29 6ZV d   1      23.282  39.163  -7.436  0.00  0.00     0.030 H 
ENDBRANCH  27  33
ENDBRANCH  16  27
ENDBRANCH   8  11
ENDBRANCH   1   3
BRANCH   1  37
ATOM     37  C8  6ZV d   1      22.771  35.733 -10.962  0.00  0.00     0.142 A 
ATOM     38  C   6ZV d   1      21.889  36.243  -9.995  0.00  0.00    -0.037 A 
ATOM     39  C10 6ZV d   1      20.851  37.047 -10.424  0.00  0.00    -0.070 A 
ATOM     40  H9  6ZV d   1      22.019  36.013  -8.944  0.00  0.00     0.089 H 
ATOM     41  C11 6ZV d   1      20.692  37.347 -11.768  0.00  0.00    -0.015 A 
ATOM     42  H8  6ZV d   1      20.151  37.449  -9.700  0.00  0.00     0.084 H 
ATOM     43  C12 6ZV d   1      21.606  36.789 -12.646  0.00  0.00     0.012 A 
ATOM     44  N   6ZV d   1      22.623  35.996 -12.274  0.00  0.00    -0.242 NA
ATOM     45  H12 6ZV d   1      21.493  37.007 -13.702  0.00  0.00     0.115 H 
BRANCH  41  46
ATOM     46  C14 6ZV d   1      19.577  38.253 -12.245  0.00  0.00     0.108 C 
ATOM     47  H30 6ZV d   1      19.078  38.678 -11.362  0.00  0.00     0.083 H 
ATOM     48  H31 6ZV d   1      18.859  37.644 -12.814  0.00  0.00     0.083 H 
BRANCH  46  49
ATOM     49  N30 6ZV d   1      20.019  39.363 -13.102  0.00  0.00    -0.064 N 
ATOM     50  C31 6ZV d   1      18.870  40.011 -13.742  0.00  0.00     0.106 C 
ATOM     51  C32 6ZV d   1      19.326  41.126 -14.660  0.00  0.00     0.106 C 
ATOM     52  H13 6ZV d   1      18.315  39.264 -14.329  0.00  0.00     0.078 H 
ATOM     53  H14 6ZV d   1      18.213  40.429 -12.965  0.00  0.00     0.078 H 
ATOM     54  N2  6ZV d   1      20.096  42.138 -13.919  0.00  0.00    -0.068 N 
ATOM     55  H17 6ZV d   1      19.959  40.702 -15.454  0.00  0.00     0.078 H 
ATOM     56  H18 6ZV d   1      18.444  41.604 -15.111  0.00  0.00     0.078 H 
ATOM     57  C34 6ZV d   1      21.232  41.502 -13.235  0.00  0.00     0.106 C 
ATOM     58  H7  6ZV d   1      20.473  42.785 -14.594  0.00  0.00     0.280 HD
ATOM     59  C35 6ZV d   1      20.766  40.371 -12.331  0.00  0.00     0.106 C 
ATOM     60  H19 6ZV d   1      21.753  42.256 -12.627  0.00  0.00     0.078 H 
ATOM     61  H20 6ZV d   1      21.924  41.097 -13.989  0.00  0.00     0.078 H 
ATOM     62  H15 6ZV d   1      20.114  40.781 -11.546  0.00  0.00     0.078 H 
ATOM     63  H16 6ZV d   1      21.642  39.895 -11.868  0.00  0.00     0.078 H 
ATOM     64  H33 6ZV d   1      20.623  38.990 -13.818  0.00  0.00     0.280 HD
BRANCH  54  65
ATOM     65  C1  6ZV d   1      19.249  42.926 -12.990  0.00  0.00     0.080 C 
ATOM     66  H1  6ZV d   1      18.300  43.159 -13.496  0.00  0.00     0.075 H 
ATOM     67  H2  6ZV d   1      19.048  42.314 -12.098  0.00  0.00     0.075 H 
BRANCH  65  68
ATOM     68  C3  6ZV d   1      19.881  44.214 -12.550  0.00  0.00    -0.053 C 
ATOM     69  H3  6ZV d   1      19.200  44.742 -11.867  0.00  0.00     0.029 H 
ATOM     70  H4  6ZV d   1      20.079  44.844 -13.429  0.00  0.00     0.029 H 
ATOM     71  H5  6ZV d   1      20.827  44.000 -12.031  0.00  0.00     0.029 H 
ENDBRANCH  65  68
ENDBRANCH  54  65
ENDBRANCH  46  49
ENDBRANCH  41  46
ENDBRANCH   1  37
TORSDOF 11
