REMARK  7 active torsions:
REMARK  status: ('A' for Active; 'I' for Inactive)
REMARK    1  A    between atoms: C1_12  and  C11_10 
REMARK    2  A    between atoms: C8_19  and  C9_20 
REMARK    3  A    between atoms: C10_21  and  N12_22 
REMARK    4  A    between atoms: N12_22  and  C14_23 
REMARK    5  A    between atoms: N25_26  and  C37_37 
REMARK    6  A    between atoms: C28_28  and  C39_39 
REMARK    7  A    between atoms: C39_39  and  C40_40 
ROOT
ATOM      1  C13 70A d   1       7.480  37.679  24.421  0.00  0.00     0.247 C 
ATOM      2  C27 70A d   1       6.081  39.280  22.133  0.00  0.00    -0.031 A 
ATOM      3  C1  70A d   1       1.515  35.593  25.758  0.00  0.00    -0.010 C 
ATOM      4  C2  70A d   1       0.781  36.824  25.132  0.00  0.00     0.037 C 
ATOM      5  C3  70A d   1       3.033  35.796  25.791  0.00  0.00    -0.046 A 
ATOM      6  C4  70A d   1       3.603  36.575  26.796  0.00  0.00    -0.075 A 
ATOM      7  C5  70A d   1       4.953  36.889  26.776  0.00  0.00    -0.074 A 
ATOM      8  C6  70A d   1       5.774  36.429  25.755  0.00  0.00    -0.026 A 
ATOM      9  C7  70A d   1       5.212  35.619  24.772  0.00  0.00    -0.068 A 
ATOM     10  C8  70A d   1       3.857  35.295  24.768  0.00  0.00    -0.055 A 
ATOM     11  C10 70A d   1       7.235  36.846  25.668  0.00  0.00     0.113 C 
ATOM     12  O24 70A d   1       7.962  37.138  23.432  0.00  0.00    -0.271 OA
ATOM     13  N25 70A d   1       7.108  38.975  24.385  0.00  0.00    -0.350 N 
ATOM     14  C26 70A d   1       7.174  39.676  23.100  0.00  0.00     0.021 C 
ATOM     15  C28 70A d   1       6.221  39.481  20.754  0.00  0.00    -0.034 A 
ATOM     16  C29 70A d   1       5.150  39.175  19.921  0.00  0.00    -0.073 A 
ATOM     17  C30 70A d   1       3.985  38.618  20.417  0.00  0.00    -0.057 A 
ATOM     18  C31 70A d   1       3.831  38.436  21.782  0.00  0.00     0.037 A 
ATOM     19  C32 70A d   1       4.891  38.748  22.630  0.00  0.00    -0.049 A 
ATOM     20  N33 70A d   1       2.629  37.884  22.286  0.00  0.00    -0.303 N 
ATOM     21  O34 70A d   1       1.245  36.996  23.771  0.00  0.00    -0.303 OA
ATOM     22  C35 70A d   1       2.223  37.909  23.575  0.00  0.00     0.365 C 
ATOM     23  O36 70A d   1       2.623  38.680  24.421  0.00  0.00    -0.238 OA
ATOM     24  H9  70A d   1       1.320  34.722  25.115  0.00  0.00     0.050 H 
ATOM     25  H10 70A d   1       1.007  37.727  25.718  0.00  0.00     0.076 H 
ATOM     26  H11 70A d   1      -0.305  36.648  25.134  0.00  0.00     0.076 H 
ATOM     27  H12 70A d   1       2.982  36.941  27.605  0.00  0.00     0.084 H 
ATOM     28  H13 70A d   1       5.373  37.501  27.567  0.00  0.00     0.084 H 
ATOM     29  H14 70A d   1       5.848  35.228  23.986  0.00  0.00     0.085 H 
ATOM     30  H18 70A d   1       7.476  37.444  26.559  0.00  0.00     0.095 H 
ATOM     31  H20 70A d   1       7.095  40.757  23.290  0.00  0.00     0.071 H 
ATOM     32  H21 70A d   1       8.146  39.456  22.634  0.00  0.00     0.071 H 
ATOM     33  H22 70A d   1       5.230  39.378  18.859  0.00  0.00     0.084 H 
ATOM     34  H23 70A d   1       3.193  38.324  19.738  0.00  0.00     0.086 H 
ATOM     35  H24 70A d   1       4.790  38.574  23.695  0.00  0.00     0.087 H 
ATOM     36  H25 70A d   1       2.025  37.434  21.628  0.00  0.00     0.171 HD
ENDROOT
BRANCH  11  37
ATOM     37  N12 70A d   1       8.139  35.713  25.602  0.00  0.00    -0.373 N 
ATOM     38  H19 70A d   1       8.518  35.451  24.681  0.00  0.00     0.161 HD
BRANCH  37  39
ATOM     39  C14 70A d   1       8.526  34.958  26.705  0.00  0.00     0.029 A 
ATOM     40  C15 70A d   1       8.308  35.361  28.006  0.00  0.00    -0.047 A 
ATOM     41  C16 70A d   1       8.755  34.561  29.086  0.00  0.00    -0.019 A 
ATOM     42  H2  70A d   1       7.792  36.294  28.203  0.00  0.00     0.088 H 
ATOM     43  C17 70A d   1       9.418  33.329  28.815  0.00  0.00     0.020 A 
ATOM     44  C20 70A d   1       8.592  34.961  30.428  0.00  0.00    -0.055 A 
ATOM     45  C18 70A d   1       9.594  32.951  27.466  0.00  0.00    -0.066 A 
ATOM     46  C23 70A d   1       9.927  32.584  29.947  0.00  0.00     0.132 A 
ATOM     47  C19 70A d   1       9.173  33.755  26.454  0.00  0.00    -0.057 A 
ATOM     48  H1  70A d   1      10.072  32.006  27.234  0.00  0.00     0.085 H 
ATOM     49  H3  70A d   1       9.346  33.450  25.428  0.00  0.00     0.086 H 
ATOM     50  N22 70A d   1       9.816  33.069  31.230  0.00  0.00    -0.243 NA
ATOM     51  N38 70A d   1      10.474  31.364  29.795  0.00  0.00    -0.383 N 
ATOM     52  C21 70A d   1       9.145  34.213  31.426  0.00  0.00     0.005 A 
ATOM     53  H5  70A d   1       9.035  34.567  32.445  0.00  0.00     0.114 H 
ATOM     54  H29 70A d   1      10.829  30.853  30.616  0.00  0.00     0.157 HD
ATOM     55  H30 70A d   1      10.537  30.941  28.858  0.00  0.00     0.157 HD
ATOM     56  H4  70A d   1       8.031  35.857  30.666  0.00  0.00     0.087 H 
ENDBRANCH  37  39
ENDBRANCH  11  37
BRANCH  13  57
ATOM     57  C37 70A d   1       6.607  39.737  25.530  0.00  0.00    -0.016 C 
ATOM     58  H26 70A d   1       6.609  39.098  26.425  0.00  0.00     0.056 H 
ATOM     59  H27 70A d   1       5.581  40.076  25.324  0.00  0.00     0.056 H 
ATOM     60  H28 70A d   1       7.254  40.610  25.701  0.00  0.00     0.056 H 
ENDBRANCH  13  57
BRANCH  10  61
ATOM     61  C9  70A d   1       3.337  34.391  23.664  0.00  0.00    -0.051 C 
ATOM     62  H15 70A d   1       2.257  34.231  23.799  0.00  0.00     0.033 H 
ATOM     63  H16 70A d   1       3.859  33.424  23.706  0.00  0.00     0.033 H 
ATOM     64  H17 70A d   1       3.518  34.864  22.687  0.00  0.00     0.033 H 
ENDBRANCH  10  61
BRANCH  15  65
ATOM     65  C39 70A d   1       7.555  39.947  20.149  0.00  0.00     0.051 A 
ATOM     66  C45 70A d   1       7.997  39.410  18.795  0.00  0.00    -0.046 A 
ATOM     67  C46 70A d   1       8.690  38.941  20.019  0.00  0.00    -0.046 A 
ATOM     68  H32 70A d   1       8.521  40.071  18.088  0.00  0.00     0.035 H 
ATOM     69  H33 70A d   1       7.343  38.722  18.238  0.00  0.00     0.035 H 
ATOM     70  H34 70A d   1       8.548  37.907  20.367  0.00  0.00     0.035 H 
ATOM     71  H35 70A d   1       9.726  39.255  20.216  0.00  0.00     0.035 H 
BRANCH  65  72
ATOM     72  C40 70A d   1       7.928  41.384  20.417  0.00  0.00     0.159 A 
ATOM     73  N41 70A d   1       9.143  41.914  20.276  0.00  0.00    -0.242 N 
ATOM     74  N42 70A d   1       9.078  43.235  20.546  0.00  0.00    -0.047 NA
ATOM     75  H31 70A d   1       9.993  41.399  20.005  0.00  0.00     0.192 HD
ATOM     76  N43 70A d   1       7.845  43.478  20.842  0.00  0.00    -0.023 NA
ATOM     77  N44 70A d   1       7.104  42.340  20.787  0.00  0.00    -0.113 NA
ENDBRANCH  65  72
ENDBRANCH  15  65
BRANCH   3  78
ATOM     78  C11 70A d   1       0.916  35.291  27.141  0.00  0.00    -0.067 C 
ATOM     79  H6  70A d   1      -0.172  35.157  27.048  0.00  0.00     0.028 H 
ATOM     80  H7  70A d   1       1.125  36.129  27.822  0.00  0.00     0.028 H 
ATOM     81  H8  70A d   1       1.366  34.371  27.543  0.00  0.00     0.028 H 
ENDBRANCH   3  78
TORSDOF 7
