REMARK  3 active torsions:
REMARK  status: ('A' for Active; 'I' for Inactive)
REMARK    1  A    between atoms: S_8  and  C7_10 
REMARK    2  A    between atoms: N_11  and  S_8 
REMARK    3  A    between atoms: N_11  and  C_12 
ROOT
ATOM      1  C1  6DP d   1      12.850 -18.830 -20.081  0.00  0.00     0.038 A 
ATOM      2  C2  6DP d   1      13.612 -19.985 -19.693  0.00  0.00     0.064 A 
ATOM      3  C3  6DP d   1      11.526 -19.177 -20.024  0.00  0.00     0.036 A 
ATOM      4  C4  6DP d   1      15.042 -19.948 -19.687  0.00  0.00    -0.055 A 
ATOM      5  C5  6DP d   1      15.644 -18.765 -20.063  0.00  0.00    -0.079 A 
ATOM      6  C6  6DP d   1      14.873 -17.604 -20.454  0.00  0.00    -0.056 A 
ATOM      7  C   6DP d   1      13.493 -17.648 -20.466  0.00  0.00     0.056 A 
ATOM      8  N1  6DP d   1      12.741 -21.004 -19.410  0.00  0.00    -0.278 N 
ATOM      9  N2  6DP d   1      11.522 -20.464 -19.642  0.00  0.00    -0.186 NA
ATOM     10  H1  6DP d   1      10.665 -18.547 -20.241  0.00  0.00     0.118 H 
ATOM     11  H2  6DP d   1      15.628 -20.813 -19.399  0.00  0.00     0.087 H 
ATOM     12  H3  6DP d   1      16.726 -18.703 -20.066  0.00  0.00     0.083 H 
ATOM     13  H4  6DP d   1      15.384 -16.692 -20.740  0.00  0.00     0.087 H 
ATOM     14  H9  6DP d   1      12.963 -21.959 -19.094  0.00  0.00     0.189 HD
ENDROOT
BRANCH   7  15
ATOM     15  N   6DP d   1      12.622 -16.614 -20.925  0.00  0.00    -0.284 N 
ATOM     16  H8  6DP d   1      11.820 -16.916 -21.441  0.00  0.00     0.178 HD
BRANCH  15  17
ATOM     17  S   6DP d   1      12.766 -15.015 -20.717  0.00  0.00     0.227 S 
ATOM     18  O1  6DP d   1      13.629 -14.619 -21.769  0.00  0.00    -0.206 OA
ATOM     19  O   6DP d   1      11.449 -14.487 -20.642  0.00  0.00    -0.206 OA
BRANCH  17  20
ATOM     20  C7  6DP d   1      13.574 -14.699 -19.260  0.00  0.00     0.033 C 
ATOM     21  H5  6DP d   1      14.595 -15.105 -19.311  0.00  0.00     0.051 H 
ATOM     22  H6  6DP d   1      13.032 -15.174 -18.429  0.00  0.00     0.051 H 
ATOM     23  H7  6DP d   1      13.620 -13.613 -19.094  0.00  0.00     0.051 H 
ENDBRANCH  17  20
ENDBRANCH  15  17
ENDBRANCH   7  15
TORSDOF 3
