REMARK  4 active torsions:
REMARK  status: ('A' for Active; 'I' for Inactive)
REMARK    1  A    between atoms: C02_2  and  C04_4 
REMARK    2  A    between atoms: C09_9  and  N10_10 
REMARK    3  A    between atoms: N10_10  and  C11_11 
REMARK    4  A    between atoms: C12_12  and  C13_13 
ROOT
ATOM      1  C11 6J3 d   1      -0.167  -0.465   7.650  0.00  0.00     0.041 A 
ATOM      2  C12 6J3 d   1       0.052   0.734   8.386  0.00  0.00    -0.013 A 
ATOM      3  C14 6J3 d   1       0.129   0.617   9.771  0.00  0.00     0.042 A 
ATOM      4 CL   6J3 d   1       0.403   2.039  10.677  0.00  0.00    -0.084 Cl
ATOM      5  C16 6J3 d   1       0.009  -0.578  10.463  0.00  0.00    -0.061 A 
ATOM      6  C17 6J3 d   1      -0.207  -1.745   9.725  0.00  0.00    -0.079 A 
ATOM      7  C18 6J3 d   1      -0.287  -1.691   8.335  0.00  0.00    -0.057 A 
ATOM      8  H8  6J3 d   1       0.081  -0.607  11.544  0.00  0.00     0.086 H 
ATOM      9  H9  6J3 d   1      -0.313  -2.695  10.236  0.00  0.00     0.083 H 
ATOM     10  H10 6J3 d   1      -0.444  -2.604   7.773  0.00  0.00     0.086 H 
ENDROOT
BRANCH   1  11
ATOM     11  N10 6J3 d   1      -0.249  -0.380   6.262  0.00  0.00    -0.340 N 
ATOM     12  H4  6J3 d   1       0.435   0.242   5.809  0.00  0.00     0.167 HD
BRANCH  11  13
ATOM     13  C09 6J3 d   1      -1.116  -1.013   5.431  0.00  0.00     0.144 A 
ATOM     14  C04 6J3 d   1      -1.002  -0.859   4.012  0.00  0.00     0.086 A 
ATOM     15  C05 6J3 d   1      -1.908  -1.527   3.193  0.00  0.00    -0.061 A 
ATOM     16  C06 6J3 d   1      -2.906  -2.333   3.759  0.00  0.00    -0.065 A 
ATOM     17  H1  6J3 d   1      -1.842  -1.424   2.116  0.00  0.00     0.085 H 
ATOM     18  C07 6J3 d   1      -2.944  -2.426   5.162  0.00  0.00     0.004 A 
ATOM     19  H2  6J3 d   1      -3.620  -2.864   3.140  0.00  0.00     0.085 H 
ATOM     20  N08 6J3 d   1      -2.075  -1.786   5.990  0.00  0.00    -0.242 NA
ATOM     21  H3  6J3 d   1      -3.712  -3.045   5.611  0.00  0.00     0.114 H 
BRANCH  14  22
ATOM     22  C02 6J3 d   1       0.030  -0.015   3.382  0.00  0.00     0.213 C 
ATOM     23  O01 6J3 d   1       0.061   0.023   2.088  0.00  0.00    -0.644 OA
ATOM     24  O03 6J3 d   1       0.825   0.635   4.121  0.00  0.00    -0.644 OA
ENDBRANCH  14  22
ENDBRANCH  11  13
ENDBRANCH   1  11
BRANCH   2  25
ATOM     25  C13 6J3 d   1       0.198   2.075   7.749  0.00  0.00    -0.048 C 
ATOM     26  H5  6J3 d   1       0.110   1.974   6.657  0.00  0.00     0.033 H 
ATOM     27  H6  6J3 d   1       1.183   2.495   8.000  0.00  0.00     0.033 H 
ATOM     28  H7  6J3 d   1      -0.592   2.745   8.120  0.00  0.00     0.033 H 
ENDBRANCH   2  25
TORSDOF 4
