REMARK  4 active torsions:
REMARK  status: ('A' for Active; 'I' for Inactive)
REMARK    1  A    between atoms: S02_2  and  C04_4 
REMARK    2  A    between atoms: S02_2  and  C11_11 
REMARK    3  A    between atoms: C07_7  and  O08_8 
REMARK    4  A    between atoms: C14_14  and  O15_15 
ROOT
ATOM      1  O01 6JD d   1     -41.493  -1.316  68.457  0.00  0.00    -0.217 OA
ATOM      2  S02 6JD d   1     -42.375  -0.218  68.659  0.00  0.00     0.206 S 
ATOM      3  O03 6JD d   1     -41.995   1.067  68.183  0.00  0.00    -0.217 OA
ENDROOT
BRANCH   2   4
ATOM      4  C04 6JD d   1     -43.908  -0.650  67.914  0.00  0.00     0.064 A 
ATOM      5  C05 6JD d   1     -44.520  -1.893  68.185  0.00  0.00    -0.059 A 
ATOM      6  C06 6JD d   1     -45.737  -2.206  67.570  0.00  0.00    -0.050 A 
ATOM      7  H1  6JD d   1     -44.052  -2.598  68.863  0.00  0.00     0.085 H 
ATOM      8  C07 6JD d   1     -46.332  -1.312  66.689  0.00  0.00     0.065 A 
ATOM      9  H2  6JD d   1     -46.219  -3.153  67.783  0.00  0.00     0.087 H 
ATOM     10  C09 6JD d   1     -45.726  -0.091  66.413  0.00  0.00    -0.050 A 
ATOM     11  C10 6JD d   1     -44.514   0.246  67.018  0.00  0.00    -0.059 A 
ATOM     12  H4  6JD d   1     -46.197   0.602  65.725  0.00  0.00     0.087 H 
ATOM     13  H5  6JD d   1     -44.042   1.196  66.797  0.00  0.00     0.085 H 
BRANCH   8  14
ATOM     14  O08 6JD d   1     -47.526  -1.620  66.078  0.00  0.00    -0.361 OA
ATOM     15  H3  6JD d   1     -47.786  -0.902  65.513  0.00  0.00     0.217 HD
ENDBRANCH   8  14
ENDBRANCH   2   4
BRANCH   2  16
ATOM     16  C11 6JD d   1     -42.647  -0.094  70.392  0.00  0.00     0.064 A 
ATOM     17  C12 6JD d   1     -42.291   1.082  71.078  0.00  0.00    -0.059 A 
ATOM     18  C13 6JD d   1     -42.506   1.167  72.461  0.00  0.00    -0.050 A 
ATOM     19  H6  6JD d   1     -41.854   1.916  70.541  0.00  0.00     0.085 H 
ATOM     20  C14 6JD d   1     -43.063   0.098  73.155  0.00  0.00     0.065 A 
ATOM     21  H7  6JD d   1     -42.236   2.072  72.993  0.00  0.00     0.087 H 
ATOM     22  C16 6JD d   1     -43.410  -1.065  72.478  0.00  0.00    -0.050 A 
ATOM     23  C17 6JD d   1     -43.199  -1.159  71.104  0.00  0.00    -0.059 A 
ATOM     24  H9  6JD d   1     -43.844  -1.898  73.018  0.00  0.00     0.087 H 
ATOM     25  H10 6JD d   1     -43.467  -2.071  70.582  0.00  0.00     0.085 H 
BRANCH  20  26
ATOM     26  O15 6JD d   1     -43.277   0.171  74.512  0.00  0.00    -0.361 OA
ATOM     27  H8  6JD d   1     -43.661  -0.643  74.815  0.00  0.00     0.217 HD
ENDBRANCH  20  26
ENDBRANCH   2  16
TORSDOF 4
