REMARK  3 active torsions:
REMARK  status: ('A' for Active; 'I' for Inactive)
REMARK    1  A    between atoms: C03_3  and  O09_9 
REMARK    2  A    between atoms: O09_9  and  C10_10 
REMARK    3  A    between atoms: C10_10  and  C11_11 
ROOT
ATOM      1  C01 SBK d   1     -22.157  -0.076 -23.618  0.00  0.00    -0.034 A 
ATOM      2  C02 SBK d   1     -21.995   0.893 -24.657  0.00  0.00     0.088 A 
ATOM      3  C03 SBK d   1     -21.042   0.640 -25.669  0.00  0.00     0.188 A 
ATOM      4  N04 SBK d   1     -20.306  -0.452 -25.678  0.00  0.00    -0.209 NA
ATOM      5  C05 SBK d   1     -20.453  -1.357 -24.709  0.00  0.00     0.150 A 
ATOM      6  C06 SBK d   1     -21.361  -1.237 -23.635  0.00  0.00     0.076 A 
ATOM      7 CL6  SBK d   1     -21.519  -2.478 -22.385  0.00  0.00    -0.081 Cl
ATOM      8 CL5  SBK d   1     -19.416  -2.739 -24.830  0.00  0.00    -0.060 Cl
ATOM      9 CL2  SBK d   1     -22.969   2.359 -24.665  0.00  0.00    -0.080 Cl
ATOM     10  H1  SBK d   1     -22.883   0.081 -22.828  0.00  0.00     0.089 H 
ENDROOT
BRANCH   3  11
ATOM     11  O09 SBK d   1     -20.907   1.555 -26.653  0.00  0.00    -0.323 OA
BRANCH  11  12
ATOM     12  C10 SBK d   1     -20.356   1.095 -27.919  0.00  0.00     0.107 C 
ATOM     13  H2  SBK d   1     -19.383   0.616 -27.738  0.00  0.00     0.091 H 
ATOM     14  H3  SBK d   1     -20.221   1.956 -28.590  0.00  0.00     0.091 H 
BRANCH  12  15
ATOM     15  C11 SBK d   1     -21.280   0.106 -28.565  0.00  0.00     0.198 C 
ATOM     16  O12 SBK d   1     -22.054  -0.640 -27.825  0.00  0.00    -0.646 OA
ATOM     17  O13 SBK d   1     -21.284   0.010 -29.780  0.00  0.00    -0.646 OA
ENDBRANCH  12  15
ENDBRANCH  11  12
ENDBRANCH   3  11
TORSDOF 3
