REMARK  7 active torsions:
REMARK  status: ('A' for Active; 'I' for Inactive)
REMARK    1  A    between atoms: C10_7  and  C11_8 
REMARK    2  A    between atoms: C18_18  and  C12_9 
REMARK    3  A    between atoms: S24_24  and  C13_10 
REMARK    4  A    between atoms: C14_11  and  C16_13 
REMARK    5  A    between atoms: C15_12  and  C17_17 
REMARK    6  A    between atoms: N20_20  and  C18_18 
REMARK    7  A    between atoms: N20_20  and  S24_24 
ROOT
ATOM      1  C7  6Q0 d   1       5.851  17.885  17.727  0.00  0.00    -0.074 A 
ATOM      2  C10 6Q0 d   1       7.160  17.833  15.715  0.00  0.00    -0.021 A 
ATOM      3  C12 6Q0 d   1       6.600  18.948  18.197  0.00  0.00    -0.040 A 
ATOM      4  C4  6Q0 d   1       7.910  18.903  16.180  0.00  0.00    -0.071 A 
ATOM      5  C5  6Q0 d   1       6.121  17.329  16.488  0.00  0.00    -0.071 A 
ATOM      6  C6  6Q0 d   1       7.613  19.457  17.408  0.00  0.00    -0.074 A 
ATOM      7  H4  6Q0 d   1       5.047  17.484  18.333  0.00  0.00     0.084 H 
ATOM      8  H10 6Q0 d   1       8.723  19.301  15.583  0.00  0.00     0.084 H 
ATOM      9  H11 6Q0 d   1       5.523  16.502  16.122  0.00  0.00     0.084 H 
ATOM     10  H12 6Q0 d   1       8.185  20.308  17.760  0.00  0.00     0.084 H 
ENDROOT
BRANCH   3  11
ATOM     11  C18 6Q0 d   1       6.321  19.533  19.549  0.00  0.00     0.026 C 
ATOM     12  H16 6Q0 d   1       5.702  18.822  20.117  0.00  0.00     0.072 H 
ATOM     13  H17 6Q0 d   1       5.769  20.475  19.416  0.00  0.00     0.072 H 
BRANCH  11  14
ATOM     14  N20 6Q0 d   1       7.558  19.816  20.332  0.00  0.00    -0.311 N 
ATOM     15  H18 6Q0 d   1       7.816  20.763  20.523  0.00  0.00     0.172 HD
BRANCH  14  16
ATOM     16  S24 6Q0 d   1       8.554  18.523  20.916  0.00  0.00     0.259 S 
ATOM     17  O21 6Q0 d   1       7.720  17.535  21.551  0.00  0.00    -0.201 OA
ATOM     18  O22 6Q0 d   1       9.664  19.107  21.648  0.00  0.00    -0.201 OA
BRANCH  16  19
ATOM     19  C13 6Q0 d   1       9.279  17.687  19.515  0.00  0.00     0.079 A 
ATOM     20  C8  6Q0 d   1      10.342  18.253  18.844  0.00  0.00    -0.060 A 
ATOM     21  C2  6Q0 d   1      10.870  17.576  17.757  0.00  0.00    -0.082 A 
ATOM     22  H5  6Q0 d   1      10.755  19.204  19.159  0.00  0.00     0.085 H 
ATOM     23  C1  6Q0 d   1      10.352  16.356  17.359  0.00  0.00    -0.083 A 
ATOM     24  H2  6Q0 d   1      11.701  18.008  17.210  0.00  0.00     0.083 H 
ATOM     25  C3  6Q0 d   1       9.299  15.788  18.054  0.00  0.00    -0.082 A 
ATOM     26  H1  6Q0 d   1      10.772  15.844  16.501  0.00  0.00     0.083 H 
ATOM     27  C9  6Q0 d   1       8.760  16.462  19.134  0.00  0.00    -0.060 A 
ATOM     28  H3  6Q0 d   1       8.901  14.825  17.755  0.00  0.00     0.083 H 
ATOM     29  H6  6Q0 d   1       7.931  16.031  19.683  0.00  0.00     0.085 H 
ENDBRANCH  16  19
ENDBRANCH  14  16
ENDBRANCH  11  14
ENDBRANCH   3  11
BRANCH   2  30
ATOM     30  C11 6Q0 d   1       7.459  17.255  14.422  0.00  0.00     0.032 A 
ATOM     31  C14 6Q0 d   1       7.658  17.884  13.168  0.00  0.00     0.071 A 
ATOM     32  N19 6Q0 d   1       7.903  17.006  12.194  0.00  0.00    -0.133 NA
ATOM     33  O23 6Q0 d   1       7.879  15.767  12.816  0.00  0.00    -0.217 OA
ATOM     34  C15 6Q0 d   1       7.609  15.913  14.136  0.00  0.00     0.088 A 
BRANCH  31  35
ATOM     35  C16 6Q0 d   1       7.612  19.311  12.819  0.00  0.00    -0.033 C 
ATOM     36  H7  6Q0 d   1       7.816  19.433  11.745  0.00  0.00     0.035 H 
ATOM     37  H8  6Q0 d   1       8.371  19.855  13.400  0.00  0.00     0.035 H 
ATOM     38  H9  6Q0 d   1       6.615  19.713  13.050  0.00  0.00     0.035 H 
ENDBRANCH  31  35
BRANCH  34  39
ATOM     39  C17 6Q0 d   1       7.566  14.644  14.892  0.00  0.00    -0.028 C 
ATOM     40  H13 6Q0 d   1       7.751  13.803  14.207  0.00  0.00     0.036 H 
ATOM     41  H14 6Q0 d   1       6.576  14.527  15.357  0.00  0.00     0.036 H 
ATOM     42  H15 6Q0 d   1       8.339  14.657  15.674  0.00  0.00     0.036 H 
ENDBRANCH  34  39
ENDBRANCH   2  30
TORSDOF 7
