REMARK  10 active torsions:
REMARK  status: ('A' for Active; 'I' for Inactive)
REMARK    1  A    between atoms: C2_2  and  C1_1 
REMARK    2  A    between atoms: O7_20  and  C8_4 
REMARK    3  A    between atoms: C17_23  and  C16_10 
REMARK    4  A    between atoms: C21_13  and  C20_12 
REMARK    5  A    between atoms: N22_25  and  C21_13 
REMARK    6  A    between atoms: C26_29  and  C27_14 
REMARK    7  A    between atoms: C5_18  and  C6_19 
REMARK    8  A    between atoms: C6_19  and  O7_20 
REMARK    9  A    between atoms: S23_26  and  N22_25 
REMARK   10  A    between atoms: S23_26  and  C26_29 
ROOT
ATOM      1  C19 6QE d   1      -7.565  19.548 -17.315  0.00  0.00    -0.074 A 
ATOM      2  C20 6QE d   1      -6.528  19.078 -18.101  0.00  0.00    -0.040 A 
ATOM      3  C30 6QE d   1      -5.794  17.980 -17.686  0.00  0.00    -0.074 A 
ATOM      4  C31 6QE d   1      -6.087  17.362 -16.484  0.00  0.00    -0.071 A 
ATOM      5  C17 6QE d   1      -7.148  17.822 -15.711  0.00  0.00    -0.021 A 
ATOM      6  C18 6QE d   1      -7.882  18.917 -16.131  0.00  0.00    -0.071 A 
ATOM      7  H7  6QE d   1      -8.131  20.417 -17.632  0.00  0.00     0.084 H 
ATOM      8  H13 6QE d   1      -4.987  17.604 -18.305  0.00  0.00     0.084 H 
ATOM      9  H14 6QE d   1      -5.492  16.522 -16.145  0.00  0.00     0.084 H 
ATOM     10  H17 6QE d   1      -8.707  19.279 -15.528  0.00  0.00     0.084 H 
ENDROOT
BRANCH   5  11
ATOM     11  C16 6QE d   1      -7.474  17.225 -14.428  0.00  0.00     0.035 A 
ATOM     12  C2  6QE d   1      -7.614  17.877 -13.178  0.00  0.00     0.072 A 
ATOM     13  N3  6QE d   1      -7.867  17.031 -12.175  0.00  0.00    -0.132 NA
ATOM     14  O4  6QE d   1      -7.897  15.776 -12.781  0.00  0.00    -0.214 OA
ATOM     15  C5  6QE d   1      -7.666  15.895 -14.118  0.00  0.00     0.116 A 
BRANCH  12  16
ATOM     16  C1  6QE d   1      -7.513  19.317 -12.911  0.00  0.00    -0.033 C 
ATOM     17  H1  6QE d   1      -7.671  19.503 -11.838  0.00  0.00     0.035 H 
ATOM     18  H2  6QE d   1      -8.278  19.852 -13.492  0.00  0.00     0.035 H 
ATOM     19  H3  6QE d   1      -6.514  19.675 -13.202  0.00  0.00     0.035 H 
ENDBRANCH  12  16
BRANCH  15  20
ATOM     20  C6  6QE d   1      -7.697  14.607 -14.828  0.00  0.00     0.073 C 
ATOM     21  H15 6QE d   1      -8.379  13.919 -14.306  0.00  0.00     0.085 H 
ATOM     22  H16 6QE d   1      -6.685  14.176 -14.847  0.00  0.00     0.085 H 
BRANCH  20  23
ATOM     23  O7  6QE d   1      -8.153  14.800 -16.165  0.00  0.00    -0.341 OA
BRANCH  23  24
ATOM     24  C8  6QE d   1      -9.529  14.628 -16.328  0.00  0.00     0.111 A 
ATOM     25  C9  6QE d   1     -10.252  15.766 -16.628  0.00  0.00    -0.048 A 
ATOM     26  C10 6QE d   1     -11.604  15.713 -16.896  0.00  0.00    -0.077 A 
ATOM     27  H4  6QE d   1      -9.745  16.724 -16.653  0.00  0.00     0.087 H 
ATOM     28  C11 6QE d   1     -12.252  14.497 -16.858  0.00  0.00    -0.042 A 
ATOM     29  H5  6QE d   1     -12.151  16.618 -17.134  0.00  0.00     0.083 H 
ATOM     30  C12 6QE d   1     -11.536  13.355 -16.559  0.00  0.00     0.157 A 
ATOM     31  H6  6QE d   1     -13.315  14.438 -17.061  0.00  0.00     0.088 H 
ATOM     32  C14 6QE d   1     -10.179  13.398 -16.312  0.00  0.00     0.188 A 
ATOM     33  F13 6QE d   1     -12.160  12.171 -16.529  0.00  0.00    -0.203 F 
ATOM     34  F15 6QE d   1      -9.565  12.224 -16.045  0.00  0.00    -0.200 F 
ENDBRANCH  23  24
ENDBRANCH  20  23
ENDBRANCH  15  20
ENDBRANCH   5  11
BRANCH   2  35
ATOM     35  C21 6QE d   1      -6.236  19.744 -19.402  0.00  0.00     0.026 C 
ATOM     36  H8  6QE d   1      -5.559  19.104 -19.987  0.00  0.00     0.072 H 
ATOM     37  H9  6QE d   1      -5.750  20.711 -19.207  0.00  0.00     0.072 H 
BRANCH  35  38
ATOM     38  N22 6QE d   1      -7.480  19.977 -20.186  0.00  0.00    -0.315 N 
ATOM     39  H18 6QE d   1      -7.982  20.835 -20.078  0.00  0.00     0.172 HD
BRANCH  38  40
ATOM     40  S23 6QE d   1      -8.058  18.779 -21.276  0.00  0.00     0.235 S 
ATOM     41  O24 6QE d   1      -6.928  17.912 -21.540  0.00  0.00    -0.205 OA
ATOM     42  O25 6QE d   1      -8.821  19.412 -22.332  0.00  0.00    -0.205 OA
BRANCH  40  43
ATOM     43  C26 6QE d   1      -9.214  17.616 -20.508  0.00  0.00     0.079 A 
ATOM     44  C28 6QE d   1      -9.090  17.452 -19.045  0.00  0.00    -0.042 A 
ATOM     45  C29 6QE d   1     -10.183  18.314 -19.605  0.00  0.00    -0.042 A 
ATOM     46  H19 6QE d   1      -8.247  17.913 -18.510  0.00  0.00     0.035 H 
ATOM     47  H20 6QE d   1      -9.337  16.487 -18.578  0.00  0.00     0.035 H 
ATOM     48  H21 6QE d   1     -11.230  17.981 -19.555  0.00  0.00     0.035 H 
ATOM     49  H22 6QE d   1     -10.140  19.407 -19.487  0.00  0.00     0.035 H 
BRANCH  43  50
ATOM     50  C27 6QE d   1      -9.333  16.322 -21.214  0.00  0.00    -0.054 C 
ATOM     51  H10 6QE d   1     -10.051  15.680 -20.683  0.00  0.00     0.029 H 
ATOM     52  H11 6QE d   1      -8.351  15.828 -21.242  0.00  0.00     0.029 H 
ATOM     53  H12 6QE d   1      -9.686  16.496 -22.241  0.00  0.00     0.029 H 
ENDBRANCH  43  50
ENDBRANCH  40  43
ENDBRANCH  38  40
ENDBRANCH  35  38
ENDBRANCH   2  35
TORSDOF 10
