REMARK  1 active torsions:
REMARK  status: ('A' for Active; 'I' for Inactive)
REMARK    1  A    between atoms: C15_12  and  C21_16 
ROOT
ATOM      1  C1  6QG d   1      11.181  13.543  16.599  0.00  0.00    -0.080 A 
ATOM      2  C2  6QG d   1       6.143  17.472  16.535  0.00  0.00    -0.071 A 
ATOM      3  C3  6QG d   1       7.969  18.981  16.199  0.00  0.00    -0.071 A 
ATOM      4  C7  6QG d   1       9.881  13.405  16.131  0.00  0.00    -0.051 A 
ATOM      5  C8  6QG d   1       9.395  15.587  16.967  0.00  0.00    -0.045 A 
ATOM      6  C9  6QG d   1       7.192  17.926  15.750  0.00  0.00    -0.021 A 
ATOM      7  C10 6QG d   1       7.471  17.365  14.441  0.00  0.00     0.035 A 
ATOM      8  C11 6QG d   1       6.685  19.104  18.223  0.00  0.00    -0.040 A 
ATOM      9  C12 6QG d   1      10.668  15.731  17.434  0.00  0.00    -0.056 A 
ATOM     10  C13 6QG d   1       8.996  14.459  16.314  0.00  0.00     0.069 A 
ATOM     11  C14 6QG d   1       7.607  16.046  14.050  0.00  0.00     0.116 A 
ATOM     12  C15 6QG d   1       7.602  18.055  13.204  0.00  0.00     0.072 A 
ATOM     13  C16 6QG d   1      10.915  17.025  18.122  0.00  0.00    -0.040 C 
ATOM     14  C19 6QG d   1       9.947  17.157  19.294  0.00  0.00    -0.048 C 
ATOM     15  C20 6QG d   1       9.886  18.578  19.789  0.00  0.00     0.046 C 
ATOM     16  N23 6QG d   1       7.605  20.058  20.364  0.00  0.00    -0.315 N 
ATOM     17  C4  6QG d   1      11.579  14.703  17.254  0.00  0.00    -0.077 A 
ATOM     18  C5  6QG d   1       5.895  18.065  17.762  0.00  0.00    -0.074 A 
ATOM     19  C6  6QG d   1       7.717  19.561  17.426  0.00  0.00    -0.074 A 
ATOM     20  C17 6QG d   1       6.401  19.716  19.563  0.00  0.00     0.026 C 
ATOM     21  C18 6QG d   1       7.614  14.680  14.555  0.00  0.00     0.073 C 
ATOM     22  N22 6QG d   1       7.785  17.245  12.157  0.00  0.00    -0.132 NA
ATOM     23  O24 6QG d   1       7.890  17.636  21.257  0.00  0.00    -0.206 OA
ATOM     24  O25 6QG d   1       9.378  19.452  22.131  0.00  0.00    -0.206 OA
ATOM     25  O26 6QG d   1       7.816  15.980  12.715  0.00  0.00    -0.214 OA
ATOM     26  O27 6QG d   1       7.655  14.514  15.951  0.00  0.00    -0.345 OA
ATOM     27  S28 6QG d   1       8.648  18.852  21.035  0.00  0.00     0.226 S 
ATOM     28  H1  6QG d   1      11.893  12.739  16.452  0.00  0.00     0.083 H 
ATOM     29  H2  6QG d   1       5.519  16.656  16.190  0.00  0.00     0.084 H 
ATOM     30  H3  6QG d   1       8.780  19.353  15.583  0.00  0.00     0.084 H 
ATOM     31  H4  6QG d   1       9.564  12.495  15.634  0.00  0.00     0.087 H 
ATOM     32  H5  6QG d   1       8.682  16.390  17.119  0.00  0.00     0.088 H 
ATOM     33  H6  6QG d   1      10.755  17.854  17.417  0.00  0.00     0.040 H 
ATOM     34  H7  6QG d   1      11.950  17.054  18.494  0.00  0.00     0.040 H 
ATOM     35  H8  6QG d   1      10.284  16.505  20.113  0.00  0.00     0.034 H 
ATOM     36  H9  6QG d   1       8.943  16.847  18.968  0.00  0.00     0.034 H 
ATOM     37  H10 6QG d   1       9.668  19.234  18.933  0.00  0.00     0.058 H 
ATOM     38  H11 6QG d   1      10.867  18.840  20.212  0.00  0.00     0.058 H 
ATOM     39  H15 6QG d   1       7.821  21.022  20.521  0.00  0.00     0.172 HD
ATOM     40  H16 6QG d   1      12.594  14.802  17.621  0.00  0.00     0.084 H 
ATOM     41  H17 6QG d   1       5.071  17.710  18.370  0.00  0.00     0.084 H 
ATOM     42  H18 6QG d   1       8.335  20.383  17.768  0.00  0.00     0.084 H 
ATOM     43  H19 6QG d   1       5.796  19.003  20.143  0.00  0.00     0.072 H 
ATOM     44  H20 6QG d   1       5.825  20.639  19.402  0.00  0.00     0.072 H 
ATOM     45  H21 6QG d   1       8.497  14.176  14.135  0.00  0.00     0.085 H 
ATOM     46  H22 6QG d   1       6.702  14.187  14.189  0.00  0.00     0.085 H 
ENDROOT
BRANCH  12  47
ATOM     47  C21 6QG d   1       7.573  19.496  12.933  0.00  0.00    -0.033 C 
ATOM     48  H12 6QG d   1       7.706  19.669  11.855  0.00  0.00     0.035 H 
ATOM     49  H13 6QG d   1       8.385  19.990  13.487  0.00  0.00     0.035 H 
ATOM     50  H14 6QG d   1       6.606  19.910  13.254  0.00  0.00     0.035 H 
ENDBRANCH  12  47
TORSDOF 1
