REMARK  10 active torsions:
REMARK  status: ('A' for Active; 'I' for Inactive)
REMARK    1  A    between atoms: CAA_1  and  OAX_2 
REMARK    2  A    between atoms: OAX_2  and  CBB_3 
REMARK    3  A    between atoms: CBA_12  and  CAT_13 
REMARK    4  A    between atoms: CAT_13  and  NBH_14 
REMARK    5  A    between atoms: NBI_20  and  CAR_21 
REMARK    6  A    between atoms: CAR_21  and  CAO_22 
REMARK    7  A    between atoms: CAO_22  and  OAC_23 
REMARK    8  A    between atoms: CBC_25  and  CAY_26 
REMARK       I    between atoms: CAY_26  and  NAW_28 
REMARK    9  A    between atoms: NAW_28  and  CAS_29 
REMARK   10  A    between atoms: CAS_29  and  CAZ_30 
ROOT
ATOM      1  NBH 6RB d   1      16.142  15.633   3.584  0.00  0.00    -0.063 N 
ATOM      2  CAU 6RB d   1      15.453  15.048   2.457  0.00  0.00     0.112 C 
ATOM      3  CBD 6RB d   1      15.774  13.723   2.140  0.00  0.00     0.028 A 
ATOM      4  CAQ 6RB d   1      16.190  14.582   4.645  0.00  0.00     0.089 C 
ATOM      5  CAP 6RB d   1      16.977  13.283   4.202  0.00  0.00    -0.002 C 
ATOM      6  CBE 6RB d   1      16.506  12.898   2.959  0.00  0.00     0.043 A 
ATOM      7  NBI 6RB d   1      16.613  11.696   2.396  0.00  0.00    -0.271 N 
ATOM      8  NAV 6RB d   1      15.962  11.753   1.180  0.00  0.00    -0.166 NA
ATOM      9  CBC 6RB d   1      15.462  12.994   1.019  0.00  0.00     0.154 A 
ATOM     10  H12 6RB d   1      17.098  15.730   3.279  0.00  0.00     0.280 HD
ATOM     11  H13 6RB d   1      15.676  15.665   1.574  0.00  0.00     0.083 H 
ATOM     12  H14 6RB d   1      14.374  15.088   2.669  0.00  0.00     0.083 H 
ATOM     13  H15 6RB d   1      15.159  14.296   4.900  0.00  0.00     0.076 H 
ATOM     14  H16 6RB d   1      16.684  15.004   5.533  0.00  0.00     0.076 H 
ATOM     15  H17 6RB d   1      16.807  12.477   4.931  0.00  0.00     0.044 H 
ATOM     16  H18 6RB d   1      18.053  13.502   4.141  0.00  0.00     0.044 H 
ENDROOT
BRANCH   1  17
ATOM     17  CAT 6RB d   1      15.769  17.094   3.993  0.00  0.00     0.108 C 
ATOM     18  H10 6RB d   1      16.608  17.534   4.552  0.00  0.00     0.083 H 
ATOM     19  H11 6RB d   1      15.586  17.684   3.083  0.00  0.00     0.083 H 
BRANCH  17  20
ATOM     20  CBA 6RB d   1      14.582  17.128   4.822  0.00  0.00    -0.021 A 
ATOM     21  CAK 6RB d   1      13.345  17.224   4.193  0.00  0.00    -0.072 A 
ATOM     22  CAL 6RB d   1      12.092  17.222   4.856  0.00  0.00    -0.049 A 
ATOM     23  H5  6RB d   1      13.339  17.307   3.112  0.00  0.00     0.084 H 
ATOM     24  CBB 6RB d   1      12.089  17.104   6.266  0.00  0.00     0.079 A 
ATOM     25  H4  6RB d   1      11.165  17.308   4.300  0.00  0.00     0.087 H 
ATOM     26  CBG 6RB d   1      13.309  16.956   6.934  0.00  0.00     0.008 A 
ATOM     27  CAN 6RB d   1      13.307  16.808   8.347  0.00  0.00    -0.070 A 
ATOM     28  CBF 6RB d   1      14.550  16.980   6.242  0.00  0.00    -0.015 A 
ATOM     29  CAH 6RB d   1      14.449  16.666   9.099  0.00  0.00    -0.082 A 
ATOM     30  H6  6RB d   1      12.352  16.807   8.861  0.00  0.00     0.085 H 
ATOM     31  CAG 6RB d   1      15.656  16.744   8.430  0.00  0.00    -0.082 A 
ATOM     32  H7  6RB d   1      14.405  16.500  10.169  0.00  0.00     0.083 H 
ATOM     33  CAM 6RB d   1      15.704  16.847   7.008  0.00  0.00    -0.072 A 
ATOM     34  H8  6RB d   1      16.581  16.727   8.995  0.00  0.00     0.083 H 
ATOM     35  H9  6RB d   1      16.667  16.821   6.510  0.00  0.00     0.084 H 
BRANCH  24  36
ATOM     36  OAX 6RB d   1      10.938  17.025   6.998  0.00  0.00    -0.355 OA
BRANCH  36  37
ATOM     37  CAA 6RB d   1       9.651  17.086   6.458  0.00  0.00     0.010 C 
ATOM     38  H1  6RB d   1       8.910  16.998   7.266  0.00  0.00     0.066 H 
ATOM     39  H2  6RB d   1       9.514  16.261   5.743  0.00  0.00     0.066 H 
ATOM     40  H3  6RB d   1       9.516  18.047   5.940  0.00  0.00     0.066 H 
ENDBRANCH  36  37
ENDBRANCH  24  36
ENDBRANCH  17  20
ENDBRANCH   1  17
BRANCH   9  41
ATOM     41  CAY 6RB d   1      14.709  13.376  -0.055  0.00  0.00     0.272 C 
ATOM     42  OAB 6RB d   1      14.179  14.490  -0.153  0.00  0.00    -0.266 OA
ATOM     43  NAW 6RB d   1      14.608  12.469  -1.037  0.00  0.00    -0.351 N 
ATOM     44  H24 6RB d   1      15.120  11.613  -0.972  0.00  0.00     0.163 HD
BRANCH  43  45
ATOM     45  CAS 6RB d   1      13.782  12.708  -2.171  0.00  0.00     0.019 C 
ATOM     46  H25 6RB d   1      14.281  12.306  -3.065  0.00  0.00     0.071 H 
ATOM     47  H26 6RB d   1      13.642  13.793  -2.286  0.00  0.00     0.071 H 
BRANCH  45  48
ATOM     48  CAZ 6RB d   1      12.476  12.077  -2.037  0.00  0.00    -0.041 A 
ATOM     49  CAI 6RB d   1      11.723  11.815  -3.174  0.00  0.00    -0.075 A 
ATOM     50  CAE 6RB d   1      10.437  11.239  -3.102  0.00  0.00    -0.082 A 
ATOM     51  H27 6RB d   1      12.136  12.060  -4.146  0.00  0.00     0.084 H 
ATOM     52  CAD 6RB d   1       9.929  10.923  -1.851  0.00  0.00    -0.083 A 
ATOM     53  H28 6RB d   1       9.861  11.049  -4.001  0.00  0.00     0.083 H 
ATOM     54  CAF 6RB d   1      10.654  11.203  -0.706  0.00  0.00    -0.082 A 
ATOM     55  H29 6RB d   1       8.956  10.453  -1.769  0.00  0.00     0.083 H 
ATOM     56  CAJ 6RB d   1      11.916  11.778  -0.791  0.00  0.00    -0.075 A 
ATOM     57  H30 6RB d   1      10.233  10.972   0.266  0.00  0.00     0.083 H 
ATOM     58  H31 6RB d   1      12.470  11.996   0.115  0.00  0.00     0.084 H 
ENDBRANCH  45  48
ENDBRANCH  43  45
ENDBRANCH   9  41
BRANCH   7  59
ATOM     59  CAR 6RB d   1      17.283  10.439   2.837  0.00  0.00     0.036 C 
ATOM     60  H19 6RB d   1      16.609   9.594   2.633  0.00  0.00     0.070 H 
ATOM     61  H20 6RB d   1      17.470  10.505   3.919  0.00  0.00     0.070 H 
BRANCH  59  62
ATOM     62  CAO 6RB d   1      18.621  10.177   2.126  0.00  0.00     0.033 C 
ATOM     63  H21 6RB d   1      18.434   9.763   1.124  0.00  0.00     0.076 H 
ATOM     64  H22 6RB d   1      19.220   9.464   2.712  0.00  0.00     0.076 H 
BRANCH  62  65
ATOM     65  OAC 6RB d   1      19.319  11.410   2.013  0.00  0.00    -0.399 OA
ATOM     66  H23 6RB d   1      18.797  12.023   1.508  0.00  0.00     0.209 HD
ENDBRANCH  62  65
ENDBRANCH  59  62
ENDBRANCH   7  59
TORSDOF 10
