REMARK  10 active torsions:
REMARK  status: ('A' for Active; 'I' for Inactive)
REMARK    1  A    between atoms: N3_3  and  C17_4 
REMARK    2  A    between atoms: C17_4  and  C19_5 
REMARK    3  A    between atoms: C17_4  and  C18_6 
REMARK    4  A    between atoms: C16_14  and  C4_15 
REMARK    5  A    between atoms: C6_19  and  C7_23 
REMARK    6  A    between atoms: C1_20  and  O_21 
REMARK    7  A    between atoms: O_21  and  C_22 
REMARK    8  A    between atoms: C10_26  and  C13_29 
REMARK       I    between atoms: C13_29  and  N_31 
REMARK    9  A    between atoms: N_31  and  C14_32 
REMARK   10  A    between atoms: C14_32  and  C15_33 
REMARK       I    between atoms: C15_33  and  N1_35 
ROOT
ATOM      1  C4  908 d   1      27.078  10.867  -2.971  0.00  0.00    -0.008 A 
ATOM      2  C3  908 d   1      27.126  10.510  -1.624  0.00  0.00    -0.068 A 
ATOM      3  C2  908 d   1      27.624  11.394  -0.679  0.00  0.00    -0.049 A 
ATOM      4  C5  908 d   1      27.546  12.115  -3.360  0.00  0.00    -0.058 A 
ATOM      5  C6  908 d   1      28.029  13.028  -2.432  0.00  0.00     0.008 A 
ATOM      6  C1  908 d   1      28.093  12.652  -1.084  0.00  0.00     0.079 A 
ATOM      7  H16 908 d   1      26.771   9.534  -1.313  0.00  0.00     0.085 H 
ATOM      8  H17 908 d   1      27.651  11.114   0.368  0.00  0.00     0.087 H 
ATOM      9  H18 908 d   1      27.534  12.382  -4.410  0.00  0.00     0.086 H 
ENDROOT
BRANCH   1  10
ATOM     10  C16 908 d   1      26.452   9.995  -3.976  0.00  0.00     0.070 C 
ATOM     11  N2  908 d   1      25.825  10.641  -4.900  0.00  0.00    -0.173 NA
ATOM     12  N3  908 d   1      25.457   9.995  -6.060  0.00  0.00    -0.234 N 
ATOM     13  C20 908 d   1      25.833   8.687  -6.289  0.00  0.00     0.245 C 
ATOM     14  O3  908 d   1      25.224   8.028  -7.102  0.00  0.00    -0.271 OA
ATOM     15  C21 908 d   1      26.863   8.016  -5.390  0.00  0.00     0.037 C 
ATOM     16  C26 908 d   1      26.596   8.490  -3.952  0.00  0.00     0.006 C 
ATOM     17  C22 908 d   1      26.972   6.484  -5.421  0.00  0.00    -0.038 C 
ATOM     18  H8  908 d   1      27.846   8.398  -5.702  0.00  0.00     0.056 H 
ATOM     19  C25 908 d   1      25.319   7.839  -3.384  0.00  0.00    -0.041 C 
ATOM     20  H9  908 d   1      27.449   8.214  -3.314  0.00  0.00     0.051 H 
ATOM     21  C24 908 d   1      25.205   6.378  -3.714  0.00  0.00    -0.106 C 
ATOM     22  H10 908 d   1      24.445   8.361  -3.800  0.00  0.00     0.040 H 
ATOM     23  H11 908 d   1      25.326   7.951  -2.290  0.00  0.00     0.040 H 
ATOM     24  C23 908 d   1      25.795   5.826  -4.753  0.00  0.00    -0.106 C 
ATOM     25  H12 908 d   1      24.605   5.745  -3.062  0.00  0.00     0.076 H 
ATOM     26  H13 908 d   1      25.425   4.876  -5.136  0.00  0.00     0.076 H 
ATOM     27  H14 908 d   1      27.892   6.182  -4.899  0.00  0.00     0.040 H 
ATOM     28  H15 908 d   1      27.018   6.152  -6.468  0.00  0.00     0.040 H 
BRANCH  12  29
ATOM     29  C17 908 d   1      24.596  10.920  -6.840  0.00  0.00     0.031 C 
ATOM     30  H1  908 d   1      25.059  11.918  -6.815  0.00  0.00     0.074 H 
BRANCH  29  31
ATOM     31  C19 908 d   1      23.220  11.034  -6.187  0.00  0.00    -0.056 C 
ATOM     32  H2  908 d   1      22.592  11.721  -6.773  0.00  0.00     0.030 H 
ATOM     33  H3  908 d   1      23.331  11.421  -5.163  0.00  0.00     0.030 H 
ATOM     34  H4  908 d   1      22.746  10.042  -6.154  0.00  0.00     0.030 H 
ENDBRANCH  29  31
BRANCH  29  35
ATOM     35  C18 908 d   1      24.526  10.484  -8.304  0.00  0.00    -0.056 C 
ATOM     36  H5  908 d   1      23.885  11.181  -8.864  0.00  0.00     0.030 H 
ATOM     37  H6  908 d   1      24.106   9.469  -8.365  0.00  0.00     0.030 H 
ATOM     38  H7  908 d   1      25.537  10.488  -8.737  0.00  0.00     0.030 H 
ENDBRANCH  29  35
ENDBRANCH  12  29
ENDBRANCH   1  10
BRANCH   5  39
ATOM     39  C7  908 d   1      28.354  14.386  -2.944  0.00  0.00    -0.023 A 
ATOM     40  C12 908 d   1      27.456  15.438  -2.789  0.00  0.00    -0.071 A 
ATOM     41  C11 908 d   1      27.696  16.669  -3.368  0.00  0.00    -0.067 A 
ATOM     42  H22 908 d   1      26.555  15.289  -2.205  0.00  0.00     0.084 H 
ATOM     43  C10 908 d   1      28.851  16.881  -4.115  0.00  0.00     0.032 A 
ATOM     44  H23 908 d   1      26.981  17.474  -3.240  0.00  0.00     0.085 H 
ATOM     45  C9  908 d   1      29.746  15.830  -4.285  0.00  0.00    -0.067 A 
ATOM     46  C8  908 d   1      29.503  14.607  -3.700  0.00  0.00    -0.071 A 
ATOM     47  H24 908 d   1      30.640  15.974  -4.881  0.00  0.00     0.085 H 
ATOM     48  H25 908 d   1      30.218  13.803  -3.830  0.00  0.00     0.084 H 
BRANCH  43  49
ATOM     49  C13 908 d   1      29.198  18.211  -4.677  0.00  0.00     0.252 C 
ATOM     50  O1  908 d   1      28.324  18.990  -5.042  0.00  0.00    -0.268 OA
ATOM     51  N   908 d   1      30.498  18.496  -4.732  0.00  0.00    -0.348 N 
ATOM     52  H26 908 d   1      31.114  18.094  -4.054  0.00  0.00     0.163 HD
BRANCH  51  53
ATOM     53  C14 908 d   1      31.039  19.368  -5.742  0.00  0.00     0.069 C 
ATOM     54  H27 908 d   1      30.260  20.063  -6.090  0.00  0.00     0.078 H 
ATOM     55  H28 908 d   1      31.404  18.772  -6.591  0.00  0.00     0.078 H 
BRANCH  53  56
ATOM     56  C15 908 d   1      32.175  20.140  -5.138  0.00  0.00     0.233 C 
ATOM     57  O2  908 d   1      33.286  20.095  -5.667  0.00  0.00    -0.272 OA
ATOM     58  N1  908 d   1      31.929  20.788  -4.007  0.00  0.00    -0.369 N 
ATOM     59  H29 908 d   1      32.654  21.317  -3.566  0.00  0.00     0.159 HD
ATOM     60  H30 908 d   1      31.018  20.748  -3.596  0.00  0.00     0.159 HD
ENDBRANCH  53  56
ENDBRANCH  51  53
ENDBRANCH  43  49
ENDBRANCH   5  39
BRANCH   6  61
ATOM     61  O   908 d   1      28.684  13.559  -0.244  0.00  0.00    -0.355 OA
BRANCH  61  62
ATOM     62  C   908 d   1      29.215  13.079   0.991  0.00  0.00     0.010 C 
ATOM     63  H19 908 d   1      29.653  13.918   1.552  0.00  0.00     0.066 H 
ATOM     64  H20 908 d   1      29.992  12.327   0.788  0.00  0.00     0.066 H 
ATOM     65  H21 908 d   1      28.409  12.622   1.584  0.00  0.00     0.066 H 
ENDBRANCH  61  62
ENDBRANCH   6  61
TORSDOF 10
