REMARK  11 active torsions:
REMARK  status: ('A' for Active; 'I' for Inactive)
REMARK    1  A    between atoms: N3_3  and  C19_4 
REMARK    2  A    between atoms: C18_18  and  C4_19 
REMARK    3  A    between atoms: C6_23  and  C7_27 
REMARK    4  A    between atoms: C1_24  and  O_25 
REMARK    5  A    between atoms: O_25  and  C_26 
REMARK    6  A    between atoms: C10_30  and  C13_33 
REMARK       I    between atoms: C13_33  and  N_35 
REMARK    7  A    between atoms: N_35  and  C14_36 
REMARK    8  A    between atoms: C14_36  and  C15_37 
REMARK       I    between atoms: C15_37  and  N1_39 
REMARK    9  A    between atoms: N1_39  and  C16_40 
REMARK   10  A    between atoms: C16_40  and  C17_41 
REMARK   11  A    between atoms: C17_41  and  O3_42 
ROOT
ATOM      1  C4  CVA d   1      35.529  28.777  29.435  0.00  0.00    -0.008 A 
ATOM      2  C3  CVA d   1      34.557  28.731  30.435  0.00  0.00    -0.068 A 
ATOM      3  C2  CVA d   1      34.335  27.570  31.154  0.00  0.00    -0.049 A 
ATOM      4  C5  CVA d   1      36.259  27.625  29.149  0.00  0.00    -0.058 A 
ATOM      5  C6  CVA d   1      36.021  26.427  29.824  0.00  0.00     0.008 A 
ATOM      6  C1  CVA d   1      35.066  26.417  30.849  0.00  0.00     0.079 A 
ATOM      7  H22 CVA d   1      33.969  29.616  30.651  0.00  0.00     0.085 H 
ATOM      8  H23 CVA d   1      33.599  27.554  31.949  0.00  0.00     0.087 H 
ATOM      9  H24 CVA d   1      37.028  27.660  28.386  0.00  0.00     0.086 H 
ENDROOT
BRANCH   1  10
ATOM     10  C18 CVA d   1      35.801  30.029  28.686  0.00  0.00     0.070 C 
ATOM     11  N2  CVA d   1      36.984  30.119  28.179  0.00  0.00    -0.173 NA
ATOM     12  N3  CVA d   1      37.317  31.256  27.456  0.00  0.00    -0.233 N 
ATOM     13  C26 CVA d   1      36.418  32.150  26.930  0.00  0.00     0.245 C 
ATOM     14  O4  CVA d   1      36.756  33.175  26.361  0.00  0.00    -0.271 OA
ATOM     15  C27 CVA d   1      34.956  31.785  27.130  0.00  0.00     0.037 C 
ATOM     16  C32 CVA d   1      34.750  31.115  28.517  0.00  0.00     0.006 C 
ATOM     17  C28 CVA d   1      34.006  32.979  26.937  0.00  0.00    -0.038 C 
ATOM     18  H14 CVA d   1      34.698  31.041  26.361  0.00  0.00     0.056 H 
ATOM     19  C31 CVA d   1      34.798  32.121  29.684  0.00  0.00    -0.041 C 
ATOM     20  H15 CVA d   1      33.756  30.643  28.525  0.00  0.00     0.051 H 
ATOM     21  C30 CVA d   1      34.409  33.526  29.297  0.00  0.00    -0.106 C 
ATOM     22  H16 CVA d   1      35.824  32.143  30.081  0.00  0.00     0.040 H 
ATOM     23  H17 CVA d   1      34.109  31.775  30.468  0.00  0.00     0.040 H 
ATOM     24  C29 CVA d   1      34.092  33.933  28.075  0.00  0.00    -0.106 C 
ATOM     25  H18 CVA d   1      34.386  34.272  30.090  0.00  0.00     0.076 H 
ATOM     26  H19 CVA d   1      33.890  34.989  27.901  0.00  0.00     0.076 H 
ATOM     27  H20 CVA d   1      32.974  32.606  26.860  0.00  0.00     0.040 H 
ATOM     28  H21 CVA d   1      34.276  33.504  26.009  0.00  0.00     0.040 H 
BRANCH  12  29
ATOM     29  C19 CVA d   1      38.790  31.382  27.379  0.00  0.00     0.038 C 
ATOM     30  C25 CVA d   1      39.421  31.450  28.822  0.00  0.00    -0.044 C 
ATOM     31  C24 CVA d   1      40.906  31.319  29.113  0.00  0.00    -0.063 C 
ATOM     32  H2  CVA d   1      38.934  30.649  29.397  0.00  0.00     0.036 H 
ATOM     33  H3  CVA d   1      39.124  32.427  29.230  0.00  0.00     0.036 H 
ATOM     34  C23 CVA d   1      41.784  31.039  27.940  0.00  0.00    -0.065 C 
ATOM     35  H4  CVA d   1      41.036  30.498  29.833  0.00  0.00     0.033 H 
ATOM     36  H5  CVA d   1      41.244  32.262  29.567  0.00  0.00     0.033 H 
ATOM     37  C22 CVA d   1      41.628  29.641  27.382  0.00  0.00    -0.065 C 
ATOM     38  H6  CVA d   1      42.831  31.174  28.250  0.00  0.00     0.033 H 
ATOM     39  H7  CVA d   1      41.541  31.759  27.145  0.00  0.00     0.033 H 
ATOM     40  C21 CVA d   1      40.219  29.218  27.033  0.00  0.00    -0.063 C 
ATOM     41  H8  CVA d   1      42.015  28.935  28.131  0.00  0.00     0.033 H 
ATOM     42  H9  CVA d   1      42.235  29.574  26.467  0.00  0.00     0.033 H 
ATOM     43  C20 CVA d   1      39.348  30.302  26.413  0.00  0.00    -0.044 C 
ATOM     44  H10 CVA d   1      39.729  28.875  27.956  0.00  0.00     0.033 H 
ATOM     45  H11 CVA d   1      40.282  28.383  26.319  0.00  0.00     0.033 H 
ATOM     46  H12 CVA d   1      39.949  30.816  25.648  0.00  0.00     0.036 H 
ATOM     47  H13 CVA d   1      38.490  29.808  25.934  0.00  0.00     0.036 H 
ATOM     48  H1  CVA d   1      39.011  32.352  26.910  0.00  0.00     0.076 H 
ENDBRANCH  12  29
ENDBRANCH   1  10
BRANCH   5  49
ATOM     49  C7  CVA d   1      36.670  25.200  29.281  0.00  0.00    -0.023 A 
ATOM     50  C12 CVA d   1      36.435  24.802  27.965  0.00  0.00    -0.071 A 
ATOM     51  C11 CVA d   1      37.180  23.798  27.373  0.00  0.00    -0.067 A 
ATOM     52  H28 CVA d   1      35.653  25.289  27.395  0.00  0.00     0.084 H 
ATOM     53  C10 CVA d   1      38.193  23.151  28.082  0.00  0.00     0.032 A 
ATOM     54  H29 CVA d   1      36.975  23.511  26.348  0.00  0.00     0.085 H 
ATOM     55  C9  CVA d   1      38.390  23.507  29.418  0.00  0.00    -0.067 A 
ATOM     56  C8  CVA d   1      37.640  24.511  30.002  0.00  0.00    -0.071 A 
ATOM     57  H30 CVA d   1      39.141  22.990  30.005  0.00  0.00     0.085 H 
ATOM     58  H31 CVA d   1      37.811  24.766  31.042  0.00  0.00     0.084 H 
BRANCH  53  59
ATOM     59  C13 CVA d   1      39.169  22.205  27.440  0.00  0.00     0.252 C 
ATOM     60  O1  CVA d   1      40.306  22.092  27.889  0.00  0.00    -0.268 OA
ATOM     61  N   CVA d   1      38.766  21.523  26.360  0.00  0.00    -0.348 N 
ATOM     62  H32 CVA d   1      38.136  21.956  25.715  0.00  0.00     0.163 HD
BRANCH  61  63
ATOM     63  C14 CVA d   1      39.224  20.171  26.106  0.00  0.00     0.069 C 
ATOM     64  H33 CVA d   1      40.291  20.112  26.367  0.00  0.00     0.078 H 
ATOM     65  H34 CVA d   1      39.097  19.957  25.035  0.00  0.00     0.078 H 
BRANCH  63  66
ATOM     66  C15 CVA d   1      38.477  19.110  26.898  0.00  0.00     0.235 C 
ATOM     67  O2  CVA d   1      38.503  19.101  28.129  0.00  0.00    -0.272 OA
ATOM     68  N1  CVA d   1      37.803  18.214  26.174  0.00  0.00    -0.358 N 
ATOM     69  H35 CVA d   1      37.289  18.539  25.380  0.00  0.00     0.162 HD
BRANCH  68  70
ATOM     70  C16 CVA d   1      37.775  16.788  26.476  0.00  0.00     0.015 C 
ATOM     71  H36 CVA d   1      37.834  16.657  27.567  0.00  0.00     0.067 H 
ATOM     72  H37 CVA d   1      38.644  16.309  26.001  0.00  0.00     0.067 H 
BRANCH  70  73
ATOM     73  C17 CVA d   1      36.521  16.119  25.976  0.00  0.00     0.031 C 
ATOM     74  H38 CVA d   1      36.776  15.103  25.640  0.00  0.00     0.076 H 
ATOM     75  H39 CVA d   1      36.129  16.698  25.127  0.00  0.00     0.076 H 
BRANCH  73  76
ATOM     76  O3  CVA d   1      35.512  16.028  26.964  0.00  0.00    -0.399 OA
ATOM     77  H40 CVA d   1      34.748  15.600  26.596  0.00  0.00     0.209 HD
ENDBRANCH  73  76
ENDBRANCH  70  73
ENDBRANCH  68  70
ENDBRANCH  63  66
ENDBRANCH  61  63
ENDBRANCH  53  59
ENDBRANCH   5  49
BRANCH   6  78
ATOM     78  O   CVA d   1      34.898  25.222  31.490  0.00  0.00    -0.355 OA
BRANCH  78  79
ATOM     79  C   CVA d   1      33.623  24.953  32.086  0.00  0.00     0.010 C 
ATOM     80  H25 CVA d   1      33.642  23.961  32.560  0.00  0.00     0.066 H 
ATOM     81  H26 CVA d   1      32.844  24.973  31.310  0.00  0.00     0.066 H 
ATOM     82  H27 CVA d   1      33.404  25.718  32.845  0.00  0.00     0.066 H 
ENDBRANCH  78  79
ENDBRANCH   6  78
TORSDOF 11
