REMARK  16 active torsions:
REMARK  status: ('A' for Active; 'I' for Inactive)
REMARK    1  A    between atoms: OAB_1  and  CAF_2 
REMARK    2  A    between atoms: CAF_2  and  CAG_3 
REMARK    3  A    between atoms: CAG_3  and  OAC_4 
REMARK    4  A    between atoms: CAG_3  and  CAH_5 
REMARK    5  A    between atoms: CAH_5  and  OAM_6 
REMARK    6  A    between atoms: CAH_5  and  CAI_7 
REMARK    7  A    between atoms: CAI_7  and  OAD_8 
REMARK    8  A    between atoms: CAI_7  and  CAJ_9 
REMARK    9  A    between atoms: CAJ_9  and  OAE_10 
REMARK   10  A    between atoms: CAJ_9  and  CAK_11 
REMARK   11  A    between atoms: CAK_11  and  N_12 
REMARK   12  A    between atoms: N_12  and  CA_13 
REMARK   13  A    between atoms: CA_13  and  C_14 
REMARK   14  A    between atoms: CA_13  and  CB_16 
REMARK   15  A    between atoms: CB_16  and  CG_17 
REMARK   16  A    between atoms: CG_17  and  CD_18 
ROOT
ATOM      1  CAK MO0 d   1      84.072  23.456   0.581  0.00  0.00     0.108 C 
ATOM      2  H12 MO0 d   1      85.093  23.506   0.175  0.00  0.00     0.079 H 
ATOM      3  H13 MO0 d   1      83.374  23.933  -0.122  0.00  0.00     0.079 H 
ENDROOT
BRANCH   1   4
ATOM      4  CAJ MO0 d   1      84.019  24.183   1.933  0.00  0.00     0.086 C 
ATOM      5  H10 MO0 d   1      83.514  23.502   2.635  0.00  0.00     0.089 H 
BRANCH   4   6
ATOM      6  CAI MO0 d   1      83.235  25.464   1.925  0.00  0.00     0.089 C 
ATOM      7  H8  MO0 d   1      83.804  26.174   1.307  0.00  0.00     0.091 H 
BRANCH   6   8
ATOM      8  CAH MO0 d   1      83.119  26.083   3.318  0.00  0.00     0.089 C 
ATOM      9  H6  MO0 d   1      84.148  26.169   3.696  0.00  0.00     0.091 H 
BRANCH   8  10
ATOM     10  CAG MO0 d   1      82.550  27.480   3.361  0.00  0.00     0.083 C 
ATOM     11  H4  MO0 d   1      81.505  27.379   3.032  0.00  0.00     0.090 H 
BRANCH  10  12
ATOM     12  CAF MO0 d   1      82.497  28.097   4.747  0.00  0.00     0.043 C 
ATOM     13  H2  MO0 d   1      82.382  29.186   4.641  0.00  0.00     0.078 H 
ATOM     14  H3  MO0 d   1      81.626  27.687   5.279  0.00  0.00     0.078 H 
BRANCH  12  15
ATOM     15  OAB MO0 d   1      83.645  27.843   5.510  0.00  0.00    -0.398 OA
ATOM     16  H1  MO0 d   1      84.405  28.200   5.066  0.00  0.00     0.209 HD
ENDBRANCH  12  15
ENDBRANCH  10  12
BRANCH  10  17
ATOM     17  OAC MO0 d   1      83.151  28.359   2.475  0.00  0.00    -0.391 OA
ATOM     18  H5  MO0 d   1      84.035  28.548   2.768  0.00  0.00     0.210 HD
ENDBRANCH  10  17
ENDBRANCH   8  10
BRANCH   8  19
ATOM     19  OAM MO0 d   1      82.452  25.234   4.177  0.00  0.00    -0.390 OA
ATOM     20  H7  MO0 d   1      81.535  25.192   3.931  0.00  0.00     0.210 HD
ENDBRANCH   8  19
ENDBRANCH   6   8
BRANCH   6  21
ATOM     21  OAD MO0 d   1      81.980  25.329   1.330  0.00  0.00    -0.390 OA
ATOM     22  H9  MO0 d   1      81.575  26.185   1.250  0.00  0.00     0.210 HD
ENDBRANCH   6  21
ENDBRANCH   4   6
BRANCH   4  23
ATOM     23  OAE MO0 d   1      85.302  24.430   2.433  0.00  0.00    -0.391 OA
ATOM     24  H11 MO0 d   1      85.800  23.621   2.439  0.00  0.00     0.210 HD
ENDBRANCH   4  23
ENDBRANCH   1   4
BRANCH   1  25
ATOM     25  N   MO0 d   1      83.689  22.052   0.779  0.00  0.00    -0.059 N 
ATOM     26  H14 MO0 d   1      82.707  22.014   1.002  0.00  0.00     0.278 HD
ATOM     27  H15 MO0 d   1      84.223  21.678   1.548  0.00  0.00     0.278 HD
BRANCH  25  28
ATOM     28  CA  MO0 d   1      83.935  21.215  -0.421  0.00  0.00     0.185 C 
ATOM     29  H16 MO0 d   1      84.584  21.793  -1.096  0.00  0.00     0.101 H 
BRANCH  28  30
ATOM     30  C   MO0 d   1      82.636  20.951  -1.144  0.00  0.00     0.204 C 
ATOM     31  O   MO0 d   1      81.598  21.541  -0.776  0.00  0.00    -0.646 OA
ATOM     32  OXT MO0 d   1      82.588  20.192  -2.163  0.00  0.00    -0.646 OA
ENDBRANCH  28  30
BRANCH  28  33
ATOM     33  CB  MO0 d   1      84.654  19.924  -0.109  0.00  0.00    -0.022 C 
ATOM     34  H17 MO0 d   1      85.475  20.139   0.591  0.00  0.00     0.037 H 
ATOM     35  H18 MO0 d   1      85.067  19.517  -1.044  0.00  0.00     0.037 H 
BRANCH  33  36
ATOM     36  CG  MO0 d   1      83.749  18.882   0.513  0.00  0.00    -0.001 C 
ATOM     37  H19 MO0 d   1      83.177  18.393  -0.289  0.00  0.00     0.045 H 
ATOM     38  H20 MO0 d   1      83.056  19.388   1.202  0.00  0.00     0.045 H 
BRANCH  36  39
ATOM     39  CD  MO0 d   1      84.487  17.835   1.271  0.00  0.00     0.149 C 
ATOM     40  OE1 MO0 d   1      84.702  16.602   0.641  0.00  0.00    -0.178 OA
ATOM     41  NE2 MO0 d   1      84.908  17.990   2.429  0.00  0.00    -0.381 N 
ATOM     42  H21 MO0 d   1      85.398  17.248   2.886  0.00  0.00     0.158 HD
ATOM     43  H22 MO0 d   1      84.757  18.857   2.904  0.00  0.00     0.158 HD
ENDBRANCH  36  39
ENDBRANCH  33  36
ENDBRANCH  28  33
ENDBRANCH  25  28
ENDBRANCH   1  25
TORSDOF 16
