REMARK  11 active torsions:
REMARK  status: ('A' for Active; 'I' for Inactive)
REMARK    1  A    between atoms: OAB_1  and  CAF_2 
REMARK    2  A    between atoms: CAG_3  and  OAC_4 
REMARK    3  A    between atoms: CAH_5  and  OAI_6 
REMARK    4  A    between atoms: CAM_9  and  OAQ_10 
REMARK    5  A    between atoms: CAM_9  and  CAL_11 
REMARK    6  A    between atoms: CAL_11  and  N_12 
REMARK    7  A    between atoms: N_12  and  CA_13 
REMARK    8  A    between atoms: CA_13  and  C_14 
REMARK    9  A    between atoms: CA_13  and  CB_16 
REMARK   10  A    between atoms: CB_16  and  CG_17 
REMARK   11  A    between atoms: CG_17  and  CD_18 
REMARK       I    between atoms: CD_18  and  NE2_20 
ROOT
ATOM      1  CAL SNW d   1      12.846  48.069  -0.697  0.00  0.00     0.136 C 
ATOM      2  H10 SNW d   1      13.946  48.072  -0.728  0.00  0.00     0.084 H 
ATOM      3  H11 SNW d   1      12.507  47.645   0.260  0.00  0.00     0.084 H 
ENDROOT
BRANCH   1   4
ATOM      4  CAM SNW d   1      12.364  47.122  -1.808  0.00  0.00     0.215 C 
ATOM      5  CAF SNW d   1      10.897  46.736  -1.669  0.00  0.00     0.118 C 
ATOM      6  CAG SNW d   1      10.522  45.607  -2.495  0.00  0.00     0.092 C 
ATOM      7  H2  SNW d   1      10.744  46.418  -0.627  0.00  0.00     0.095 H 
ATOM      8  CAH SNW d   1      11.458  44.554  -2.616  0.00  0.00     0.083 C 
ATOM      9  H3  SNW d   1      10.425  46.031  -3.505  0.00  0.00     0.091 H 
ATOM     10  CAO SNW d   1      12.895  44.994  -2.736  0.00  0.00     0.049 C 
ATOM     11  H5  SNW d   1      11.183  43.929  -3.479  0.00  0.00     0.090 H 
ATOM     12  OAN SNW d   1      13.196  46.014  -1.815  0.00  0.00    -0.349 OA
ATOM     13  H7  SNW d   1      13.071  45.368  -3.755  0.00  0.00     0.078 H 
ATOM     14  H8  SNW d   1      13.551  44.132  -2.543  0.00  0.00     0.078 H 
BRANCH   5  15
ATOM     15  OAB SNW d   1      10.089  47.889  -1.874  0.00  0.00    -0.387 OA
ATOM     16  H1  SNW d   1       9.184  47.680  -1.674  0.00  0.00     0.210 HD
ENDBRANCH   5  15
BRANCH   6  17
ATOM     17  OAC SNW d   1       9.214  45.022  -2.174  0.00  0.00    -0.390 OA
ATOM     18  H4  SNW d   1       8.538  45.681  -2.284  0.00  0.00     0.210 HD
ENDBRANCH   6  17
BRANCH   8  19
ATOM     19  OAI SNW d   1      11.451  43.802  -1.412  0.00  0.00    -0.391 OA
ATOM     20  H6  SNW d   1      10.582  43.448  -1.266  0.00  0.00     0.210 HD
ENDBRANCH   8  19
BRANCH   4  21
ATOM     21  OAQ SNW d   1      12.461  47.720  -2.985  0.00  0.00    -0.362 OA
ATOM     22  H9  SNW d   1      13.361  47.988  -3.130  0.00  0.00     0.213 HD
ENDBRANCH   4  21
ENDBRANCH   1   4
BRANCH   1  23
ATOM     23  N   SNW d   1      12.411  49.462  -0.729  0.00  0.00    -0.056 N 
ATOM     24  H12 SNW d   1      11.422  49.472  -0.924  0.00  0.00     0.278 HD
ATOM     25  H13 SNW d   1      12.906  49.923  -1.477  0.00  0.00     0.278 HD
BRANCH  23  26
ATOM     26  CA  SNW d   1      12.631  50.224   0.484  0.00  0.00     0.185 C 
ATOM     27  H14 SNW d   1      13.270  49.608   1.134  0.00  0.00     0.101 H 
BRANCH  26  28
ATOM     28  C   SNW d   1      11.332  50.455   1.222  0.00  0.00     0.204 C 
ATOM     29  O   SNW d   1      10.300  49.927   0.787  0.00  0.00    -0.646 OA
ATOM     30  OXT SNW d   1      11.311  51.141   2.259  0.00  0.00    -0.646 OA
ENDBRANCH  26  28
BRANCH  26  31
ATOM     31  CB  SNW d   1      13.369  51.524   0.255  0.00  0.00    -0.021 C 
ATOM     32  H15 SNW d   1      14.151  51.328  -0.493  0.00  0.00     0.037 H 
ATOM     33  H16 SNW d   1      13.838  51.806   1.210  0.00  0.00     0.037 H 
BRANCH  31  34
ATOM     34  CG  SNW d   1      12.589  52.702  -0.219  0.00  0.00     0.011 C 
ATOM     35  H17 SNW d   1      12.107  53.153   0.661  0.00  0.00     0.047 H 
ATOM     36  H18 SNW d   1      11.817  52.329  -0.909  0.00  0.00     0.047 H 
BRANCH  34  37
ATOM     37  CD  SNW d   1      13.320  53.769  -0.914  0.00  0.00     0.215 C 
ATOM     38  OE1 SNW d   1      13.633  54.738  -0.358  0.00  0.00    -0.274 OA
ATOM     39  NE2 SNW d   1      13.639  53.608  -2.246  0.00  0.00    -0.370 N 
ATOM     40  H19 SNW d   1      14.137  54.327  -2.731  0.00  0.00     0.159 HD
ATOM     41  H20 SNW d   1      13.373  52.772  -2.727  0.00  0.00     0.159 HD
ENDBRANCH  34  37
ENDBRANCH  31  34
ENDBRANCH  26  31
ENDBRANCH  23  26
ENDBRANCH   1  23
TORSDOF 11
