REMARK  16 active torsions:
REMARK  status: ('A' for Active; 'I' for Inactive)
REMARK    1  A    between atoms: OAN_1  and  CAM_2 
REMARK    2  A    between atoms: CAM_2  and  CAL_3 
REMARK    3  A    between atoms: CAL_3  and  OAT_4 
REMARK    4  A    between atoms: CAL_3  and  CAK_5 
REMARK    5  A    between atoms: CAK_5  and  OAS_6 
REMARK    6  A    between atoms: CAK_5  and  CAJ_7 
REMARK    7  A    between atoms: CAJ_7  and  OAR_8 
REMARK    8  A    between atoms: CAJ_7  and  CAI_9 
REMARK    9  A    between atoms: CAI_9  and  OAQ_10 
REMARK   10  A    between atoms: CAI_9  and  CAH_11 
REMARK   11  A    between atoms: CAH_11  and  N_12 
REMARK   12  A    between atoms: N_12  and  CA_13 
REMARK   13  A    between atoms: CA_13  and  C_14 
REMARK   14  A    between atoms: CA_13  and  CB_16 
REMARK   15  A    between atoms: CB_16  and  CG_17 
REMARK   16  A    between atoms: CG_17  and  CD_18 
REMARK       I    between atoms: CD_18  and  NE2_20 
ROOT
ATOM      1  CAH GOP d   1      81.550  25.227  -1.199  0.00  0.00     0.108 C 
ATOM      2  H12 GOP d   1      81.483  24.175  -1.515  0.00  0.00     0.079 H 
ATOM      3  H13 GOP d   1      81.236  25.315  -0.149  0.00  0.00     0.079 H 
ENDROOT
BRANCH   1   4
ATOM      4  CAI GOP d   1      80.559  26.035  -2.052  0.00  0.00     0.086 C 
ATOM      5  H10 GOP d   1      79.567  25.693  -1.723  0.00  0.00     0.089 H 
BRANCH   4   6
ATOM      6  CAJ GOP d   1      80.513  27.525  -1.873  0.00  0.00     0.089 C 
ATOM      7  H8  GOP d   1      80.516  27.717  -0.790  0.00  0.00     0.091 H 
BRANCH   6   8
ATOM      8  CAK GOP d   1      79.277  28.135  -2.446  0.00  0.00     0.089 C 
ATOM      9  H6  GOP d   1      79.319  29.161  -2.052  0.00  0.00     0.091 H 
BRANCH   8  10
ATOM     10  CAL GOP d   1      79.167  28.375  -3.940  0.00  0.00     0.083 C 
ATOM     11  H4  GOP d   1      78.902  27.414  -4.405  0.00  0.00     0.090 H 
BRANCH  10  12
ATOM     12  CAM GOP d   1      78.028  29.341  -4.146  0.00  0.00     0.043 C 
ATOM     13  H2  GOP d   1      77.522  29.556  -3.193  0.00  0.00     0.078 H 
ATOM     14  H3  GOP d   1      78.389  30.280  -4.589  0.00  0.00     0.078 H 
BRANCH  12  15
ATOM     15  OAN GOP d   1      77.194  28.699  -4.997  0.00  0.00    -0.398 OA
ATOM     16  H1  GOP d   1      76.904  27.886  -4.601  0.00  0.00     0.209 HD
ENDBRANCH  12  15
ENDBRANCH  10  12
BRANCH  10  17
ATOM     17  OAT GOP d   1      80.279  28.822  -4.580  0.00  0.00    -0.391 OA
ATOM     18  H5  GOP d   1      80.099  28.899  -5.510  0.00  0.00     0.210 HD
ENDBRANCH  10  17
ENDBRANCH   8  10
BRANCH   8  19
ATOM     19  OAS GOP d   1      78.151  27.627  -1.889  0.00  0.00    -0.390 OA
ATOM     20  H7  GOP d   1      78.288  27.502  -0.957  0.00  0.00     0.210 HD
ENDBRANCH   8  19
ENDBRANCH   6   8
BRANCH   6  21
ATOM     21  OAR GOP d   1      81.555  28.149  -2.399  0.00  0.00    -0.390 OA
ATOM     22  H9  GOP d   1      81.542  28.044  -3.343  0.00  0.00     0.210 HD
ENDBRANCH   6  21
ENDBRANCH   4   6
BRANCH   4  23
ATOM     23  OAQ GOP d   1      80.658  25.686  -3.320  0.00  0.00    -0.391 OA
ATOM     24  H11 GOP d   1      80.684  24.739  -3.385  0.00  0.00     0.210 HD
ENDBRANCH   4  23
ENDBRANCH   1   4
BRANCH   1  25
ATOM     25  N   GOP d   1      82.943  25.621  -1.276  0.00  0.00    -0.059 N 
ATOM     26  H14 GOP d   1      82.986  26.613  -1.447  0.00  0.00     0.278 HD
ATOM     27  H15 GOP d   1      83.373  25.129  -2.043  0.00  0.00     0.278 HD
BRANCH  25  28
ATOM     28  CA  GOP d   1      83.688  25.328  -0.064  0.00  0.00     0.185 C 
ATOM     29  H16 GOP d   1      83.063  24.673   0.560  0.00  0.00     0.101 H 
BRANCH  28  30
ATOM     30  C   GOP d   1      84.023  26.546   0.732  0.00  0.00     0.204 C 
ATOM     31  O   GOP d   1      83.713  27.632   0.284  0.00  0.00    -0.646 OA
ATOM     32  OXT GOP d   1      84.608  26.462   1.807  0.00  0.00    -0.646 OA
ENDBRANCH  28  30
BRANCH  28  33
ATOM     33  CB  GOP d   1      84.990  24.595  -0.388  0.00  0.00    -0.021 C 
ATOM     34  H17 GOP d   1      84.748  23.779  -1.085  0.00  0.00     0.037 H 
ATOM     35  H18 GOP d   1      85.377  24.172   0.551  0.00  0.00     0.037 H 
BRANCH  33  36
ATOM     36  CG  GOP d   1      86.077  25.401  -0.999  0.00  0.00     0.011 C 
ATOM     37  H19 GOP d   1      86.577  26.004  -0.227  0.00  0.00     0.047 H 
ATOM     38  H20 GOP d   1      85.664  26.065  -1.773  0.00  0.00     0.047 H 
BRANCH  36  39
ATOM     39  CD  GOP d   1      87.046  24.449  -1.609  0.00  0.00     0.215 C 
ATOM     40  OE1 GOP d   1      88.019  24.117  -1.060  0.00  0.00    -0.274 OA
ATOM     41  NE2 GOP d   1      86.737  23.928  -2.905  0.00  0.00    -0.370 N 
ATOM     42  H21 GOP d   1      87.363  23.286  -3.348  0.00  0.00     0.159 HD
ATOM     43  H22 GOP d   1      85.895  24.206  -3.368  0.00  0.00     0.159 HD
ENDBRANCH  36  39
ENDBRANCH  33  36
ENDBRANCH  28  33
ENDBRANCH  25  28
ENDBRANCH   1  25
TORSDOF 16
