REMARK  16 active torsions:
REMARK  status: ('A' for Active; 'I' for Inactive)
REMARK    1  A    between atoms: OAN_1  and  CAM_2 
REMARK    2  A    between atoms: CAM_2  and  CAL_3 
REMARK    3  A    between atoms: CAL_3  and  OAT_4 
REMARK    4  A    between atoms: CAL_3  and  CAK_5 
REMARK    5  A    between atoms: CAK_5  and  OAS_6 
REMARK    6  A    between atoms: CAK_5  and  CAJ_7 
REMARK    7  A    between atoms: CAJ_7  and  OAR_8 
REMARK    8  A    between atoms: CAJ_7  and  CAI_9 
REMARK    9  A    between atoms: CAI_9  and  OAQ_10 
REMARK   10  A    between atoms: CAI_9  and  CAH_11 
REMARK   11  A    between atoms: CAH_11  and  N_12 
REMARK   12  A    between atoms: N_12  and  CA_13 
REMARK   13  A    between atoms: CA_13  and  C_14 
REMARK   14  A    between atoms: CA_13  and  CB_16 
REMARK   15  A    between atoms: CB_16  and  CG_17 
REMARK   16  A    between atoms: CG_17  and  CD_18 
REMARK       I    between atoms: CD_18  and  NE2_20 
ROOT
ATOM      1  CAH GOP d   1      41.267 -67.172  31.680  0.00  0.00     0.108 C 
ATOM      2  H12 GOP d   1      41.694 -66.681  30.793  0.00  0.00     0.079 H 
ATOM      3  H13 GOP d   1      40.210 -67.411  31.493  0.00  0.00     0.079 H 
ENDROOT
BRANCH   1   4
ATOM      4  CAI GOP d   1      41.374 -66.238  32.881  0.00  0.00     0.086 C 
ATOM      5  H10 GOP d   1      42.432 -66.236  33.184  0.00  0.00     0.089 H 
BRANCH   4   6
ATOM      6  CAJ GOP d   1      41.015 -64.775  32.552  0.00  0.00     0.089 C 
ATOM      7  H8  GOP d   1      41.701 -64.402  31.777  0.00  0.00     0.091 H 
BRANCH   6   8
ATOM      8  CAK GOP d   1      41.169 -63.880  33.808  0.00  0.00     0.089 C 
ATOM      9  H6  GOP d   1      40.556 -64.389  34.567  0.00  0.00     0.091 H 
BRANCH   8  10
ATOM     10  CAL GOP d   1      42.537 -63.640  34.518  0.00  0.00     0.083 C 
ATOM     11  H4  GOP d   1      42.311 -62.908  35.307  0.00  0.00     0.090 H 
BRANCH  10  12
ATOM     12  CAM GOP d   1      43.229 -64.822  35.236  0.00  0.00     0.043 C 
ATOM     13  H2  GOP d   1      43.802 -65.377  34.479  0.00  0.00     0.078 H 
ATOM     14  H3  GOP d   1      43.919 -64.397  35.980  0.00  0.00     0.078 H 
BRANCH  12  15
ATOM     15  OAN GOP d   1      42.389 -65.765  35.917  0.00  0.00    -0.398 OA
ATOM     16  H1  GOP d   1      41.792 -66.163  35.294  0.00  0.00     0.209 HD
ENDBRANCH  12  15
ENDBRANCH  10  12
BRANCH  10  17
ATOM     17  OAT GOP d   1      43.521 -63.034  33.659  0.00  0.00    -0.391 OA
ATOM     18  H5  GOP d   1      43.130 -62.300  33.199  0.00  0.00     0.210 HD
ENDBRANCH  10  17
ENDBRANCH   8  10
BRANCH   8  19
ATOM     19  OAS GOP d   1      40.572 -62.604  33.585  0.00  0.00    -0.390 OA
ATOM     20  H7  GOP d   1      39.734 -62.719  33.152  0.00  0.00     0.210 HD
ENDBRANCH   8  19
ENDBRANCH   6   8
BRANCH   6  21
ATOM     21  OAR GOP d   1      39.661 -64.754  32.026  0.00  0.00    -0.390 OA
ATOM     22  H9  GOP d   1      39.430 -63.865  31.785  0.00  0.00     0.210 HD
ENDBRANCH   6  21
ENDBRANCH   4   6
BRANCH   4  23
ATOM     23  OAQ GOP d   1      40.623 -66.749  33.999  0.00  0.00    -0.391 OA
ATOM     24  H11 GOP d   1      40.877 -67.650  34.164  0.00  0.00     0.210 HD
ENDBRANCH   4  23
ENDBRANCH   1   4
BRANCH   1  25
ATOM     25  N   GOP d   1      42.007 -68.409  31.959  0.00  0.00    -0.059 N 
ATOM     26  H14 GOP d   1      41.619 -68.840  32.784  0.00  0.00     0.278 HD
ATOM     27  H15 GOP d   1      42.974 -68.178  32.124  0.00  0.00     0.278 HD
BRANCH  25  28
ATOM     28  CA  GOP d   1      41.934 -69.366  30.849  0.00  0.00     0.185 C 
ATOM     29  H16 GOP d   1      41.964 -68.806  29.903  0.00  0.00     0.101 H 
BRANCH  28  30
ATOM     30  C   GOP d   1      40.608 -70.116  30.928  0.00  0.00     0.204 C 
ATOM     31  O   GOP d   1      40.415 -70.891  29.974  0.00  0.00    -0.646 OA
ATOM     32  OXT GOP d   1      39.860 -69.935  31.932  0.00  0.00    -0.646 OA
ENDBRANCH  28  30
BRANCH  28  33
ATOM     33  CB  GOP d   1      43.118 -70.335  30.865  0.00  0.00    -0.021 C 
ATOM     34  H17 GOP d   1      44.050 -69.756  30.785  0.00  0.00     0.037 H 
ATOM     35  H18 GOP d   1      43.032 -71.013  30.003  0.00  0.00     0.037 H 
BRANCH  33  36
ATOM     36  CG  GOP d   1      43.165 -71.171  32.146  0.00  0.00     0.011 C 
ATOM     37  H19 GOP d   1      42.291 -71.839  32.163  0.00  0.00     0.047 H 
ATOM     38  H20 GOP d   1      43.124 -70.493  33.011  0.00  0.00     0.047 H 
BRANCH  36  39
ATOM     39  CD  GOP d   1      44.440 -72.025  32.250  0.00  0.00     0.215 C 
ATOM     40  OE1 GOP d   1      44.772 -72.428  33.368  0.00  0.00    -0.274 OA
ATOM     41  NE2 GOP d   1      45.126 -72.320  31.132  0.00  0.00    -0.370 N 
ATOM     42  H21 GOP d   1      45.956 -72.874  31.187  0.00  0.00     0.159 HD
ATOM     43  H22 GOP d   1      44.806 -71.985  30.246  0.00  0.00     0.159 HD
ENDBRANCH  36  39
ENDBRANCH  33  36
ENDBRANCH  28  33
ENDBRANCH  25  28
ENDBRANCH   1  25
TORSDOF 16
