REMARK  12 active torsions:
REMARK  status: ('A' for Active; 'I' for Inactive)
REMARK    1  A    between atoms: C1_1  and  O_34 
REMARK    2  A    between atoms: C2_2  and  O1_37 
REMARK    3  A    between atoms: C3_3  and  C4_4 
REMARK    4  A    between atoms: O1_37  and  C3_3 
REMARK    5  A    between atoms: C4_4  and  C5_5 
REMARK    6  A    between atoms: C5_5  and  C6_6 
REMARK    7  A    between atoms: C6_6  and  O2_38 
REMARK    8  A    between atoms: O2_38  and  C7_7 
REMARK    9  A    between atoms: C10_13  and  C13_42 
REMARK   10  A    between atoms: N5_18  and  C19_19 
REMARK   11  A    between atoms: C15_31  and  C18_30 
REMARK   12  A    between atoms: O_34  and  C_35 
ROOT
ATOM      1  C1  6M5 d   1       4.852 -41.829   3.706  0.00  0.00     0.101 A 
ATOM      2  C2  6M5 d   1       4.126 -41.858   4.908  0.00  0.00     0.102 A 
ATOM      3  C15 6M5 d   1       2.432 -40.426   3.949  0.00  0.00    -0.007 A 
ATOM      4  C16 6M5 d   1       3.158 -40.408   2.767  0.00  0.00    -0.068 A 
ATOM      5  C17 6M5 d   1       4.349 -41.110   2.643  0.00  0.00    -0.047 A 
ATOM      6  C14 6M5 d   1       2.913 -41.197   5.006  0.00  0.00    -0.036 A 
ATOM      7  H32 6M5 d   1       2.788 -39.835   1.924  0.00  0.00     0.085 H 
ATOM      8  H33 6M5 d   1       4.888 -41.093   1.703  0.00  0.00     0.087 H 
ATOM      9  H37 6M5 d   1       2.330 -41.280   5.916  0.00  0.00     0.089 H 
ENDROOT
BRANCH   3  10
ATOM     10  C18 6M5 d   1       1.125 -39.733   4.098  0.00  0.00     0.070 C 
ATOM     11  N4  6M5 d   1       0.396 -39.999   5.122  0.00  0.00    -0.173 NA
ATOM     12  N5  6M5 d   1      -0.817 -39.372   5.286  0.00  0.00    -0.233 N 
ATOM     13  C26 6M5 d   1      -1.235 -38.252   4.602  0.00  0.00     0.245 C 
ATOM     14  O3  6M5 d   1      -2.379 -37.807   4.731  0.00  0.00    -0.271 OA
ATOM     15  C27 6M5 d   1      -0.212 -37.660   3.677  0.00  0.00     0.037 C 
ATOM     16  C32 6M5 d   1       0.615 -38.802   3.021  0.00  0.00     0.006 C 
ATOM     17  C28 6M5 d   1      -0.784 -36.713   2.616  0.00  0.00    -0.038 C 
ATOM     18  H25 6M5 d   1       0.474 -37.063   4.296  0.00  0.00     0.056 H 
ATOM     19  C31 6M5 d   1      -0.278 -39.601   2.042  0.00  0.00    -0.041 C 
ATOM     20  H26 6M5 d   1       1.466 -38.370   2.473  0.00  0.00     0.051 H 
ATOM     21  C30 6M5 d   1      -1.174 -38.742   1.228  0.00  0.00    -0.106 C 
ATOM     22  H27 6M5 d   1       0.373 -40.170   1.362  0.00  0.00     0.040 H 
ATOM     23  H28 6M5 d   1      -0.898 -40.298   2.625  0.00  0.00     0.040 H 
ATOM     24  C29 6M5 d   1      -1.311 -37.445   1.425  0.00  0.00    -0.106 C 
ATOM     25  H13 6M5 d   1      -1.748 -39.206   0.427  0.00  0.00     0.076 H 
ATOM     26  H29 6M5 d   1      -1.844 -36.870   0.669  0.00  0.00     0.076 H 
ATOM     27  H30 6M5 d   1       0.012 -36.029   2.287  0.00  0.00     0.040 H 
ATOM     28  H31 6M5 d   1      -1.603 -36.133   3.065  0.00  0.00     0.040 H 
BRANCH  12  29
ATOM     29  C19 6M5 d   1      -1.669 -39.937   6.349  0.00  0.00     0.038 C 
ATOM     30  C20 6M5 d   1      -1.870 -41.435   6.152  0.00  0.00    -0.044 C 
ATOM     31  C21 6M5 d   1      -2.558 -42.160   7.309  0.00  0.00    -0.063 C 
ATOM     32  H11 6M5 d   1      -0.881 -41.894   6.003  0.00  0.00     0.036 H 
ATOM     33  H12 6M5 d   1      -2.481 -41.580   5.249  0.00  0.00     0.036 H 
ATOM     34  C22 6M5 d   1      -1.674 -42.304   8.540  0.00  0.00    -0.065 C 
ATOM     35  H23 6M5 d   1      -2.848 -43.165   6.968  0.00  0.00     0.033 H 
ATOM     36  H24 6M5 d   1      -3.458 -41.594   7.590  0.00  0.00     0.033 H 
ATOM     37  C23 6M5 d   1      -1.795 -41.170   9.522  0.00  0.00    -0.065 C 
ATOM     38  H21 6M5 d   1      -1.948 -43.237   9.055  0.00  0.00     0.033 H 
ATOM     39  H22 6M5 d   1      -0.627 -42.363   8.208  0.00  0.00     0.033 H 
ATOM     40  C24 6M5 d   1      -1.998 -39.796   8.900  0.00  0.00    -0.063 C 
ATOM     41  H19 6M5 d   1      -2.653 -41.377  10.178  0.00  0.00     0.033 H 
ATOM     42  H20 6M5 d   1      -0.874 -41.139  10.122  0.00  0.00     0.033 H 
ATOM     43  C25 6M5 d   1      -1.106 -39.503   7.696  0.00  0.00    -0.044 C 
ATOM     44  H17 6M5 d   1      -3.046 -39.718   8.577  0.00  0.00     0.033 H 
ATOM     45  H18 6M5 d   1      -1.794 -39.038   9.670  0.00  0.00     0.033 H 
ATOM     46  H15 6M5 d   1      -0.932 -38.417   7.658  0.00  0.00     0.036 H 
ATOM     47  H16 6M5 d   1      -0.148 -40.023   7.848  0.00  0.00     0.036 H 
ATOM     48  H14 6M5 d   1      -2.665 -39.479   6.260  0.00  0.00     0.076 H 
ENDBRANCH  12  29
ENDBRANCH   3  10
BRANCH   2  49
ATOM     49  O1  6M5 d   1       4.659 -42.618   5.913  0.00  0.00    -0.348 OA
BRANCH  49  50
ATOM     50  C3  6M5 d   1       4.515 -42.182   7.277  0.00  0.00     0.026 C 
ATOM     51  H1  6M5 d   1       5.496 -41.896   7.683  0.00  0.00     0.075 H 
ATOM     52  H2  6M5 d   1       3.833 -41.320   7.324  0.00  0.00     0.075 H 
BRANCH  50  53
ATOM     53  C4  6M5 d   1       3.945 -43.331   8.074  0.00  0.00    -0.043 C 
ATOM     54  H3  6M5 d   1       4.047 -43.089   9.142  0.00  0.00     0.036 H 
ATOM     55  H4  6M5 d   1       4.534 -44.231   7.844  0.00  0.00     0.036 H 
BRANCH  53  56
ATOM     56  C5  6M5 d   1       2.490 -43.641   7.800  0.00  0.00    -0.043 C 
ATOM     57  H5  6M5 d   1       2.420 -44.132   6.818  0.00  0.00     0.036 H 
ATOM     58  H6  6M5 d   1       1.933 -42.693   7.776  0.00  0.00     0.036 H 
BRANCH  56  59
ATOM     59  C6  6M5 d   1       1.852 -44.541   8.828  0.00  0.00     0.026 C 
ATOM     60  H7  6M5 d   1       1.685 -43.983   9.761  0.00  0.00     0.075 H 
ATOM     61  H8  6M5 d   1       2.506 -45.403   9.028  0.00  0.00     0.075 H 
BRANCH  59  62
ATOM     62  O2  6M5 d   1       0.597 -44.993   8.299  0.00  0.00    -0.351 OA
BRANCH  62  63
ATOM     63  C7  6M5 d   1      -0.150 -45.907   8.996  0.00  0.00     0.068 A 
ATOM     64  C8  6M5 d   1       0.270 -46.611  10.116  0.00  0.00    -0.050 A 
ATOM     65  C9  6M5 d   1      -0.596 -47.490  10.738  0.00  0.00    -0.067 A 
ATOM     66  H10 6M5 d   1       1.274 -46.472  10.501  0.00  0.00     0.087 H 
ATOM     67  C10 6M5 d   1      -1.881 -47.685  10.250  0.00  0.00     0.013 A 
ATOM     68  H40 6M5 d   1      -0.268 -48.033  11.617  0.00  0.00     0.085 H 
ATOM     69  C11 6M5 d   1      -2.291 -46.974   9.131  0.00  0.00    -0.067 A 
ATOM     70  C12 6M5 d   1      -1.422 -46.113   8.498  0.00  0.00    -0.050 A 
ATOM     71  H39 6M5 d   1      -3.300 -47.097   8.753  0.00  0.00     0.085 H 
ATOM     72  H38 6M5 d   1      -1.739 -45.593   7.601  0.00  0.00     0.087 H 
BRANCH  67  73
ATOM     73  C13 6M5 d   1      -2.798 -48.593  10.930  0.00  0.00     0.179 A 
ATOM     74  N3  6M5 d   1      -2.483 -49.420  11.919  0.00  0.00    -0.239 N 
ATOM     75  N2  6M5 d   1      -3.646 -50.018  12.286  0.00  0.00    -0.046 NA
ATOM     76  H9  6M5 d   1      -1.549 -49.576  12.325  0.00  0.00     0.192 HD
ATOM     77  N1  6M5 d   1      -4.626 -49.586  11.562  0.00  0.00    -0.023 NA
ATOM     78  N   6M5 d   1      -4.113 -48.682  10.714  0.00  0.00    -0.108 NA
ENDBRANCH  67  73
ENDBRANCH  62  63
ENDBRANCH  59  62
ENDBRANCH  56  59
ENDBRANCH  53  56
ENDBRANCH  50  53
ENDBRANCH  49  50
ENDBRANCH   2  49
BRANCH   1  79
ATOM     79  O   6M5 d   1       6.017 -42.550   3.714  0.00  0.00    -0.353 OA
BRANCH  79  80
ATOM     80  C   6M5 d   1       6.962 -42.360   2.665  0.00  0.00     0.010 C 
ATOM     81  H34 6M5 d   1       7.830 -43.015   2.831  0.00  0.00     0.066 H 
ATOM     82  H35 6M5 d   1       7.291 -41.310   2.654  0.00  0.00     0.066 H 
ATOM     83  H36 6M5 d   1       6.494 -42.608   1.701  0.00  0.00     0.066 H 
ENDBRANCH  79  80
ENDBRANCH   1  79
TORSDOF 12
