REMARK  7 active torsions:
REMARK  status: ('A' for Active; 'I' for Inactive)
REMARK    1  A    between atoms: N_15  and  C4_2 
REMARK    2  A    between atoms: S_9  and  C3_11 
REMARK    3  A    between atoms: S_9  and  N_15 
REMARK    4  A    between atoms: C3_11  and  C2_12 
REMARK    5  A    between atoms: C2_12  and  C1_13 
REMARK    6  A    between atoms: C1_13  and  C_14 
REMARK    7  A    between atoms: N2_17  and  C9_18 
ROOT
ATOM      1  N   6U5 d   1       7.284  27.635  -7.673  0.00  0.00    -0.285 N 
ATOM      2  H13 6U5 d   1       6.381  27.351  -7.350  0.00  0.00     0.178 HD
ENDROOT
BRANCH   1   3
ATOM      3  C4  6U5 d   1       8.170  28.188  -6.698  0.00  0.00     0.044 A 
ATOM      4  C5  6U5 d   1       7.721  28.310  -5.382  0.00  0.00    -0.056 A 
ATOM      5  C6  6U5 d   1       8.534  28.870  -4.413  0.00  0.00    -0.067 A 
ATOM      6  H1  6U5 d   1       6.729  27.964  -5.117  0.00  0.00     0.087 H 
ATOM      7  C7  6U5 d   1       9.813  29.318  -4.738  0.00  0.00     0.011 A 
ATOM      8  H2  6U5 d   1       8.174  28.961  -3.395  0.00  0.00     0.085 H 
ATOM      9  C8  6U5 d   1      10.893  29.941  -4.061  0.00  0.00     0.034 A 
ATOM     10  C10 6U5 d   1      10.255  29.181  -6.057  0.00  0.00     0.066 A 
ATOM     11  N1  6U5 d   1      11.913  30.169  -4.859  0.00  0.00    -0.184 NA
ATOM     12  H3  6U5 d   1      10.879  30.200  -3.003  0.00  0.00     0.118 H 
ATOM     13  N2  6U5 d   1      11.527  29.703  -6.099  0.00  0.00    -0.274 N 
ATOM     14  C11 6U5 d   1       9.455  28.617  -7.044  0.00  0.00    -0.028 A 
ATOM     15  H14 6U5 d   1       9.819  28.512  -8.059  0.00  0.00     0.090 H 
BRANCH  13  16
ATOM     16  C9  6U5 d   1      12.455  29.820  -7.214  0.00  0.00     0.003 C 
ATOM     17  H15 6U5 d   1      11.993  29.404  -8.121  0.00  0.00     0.059 H 
ATOM     18  H16 6U5 d   1      13.376  29.265  -6.984  0.00  0.00     0.059 H 
ATOM     19  H17 6U5 d   1      12.697  30.880  -7.380  0.00  0.00     0.059 H 
ENDBRANCH  13  16
ENDBRANCH   1   3
BRANCH   1  20
ATOM     20  S   6U5 d   1       7.600  27.417  -9.286  0.00  0.00     0.231 S 
ATOM     21  O1  6U5 d   1       8.829  26.709  -9.473  0.00  0.00    -0.206 OA
ATOM     22  O   6U5 d   1       6.408  26.925  -9.905  0.00  0.00    -0.206 OA
BRANCH  20  23
ATOM     23  C3  6U5 d   1       7.843  29.099  -9.805  0.00  0.00     0.046 C 
ATOM     24  H4  6U5 d   1       8.911  29.347  -9.710  0.00  0.00     0.058 H 
ATOM     25  H5  6U5 d   1       7.254  29.759  -9.151  0.00  0.00     0.058 H 
BRANCH  23  26
ATOM     26  C2  6U5 d   1       7.414  29.332 -11.248  0.00  0.00    -0.052 C 
ATOM     27  H6  6U5 d   1       6.970  28.403 -11.636  0.00  0.00     0.034 H 
ATOM     28  H7  6U5 d   1       8.304  29.588 -11.841  0.00  0.00     0.034 H 
BRANCH  26  29
ATOM     29  C1  6U5 d   1       6.394  30.455 -11.393  0.00  0.00    -0.068 C 
ATOM     30  H8  6U5 d   1       5.858  30.565 -10.439  0.00  0.00     0.032 H 
ATOM     31  H9  6U5 d   1       5.681  30.179 -12.184  0.00  0.00     0.032 H 
BRANCH  29  32
ATOM     32  C   6U5 d   1       7.011  31.781 -11.749  0.00  0.00    -0.076 C 
ATOM     33  H10 6U5 d   1       6.221  32.541 -11.837  0.00  0.00     0.027 H 
ATOM     34  H11 6U5 d   1       7.543  31.692 -12.708  0.00  0.00     0.027 H 
ATOM     35  H12 6U5 d   1       7.720  32.078 -10.962  0.00  0.00     0.027 H 
ENDBRANCH  29  32
ENDBRANCH  26  29
ENDBRANCH  23  26
ENDBRANCH  20  23
ENDBRANCH   1  20
TORSDOF 7
