REMARK  7 active torsions:
REMARK  status: ('A' for Active; 'I' for Inactive)
REMARK    1  A    between atoms: O2'_12  and  P_1 
REMARK    2  A    between atoms: C5'_5  and  O5'_6 
REMARK    3  A    between atoms: C4'_7  and  C5'_5 
REMARK    4  A    between atoms: C3'_9  and  O3'_10 
REMARK    5  A    between atoms: C2'_11  and  O2'_12 
REMARK    6  A    between atoms: C1'_13  and  N9_14 
REMARK    7  A    between atoms: C6_18  and  N6_19 
ROOT
ATOM      1  C4' 2AM d   1      21.033 -33.077  20.606  0.00  0.00     0.088 C 
ATOM      2  O4' 2AM d   1      21.823 -32.441  21.593  0.00  0.00    -0.353 OA
ATOM      3  C3' 2AM d   1      19.954 -32.094  20.189  0.00  0.00     0.092 C 
ATOM      4  C2' 2AM d   1      20.163 -30.865  21.058  0.00  0.00     0.121 C 
ATOM      5  C1' 2AM d   1      21.121 -31.338  22.143  0.00  0.00     0.140 C 
ATOM      6  H4  2AM d   1      20.561 -33.972  21.038  0.00  0.00     0.090 H 
ATOM      7  H5  2AM d   1      20.061 -31.828  19.127  0.00  0.00     0.091 H 
ATOM      8  H7  2AM d   1      20.623 -30.054  20.474  0.00  0.00     0.095 H 
ATOM      9  H8  2AM d   1      20.530 -31.677  23.007  0.00  0.00     0.123 H 
ENDROOT
BRANCH   5  10
ATOM     10  N9  2AM d   1      22.066 -30.304  22.624  0.00  0.00    -0.294 N 
ATOM     11  C8  2AM d   1      21.984 -29.639  23.820  0.00  0.00     0.071 A 
ATOM     12  N7  2AM d   1      23.034 -28.788  23.920  0.00  0.00    -0.236 NA
ATOM     13  H9  2AM d   1      21.203 -29.773  24.567  0.00  0.00     0.144 H 
ATOM     14  C5  2AM d   1      23.794 -28.904  22.812  0.00  0.00     0.149 A 
ATOM     15  C6  2AM d   1      24.966 -28.271  22.411  0.00  0.00     0.155 A 
ATOM     16  C4  2AM d   1      23.202 -29.858  21.993  0.00  0.00     0.167 A 
ATOM     17  N1  2AM d   1      25.525 -28.601  21.194  0.00  0.00    -0.222 NA
ATOM     18  C2  2AM d   1      24.920 -29.549  20.392  0.00  0.00     0.091 A 
ATOM     19  N3  2AM d   1      23.760 -30.170  20.803  0.00  0.00    -0.222 NA
ATOM     20  H12 2AM d   1      25.360 -29.806  19.435  0.00  0.00     0.146 H 
BRANCH  15  21
ATOM     21  N6  2AM d   1      25.548 -27.357  23.187  0.00  0.00    -0.382 N 
ATOM     22  H10 2AM d   1      26.416 -26.896  22.878  0.00  0.00     0.157 HD
ATOM     23  H11 2AM d   1      25.130 -27.112  24.096  0.00  0.00     0.157 HD
ENDBRANCH  15  21
ENDBRANCH   5  10
BRANCH   4  24
ATOM     24  O2' 2AM d   1      18.937 -30.407  21.585  0.00  0.00    -0.270 OA
BRANCH  24  25
ATOM     25  P   2AM d   1      17.864 -29.617  20.677  0.00  0.00     0.422 P 
ATOM     26  O1P 2AM d   1      17.137 -30.584  19.770  0.00  0.00    -0.617 OA
ATOM     27  O2P 2AM d   1      16.871 -28.920  21.578  0.00  0.00    -0.617 OA
ATOM     28  O3P 2AM d   1      18.615 -28.601  19.852  0.00  0.00    -0.617 OA
ENDBRANCH  24  25
ENDBRANCH   4  24
BRANCH   1  29
ATOM     29  C5' 2AM d   1      21.882 -33.503  19.420  0.00  0.00     0.043 C 
ATOM     30  H1  2AM d   1      22.498 -34.369  19.703  0.00  0.00     0.078 H 
ATOM     31  H2  2AM d   1      21.227 -33.778  18.580  0.00  0.00     0.078 H 
BRANCH  29  32
ATOM     32  O5' 2AM d   1      22.719 -32.438  19.033  0.00  0.00    -0.398 OA
ATOM     33  H3  2AM d   1      23.285 -32.201  19.759  0.00  0.00     0.209 HD
ENDBRANCH  29  32
ENDBRANCH   1  29
BRANCH   3  34
ATOM     34  O3' 2AM d   1      18.689 -32.681  20.399  0.00  0.00    -0.390 OA
ATOM     35  H6  2AM d   1      18.010 -32.069  20.139  0.00  0.00     0.210 HD
ENDBRANCH   3  34
TORSDOF 7
