REMARK  10 active torsions:
REMARK  status: ('A' for Active; 'I' for Inactive)
REMARK    1  A    between atoms: O3B_8  and  PG_1 
REMARK    2  A    between atoms: PB_5  and  O3B_8 
REMARK    3  A    between atoms: O3A_12  and  PB_5 
REMARK    4  A    between atoms: PA_9  and  O3A_12 
REMARK    5  A    between atoms: PA_9  and  O5'_13 
REMARK    6  A    between atoms: O5'_13  and  C5'_14 
REMARK    7  A    between atoms: C5'_14  and  C4'_15 
REMARK    8  A    between atoms: C3'_17  and  O3'_18 
REMARK    9  A    between atoms: C2'_19  and  O2'_20 
REMARK   10  A    between atoms: C1'_21  and  N9_22 
ROOT
ATOM      1  C4' ATP d   1     -22.032  -1.317  20.304  0.00  0.00     0.089 C 
ATOM      2  O4' ATP d   1     -22.434  -0.074  20.889  0.00  0.00    -0.353 OA
ATOM      3  C3' ATP d   1     -20.980  -1.914  21.224  0.00  0.00     0.091 C 
ATOM      4  C2' ATP d   1     -21.235  -1.249  22.567  0.00  0.00     0.105 C 
ATOM      5  C1' ATP d   1     -21.772   0.116  22.150  0.00  0.00     0.139 C 
ATOM      6  H3  ATP d   1     -21.605  -1.146  19.305  0.00  0.00     0.090 H 
ATOM      7  H4  ATP d   1     -21.050  -3.010  21.285  0.00  0.00     0.091 H 
ATOM      8  H6  ATP d   1     -22.009  -1.803  23.118  0.00  0.00     0.093 H 
ATOM      9  H8  ATP d   1     -20.963   0.857  22.064  0.00  0.00     0.122 H 
ENDROOT
BRANCH   1  10
ATOM     10  C5' ATP d   1     -23.231  -2.239  20.189  0.00  0.00     0.058 C 
ATOM     11  H1  ATP d   1     -24.051  -1.738  19.654  0.00  0.00     0.079 H 
ATOM     12  H2  ATP d   1     -22.956  -3.162  19.657  0.00  0.00     0.079 H 
BRANCH  10  13
ATOM     13  O5' ATP d   1     -23.618  -2.534  21.530  0.00  0.00    -0.287 OA
BRANCH  13  14
ATOM     14  PA  ATP d   1     -24.752  -3.625  21.831  0.00  0.00     0.417 P 
ATOM     15  O1A ATP d   1     -25.906  -3.566  20.857  0.00  0.00    -0.624 OA
ATOM     16  O2A ATP d   1     -25.090  -3.478  23.321  0.00  0.00    -0.624 OA
BRANCH  14  17
ATOM     17  O3A ATP d   1     -24.035  -5.034  21.560  0.00  0.00    -0.180 OA
BRANCH  17  18
ATOM     18  PB  ATP d   1     -22.857  -5.649  22.475  0.00  0.00     0.428 P 
ATOM     19  O1B ATP d   1     -21.731  -6.046  21.546  0.00  0.00    -0.624 OA
ATOM     20  O2B ATP d   1     -22.548  -4.753  23.658  0.00  0.00    -0.624 OA
BRANCH  18  21
ATOM     21  O3B ATP d   1     -23.605  -7.007  22.916  0.00  0.00    -0.173 OA
BRANCH  21  22
ATOM     22  PG  ATP d   1     -24.274  -7.218  24.368  0.00  0.00     0.431 P 
ATOM     23  O1G ATP d   1     -25.398  -8.174  24.036  0.00  0.00    -0.616 OA
ATOM     24  O2G ATP d   1     -24.749  -5.851  24.826  0.00  0.00    -0.616 OA
ATOM     25  O3G ATP d   1     -23.159  -7.811  25.206  0.00  0.00    -0.616 OA
ENDBRANCH  21  22
ENDBRANCH  18  21
ENDBRANCH  17  18
ENDBRANCH  14  17
ENDBRANCH  13  14
ENDBRANCH  10  13
ENDBRANCH   1  10
BRANCH   3  26
ATOM     26  O3' ATP d   1     -19.703  -1.499  20.741  0.00  0.00    -0.390 OA
ATOM     27  H5  ATP d   1     -19.023  -1.858  21.298  0.00  0.00     0.210 HD
ENDBRANCH   3  26
BRANCH   5  28
ATOM     28  N9  ATP d   1     -22.765   0.534  23.167  0.00  0.00    -0.294 N 
ATOM     29  C8  ATP d   1     -23.743  -0.239  23.690  0.00  0.00     0.071 A 
ATOM     30  N7  ATP d   1     -24.475   0.454  24.604  0.00  0.00    -0.236 NA
ATOM     31  H9  ATP d   1     -23.921  -1.278  23.416  0.00  0.00     0.144 H 
ATOM     32  C5  ATP d   1     -23.940   1.694  24.677  0.00  0.00     0.149 A 
ATOM     33  C6  ATP d   1     -24.217   2.934  25.430  0.00  0.00     0.155 A 
ATOM     34  C4  ATP d   1     -22.808   1.740  23.726  0.00  0.00     0.167 A 
ATOM     35  N6  ATP d   1     -25.243   2.975  26.323  0.00  0.00    -0.382 N 
ATOM     36  N1  ATP d   1     -23.416   4.005  25.196  0.00  0.00    -0.222 NA
ATOM     37  H10 ATP d   1     -25.435   3.840  26.847  0.00  0.00     0.157 HD
ATOM     38  H11 ATP d   1     -25.828   2.141  26.474  0.00  0.00     0.157 HD
ATOM     39  C2  ATP d   1     -22.396   3.969  24.314  0.00  0.00     0.091 A 
ATOM     40  N3  ATP d   1     -22.085   2.880  23.585  0.00  0.00    -0.222 NA
ATOM     41  H12 ATP d   1     -21.796   4.862  24.185  0.00  0.00     0.146 H 
ENDBRANCH   5  28
BRANCH   4  42
ATOM     42  O2' ATP d   1     -20.067  -1.180  23.407  0.00  0.00    -0.388 OA
ATOM     43  H7  ATP d   1     -19.390  -0.680  22.966  0.00  0.00     0.210 HD
ENDBRANCH   4  42
TORSDOF 10
