REMARK  16 active torsions:
REMARK  status: ('A' for Active; 'I' for Inactive)
REMARK    1  A    between atoms: C7_4  and  C4_17 
REMARK    2  A    between atoms: O8_33  and  C7_4 
REMARK    3  A    between atoms: C9_5  and  O8_33 
REMARK       I    between atoms: N10_35  and  C9_5 
REMARK    4  A    between atoms: P12_18  and  C11_6 
REMARK    5  A    between atoms: C11_6  and  N10_35 
REMARK    6  A    between atoms: C15_8  and  C14_7 
REMARK    7  A    between atoms: C14_7  and  C21_9 
REMARK    8  A    between atoms: C14_7  and  N13_21 
REMARK       I    between atoms: N16_24  and  C15_8 
REMARK    9  A    between atoms: C21_9  and  C22_10 
REMARK   10  A    between atoms: C22_10  and  C24_11 
REMARK   11  A    between atoms: C22_10  and  C23_22 
REMARK   12  A    between atoms: C26_28  and  C27_12 
REMARK   13  A    between atoms: C17_25  and  C33_16 
REMARK   14  A    between atoms: N13_21  and  P12_18 
REMARK   15  A    between atoms: C17_25  and  N16_24 
REMARK   16  A    between atoms: C17_25  and  C26_28 
ROOT
ATOM      1  C14 6XO d   1      10.001  38.179  -3.660  0.00  0.00     0.091 C 
ATOM      2  H8  6XO d   1       9.748  37.156  -3.976  0.00  0.00     0.087 H 
ENDROOT
BRANCH   1   3
ATOM      3  C15 6XO d   1       8.800  39.066  -3.840  0.00  0.00     0.241 C 
ATOM      4  O25 6XO d   1       7.669  38.608  -3.815  0.00  0.00    -0.271 OA
ATOM      5  N16 6XO d   1       9.075  40.366  -3.969  0.00  0.00    -0.345 N 
ATOM      6  H26 6XO d   1      10.031  40.654  -4.024  0.00  0.00     0.163 HD
BRANCH   5   7
ATOM      7  C17 6XO d   1       8.034  41.376  -4.032  0.00  0.00     0.096 C 
ATOM      8  H27 6XO d   1       7.046  40.894  -4.003  0.00  0.00     0.089 H 
BRANCH   7   9
ATOM      9  C33 6XO d   1       8.117  42.194  -5.273  0.00  0.00     0.196 C 
ATOM     10  O35 6XO d   1       9.328  42.377  -5.771  0.00  0.00    -0.646 OA
ATOM     11  O34 6XO d   1       7.123  42.650  -5.806  0.00  0.00    -0.646 OA
ENDBRANCH   7   9
BRANCH   7  12
ATOM     12  C26 6XO d   1       8.241  42.230  -2.749  0.00  0.00    -0.033 C 
ATOM     13  H28 6XO d   1       8.172  41.547  -1.890  0.00  0.00     0.037 H 
ATOM     14  H29 6XO d   1       9.255  42.653  -2.801  0.00  0.00     0.037 H 
BRANCH  12  15
ATOM     15  C27 6XO d   1       7.279  43.392  -2.481  0.00  0.00    -0.052 C 
ATOM     16  C32 6XO d   1       7.298  43.687  -0.970  0.00  0.00    -0.062 C 
ATOM     17  C31 6XO d   1       6.341  44.840  -0.636  0.00  0.00    -0.065 C 
ATOM     18  H20 6XO d   1       8.319  43.965  -0.668  0.00  0.00     0.033 H 
ATOM     19  H21 6XO d   1       6.985  42.786  -0.421  0.00  0.00     0.033 H 
ATOM     20  C30 6XO d   1       6.863  46.088  -1.371  0.00  0.00    -0.065 C 
ATOM     21  H18 6XO d   1       5.324  44.598  -0.979  0.00  0.00     0.033 H 
ATOM     22  H19 6XO d   1       6.329  45.018   0.449  0.00  0.00     0.033 H 
ATOM     23  C29 6XO d   1       6.911  45.843  -2.894  0.00  0.00    -0.065 C 
ATOM     24  H16 6XO d   1       7.876  46.322  -1.011  0.00  0.00     0.033 H 
ATOM     25  H17 6XO d   1       6.194  46.936  -1.163  0.00  0.00     0.033 H 
ATOM     26  C28 6XO d   1       7.802  44.631  -3.220  0.00  0.00    -0.062 C 
ATOM     27  H30 6XO d   1       7.319  46.736  -3.391  0.00  0.00     0.033 H 
ATOM     28  H31 6XO d   1       5.892  45.652  -3.262  0.00  0.00     0.033 H 
ATOM     29  H32 6XO d   1       7.784  44.445  -4.304  0.00  0.00     0.033 H 
ATOM     30  H33 6XO d   1       8.834  44.839  -2.901  0.00  0.00     0.033 H 
ATOM     31  H15 6XO d   1       6.262  43.141  -2.816  0.00  0.00     0.040 H 
ENDBRANCH  12  15
ENDBRANCH   7  12
ENDBRANCH   5   7
ENDBRANCH   1   3
BRANCH   1  32
ATOM     32  C21 6XO d   1      10.377  38.205  -2.155  0.00  0.00    -0.035 C 
ATOM     33  H9  6XO d   1      10.641  39.238  -1.886  0.00  0.00     0.037 H 
ATOM     34  H10 6XO d   1      11.251  37.553  -2.009  0.00  0.00     0.037 H 
BRANCH  32  35
ATOM     35  C22 6XO d   1       9.267  37.734  -1.208  0.00  0.00    -0.059 C 
ATOM     36  H11 6XO d   1       8.323  38.214  -1.506  0.00  0.00     0.038 H 
BRANCH  35  37
ATOM     37  C24 6XO d   1       9.581  38.130   0.241  0.00  0.00    -0.073 C 
ATOM     38  H12 6XO d   1       8.772  37.782   0.900  0.00  0.00     0.028 H 
ATOM     39  H13 6XO d   1       9.666  39.224   0.312  0.00  0.00     0.028 H 
ATOM     40  H14 6XO d   1      10.530  37.668   0.550  0.00  0.00     0.028 H 
ENDBRANCH  35  37
BRANCH  35  41
ATOM     41  C23 6XO d   1       9.104  36.212  -1.319  0.00  0.00    -0.073 C 
ATOM     42  H23 6XO d   1       8.880  35.942  -2.361  0.00  0.00     0.028 H 
ATOM     43  H24 6XO d   1       8.279  35.883  -0.670  0.00  0.00     0.028 H 
ATOM     44  H25 6XO d   1      10.036  35.719  -1.006  0.00  0.00     0.028 H 
ENDBRANCH  35  41
ENDBRANCH  32  35
ENDBRANCH   1  32
BRANCH   1  45
ATOM     45  N13 6XO d   1      11.185  38.645  -4.414  0.00  0.00    -0.334 N 
ATOM     46  H22 6XO d   1      11.872  39.206  -3.952  0.00  0.00     0.164 HD
BRANCH  45  47
ATOM     47  P12 6XO d   1      11.384  38.275  -5.927  0.00  0.00     0.224 P 
ATOM     48  O20 6XO d   1      10.052  37.840  -6.519  0.00  0.00    -0.651 OA
ATOM     49  O19 6XO d   1      12.462  37.259  -6.125  0.00  0.00    -0.651 OA
BRANCH  47  50
ATOM     50  C11 6XO d   1      11.892  39.853  -6.669  0.00  0.00     0.086 C 
ATOM     51  H6  6XO d   1      12.546  40.387  -5.964  0.00  0.00     0.083 H 
ATOM     52  H7  6XO d   1      10.997  40.460  -6.870  0.00  0.00     0.083 H 
BRANCH  50  53
ATOM     53  N10 6XO d   1      12.606  39.641  -7.908  0.00  0.00    -0.325 N 
ATOM     54  C9  6XO d   1      12.529  40.596  -8.851  0.00  0.00     0.361 C 
ATOM     55  O18 6XO d   1      11.926  41.643  -8.760  0.00  0.00    -0.238 OA
ATOM     56  H36 6XO d   1      13.141  38.810  -8.059  0.00  0.00     0.165 HD
BRANCH  54  57
ATOM     57  O8  6XO d   1      13.209  40.246  -9.928  0.00  0.00    -0.299 OA
BRANCH  57  58
ATOM     58  C7  6XO d   1      13.542  41.359 -10.781  0.00  0.00     0.054 C 
ATOM     59  H4  6XO d   1      12.805  41.492 -11.587  0.00  0.00     0.082 H 
ATOM     60  H5  6XO d   1      13.638  42.296 -10.213  0.00  0.00     0.082 H 
BRANCH  58  61
ATOM     61  C4  6XO d   1      14.885  40.880 -11.315  0.00  0.00    -0.034 A 
ATOM     62  C3  6XO d   1      16.033  41.030 -10.535  0.00  0.00    -0.075 A 
ATOM     63  C2  6XO d   1      17.271  40.611 -11.010  0.00  0.00    -0.082 A 
ATOM     64  H3  6XO d   1      15.959  41.477  -9.550  0.00  0.00     0.084 H 
ATOM     65  C1  6XO d   1      17.376  40.021 -12.273  0.00  0.00    -0.083 A 
ATOM     66  H2  6XO d   1      18.157  40.742 -10.399  0.00  0.00     0.083 H 
ATOM     67  C6  6XO d   1      16.220  39.886 -13.055  0.00  0.00    -0.082 A 
ATOM     68  H1  6XO d   1      18.335  39.674 -12.641  0.00  0.00     0.083 H 
ATOM     69  C5  6XO d   1      14.979  40.321 -12.584  0.00  0.00    -0.075 A 
ATOM     70  H35 6XO d   1      16.290  39.438 -14.039  0.00  0.00     0.083 H 
ATOM     71  H34 6XO d   1      14.095  40.223 -13.204  0.00  0.00     0.084 H 
ENDBRANCH  58  61
ENDBRANCH  57  58
ENDBRANCH  54  57
ENDBRANCH  50  53
ENDBRANCH  47  50
ENDBRANCH  45  47
ENDBRANCH   1  45
TORSDOF 16
