REMARK  6 active torsions:
REMARK  status: ('A' for Active; 'I' for Inactive)
REMARK    1  A    between atoms: C1_1  and  O2_2 
REMARK    2  A    between atoms: C1_1  and  C16_9 
REMARK    3  A    between atoms: O2_2  and  C4_3 
REMARK    4  A    between atoms: N18_11  and  C21_14 
REMARK    5  A    between atoms: C24_17  and  S27_20 
REMARK    6  A    between atoms: S27_20  and  N30_23 
ROOT
ATOM      1  C16 ANV d   1      -1.977   6.598  12.809  0.00  0.00     0.100 A 
ATOM      2  C17 ANV d   1      -2.059   5.443  13.526  0.00  0.00     0.034 A 
ATOM      3  N18 ANV d   1      -3.375   5.265  13.767  0.00  0.00    -0.225 N 
ATOM      4  N19 ANV d   1      -4.095   6.270  13.215  0.00  0.00    -0.061 NA
ATOM      5  N20 ANV d   1      -3.239   7.079  12.633  0.00  0.00    -0.133 NA
ATOM      6  H8  ANV d   1      -1.238   4.800  13.838  0.00  0.00     0.118 H 
ENDROOT
BRANCH   3   7
ATOM      7  C21 ANV d   1      -4.017   4.206  14.474  0.00  0.00     0.059 A 
ATOM      8  C22 ANV d   1      -3.267   3.141  14.931  0.00  0.00    -0.054 A 
ATOM      9  C23 ANV d   1      -3.871   2.102  15.609  0.00  0.00    -0.058 A 
ATOM     10  H9  ANV d   1      -2.197   3.121  14.756  0.00  0.00     0.087 H 
ATOM     11  C24 ANV d   1      -5.234   2.141  15.848  0.00  0.00     0.079 A 
ATOM     12  H10 ANV d   1      -3.281   1.260  15.953  0.00  0.00     0.086 H 
ATOM     13  C25 ANV d   1      -6.002   3.205  15.395  0.00  0.00    -0.058 A 
ATOM     14  C26 ANV d   1      -5.391   4.240  14.702  0.00  0.00    -0.054 A 
ATOM     15  H11 ANV d   1      -7.070   3.227  15.581  0.00  0.00     0.086 H 
ATOM     16  H12 ANV d   1      -5.981   5.073  14.339  0.00  0.00     0.087 H 
BRANCH  11  17
ATOM     17  S27 ANV d   1      -5.976   0.845  16.783  0.00  0.00     0.256 S 
ATOM     18  O28 ANV d   1      -5.463   0.953  18.117  0.00  0.00    -0.201 OA
ATOM     19  O29 ANV d   1      -7.395   0.943  16.587  0.00  0.00    -0.201 OA
BRANCH  17  20
ATOM     20  N30 ANV d   1      -5.470  -0.540  16.167  0.00  0.00    -0.324 N 
ATOM     21  H13 ANV d   1      -5.780  -1.405  16.561  0.00  0.00     0.169 HD
ATOM     22  H14 ANV d   1      -4.843  -0.541  15.388  0.00  0.00     0.169 HD
ENDBRANCH  17  20
ENDBRANCH  11  17
ENDBRANCH   3   7
BRANCH   1  23
ATOM     23  C1  ANV d   1      -0.781   7.303  12.275  0.00  0.00     0.069 C 
ATOM     24  H1  ANV d   1      -0.015   6.566  11.993  0.00  0.00     0.085 H 
ATOM     25  H2  ANV d   1      -1.066   7.892  11.391  0.00  0.00     0.085 H 
BRANCH  23  26
ATOM     26  O2  ANV d   1      -0.260   8.172  13.280  0.00  0.00    -0.345 OA
BRANCH  26  27
ATOM     27  C4  ANV d   1      -0.744   9.452  13.389  0.00  0.00     0.069 A 
ATOM     28  C5  ANV d   1      -0.175  10.224  14.390  0.00  0.00    -0.051 A 
ATOM     29  C6  ANV d   1      -0.579  11.539  14.547  0.00  0.00    -0.080 A 
ATOM     30  H3  ANV d   1       0.580   9.802  15.044  0.00  0.00     0.087 H 
ATOM     31  C7  ANV d   1      -1.542  12.079  13.719  0.00  0.00    -0.083 A 
ATOM     32  H4  ANV d   1      -0.136  12.149  15.326  0.00  0.00     0.083 H 
ATOM     33  C8  ANV d   1      -2.112  11.304  12.731  0.00  0.00    -0.080 A 
ATOM     34  H5  ANV d   1      -1.850  13.111  13.845  0.00  0.00     0.083 H 
ATOM     35  C9  ANV d   1      -1.720   9.988  12.558  0.00  0.00    -0.051 A 
ATOM     36  H6  ANV d   1      -2.872  11.729  12.085  0.00  0.00     0.083 H 
ATOM     37  H7  ANV d   1      -2.170   9.381  11.781  0.00  0.00     0.087 H 
ENDBRANCH  26  27
ENDBRANCH  23  26
ENDBRANCH   1  23
TORSDOF 6
