REMARK  6 active torsions:
REMARK  status: ('A' for Active; 'I' for Inactive)
REMARK    1  A    between atoms: C1_1  and  O2_2 
REMARK    2  A    between atoms: C1_1  and  C16_9 
REMARK    3  A    between atoms: O2_2  and  C4_3 
REMARK    4  A    between atoms: C7_6  and  S1_20 
REMARK    5  A    between atoms: N18_11  and  C21_14 
REMARK    6  A    between atoms: S1_20  and  N5_23 
ROOT
ATOM      1  C1  A6N d   1      -2.484   5.758  13.866  0.00  0.00     0.069 C 
ATOM      2  H1  A6N d   1      -2.311   5.241  12.911  0.00  0.00     0.085 H 
ATOM      3  H2  A6N d   1      -1.864   5.298  14.649  0.00  0.00     0.085 H 
ENDROOT
BRANCH   1   4
ATOM      4  O2  A6N d   1      -3.863   5.657  14.224  0.00  0.00    -0.345 OA
BRANCH   4   5
ATOM      5  C4  A6N d   1      -4.339   4.483  14.749  0.00  0.00     0.069 A 
ATOM      6  C5  A6N d   1      -5.681   4.449  15.092  0.00  0.00    -0.049 A 
ATOM      7  C6  A6N d   1      -6.214   3.319  15.689  0.00  0.00    -0.058 A 
ATOM      8  H3  A6N d   1      -6.313   5.307  14.893  0.00  0.00     0.087 H 
ATOM      9  C7  A6N d   1      -5.394   2.229  15.943  0.00  0.00     0.079 A 
ATOM     10  H4  A6N d   1      -7.264   3.286  15.956  0.00  0.00     0.086 H 
ATOM     11  C8  A6N d   1      -4.058   2.252  15.579  0.00  0.00    -0.058 A 
ATOM     12  C9  A6N d   1      -3.533   3.378  14.972  0.00  0.00    -0.049 A 
ATOM     13  H5  A6N d   1      -3.427   1.391  15.769  0.00  0.00     0.086 H 
ATOM     14  H6  A6N d   1      -2.492   3.396  14.671  0.00  0.00     0.087 H 
BRANCH   9  15
ATOM     15  S1  A6N d   1      -6.028   0.840  16.833  0.00  0.00     0.256 S 
ATOM     16  O3  A6N d   1      -7.450   0.863  16.679  0.00  0.00    -0.201 OA
ATOM     17  O4  A6N d   1      -5.480   0.909  18.157  0.00  0.00    -0.201 OA
BRANCH  15  18
ATOM     18  N5  A6N d   1      -5.474  -0.489  16.136  0.00  0.00    -0.324 N 
ATOM     19  H13 A6N d   1      -5.725  -1.386  16.500  0.00  0.00     0.169 HD
ATOM     20  H14 A6N d   1      -4.877  -0.423  15.337  0.00  0.00     0.169 HD
ENDBRANCH  15  18
ENDBRANCH   9  15
ENDBRANCH   4   5
ENDBRANCH   1   4
BRANCH   1  21
ATOM     21  C16 A6N d   1      -2.131   7.195  13.728  0.00  0.00     0.100 A 
ATOM     22  C17 A6N d   1      -2.246   8.023  12.652  0.00  0.00     0.034 A 
ATOM     23  N18 A6N d   1      -1.809   9.225  13.080  0.00  0.00    -0.225 N 
ATOM     24  H7  A6N d   1      -2.612   7.769  11.659  0.00  0.00     0.118 H 
ATOM     25  N19 A6N d   1      -1.423   9.152  14.377  0.00  0.00    -0.061 NA
ATOM     26  N20 A6N d   1      -1.623   7.914  14.766  0.00  0.00    -0.133 NA
BRANCH  23  27
ATOM     27  C21 A6N d   1      -1.749  10.464  12.376  0.00  0.00     0.059 A 
ATOM     28  C22 A6N d   1      -1.917  11.660  13.063  0.00  0.00    -0.055 A 
ATOM     29  C23 A6N d   1      -1.904  12.855  12.366  0.00  0.00    -0.081 A 
ATOM     30  H8  A6N d   1      -2.057  11.657  14.138  0.00  0.00     0.087 H 
ATOM     31  C24 A6N d   1      -1.726  12.863  10.994  0.00  0.00    -0.083 A 
ATOM     32  H9  A6N d   1      -2.034  13.790  12.898  0.00  0.00     0.083 H 
ATOM     33  C25 A6N d   1      -1.554  11.671  10.314  0.00  0.00    -0.081 A 
ATOM     34  H10 A6N d   1      -1.721  13.802  10.453  0.00  0.00     0.083 H 
ATOM     35  C26 A6N d   1      -1.563  10.468  10.999  0.00  0.00    -0.055 A 
ATOM     36  H11 A6N d   1      -1.411  11.679   9.239  0.00  0.00     0.083 H 
ATOM     37  H12 A6N d   1      -1.426   9.535  10.464  0.00  0.00     0.087 H 
ENDBRANCH  23  27
ENDBRANCH   1  21
TORSDOF 6
