REMARK  8 active torsions:
REMARK  status: ('A' for Active; 'I' for Inactive)
REMARK    1  A    between atoms: S14_2  and  C8_4 
REMARK    2  A    between atoms: S14_2  and  C17_19 
REMARK    3  A    between atoms: C9_9  and  N25_10 
REMARK    4  A    between atoms: N25_10  and  C26_11 
REMARK    5  A    between atoms: C5_14  and  S1_15 
REMARK    6  A    between atoms: S1_15  and  N4_17 
REMARK    7  A    between atoms: C17_19  and  C18_20 
REMARK    8  A    between atoms: C18_20  and  C19_21 
ROOT
ATOM      1  C8  V26 d   1      -3.521   4.384  14.439  0.00  0.00     0.130 A 
ATOM      2  C7  V26 d   1      -2.846   3.443  15.234  0.00  0.00     0.180 A 
ATOM      3  F12 V26 d   1      -1.534   3.514  15.400  0.00  0.00    -0.201 F 
ATOM      4  C6  V26 d   1      -3.550   2.390  15.830  0.00  0.00     0.182 A 
ATOM      5  F11 V26 d   1      -2.839   1.474  16.506  0.00  0.00    -0.201 F 
ATOM      6  C9  V26 d   1      -4.918   4.264  14.272  0.00  0.00     0.093 A 
ATOM      7  C10 V26 d   1      -5.565   3.228  14.996  0.00  0.00     0.170 A 
ATOM      8  F13 V26 d   1      -6.890   3.254  14.942  0.00  0.00    -0.202 F 
ATOM      9  C5  V26 d   1      -4.949   2.268  15.777  0.00  0.00     0.161 A 
ENDROOT
BRANCH   1  10
ATOM     10  S14 V26 d   1      -2.510   5.609  13.647  0.00  0.00     0.181 S 
ATOM     11  O16 V26 d   1      -3.358   6.488  12.808  0.00  0.00    -0.222 OA
ATOM     12  O15 V26 d   1      -1.743   6.301  14.672  0.00  0.00    -0.222 OA
BRANCH  10  13
ATOM     13  C17 V26 d   1      -1.385   4.712  12.608  0.00  0.00     0.037 C 
ATOM     14  H7  V26 d   1      -0.992   3.858  13.180  0.00  0.00     0.057 H 
ATOM     15  H8  V26 d   1      -0.557   5.383  12.335  0.00  0.00     0.057 H 
BRANCH  13  16
ATOM     16  C18 V26 d   1      -2.014   4.180  11.324  0.00  0.00    -0.029 C 
ATOM     17  H9  V26 d   1      -1.197   3.887  10.648  0.00  0.00     0.041 H 
ATOM     18  H10 V26 d   1      -2.590   5.000  10.870  0.00  0.00     0.041 H 
BRANCH  16  19
ATOM     19  C19 V26 d   1      -2.917   3.022  11.462  0.00  0.00    -0.057 C 
ATOM     20  C24 V26 d   1      -2.774   1.962  12.400  0.00  0.00    -0.077 C 
ATOM     21  C23 V26 d   1      -3.656   0.935  12.519  0.00  0.00    -0.082 C 
ATOM     22  H11 V26 d   1      -1.912   1.974  13.057  0.00  0.00     0.084 H 
ATOM     23  C22 V26 d   1      -4.738   0.910  11.617  0.00  0.00    -0.083 C 
ATOM     24  H12 V26 d   1      -3.532   0.168  13.275  0.00  0.00     0.083 H 
ATOM     25  C21 V26 d   1      -4.931   2.007  10.763  0.00  0.00    -0.082 C 
ATOM     26  H13 V26 d   1      -5.409   0.059  11.583  0.00  0.00     0.083 H 
ATOM     27  C20 V26 d   1      -4.069   3.075  10.730  0.00  0.00    -0.077 C 
ATOM     28  H14 V26 d   1      -5.793   2.011  10.105  0.00  0.00     0.083 H 
ATOM     29  H15 V26 d   1      -4.300   3.949  10.131  0.00  0.00     0.084 H 
ENDBRANCH  16  19
ENDBRANCH  13  16
ENDBRANCH  10  13
ENDBRANCH   1  10
BRANCH   6  30
ATOM     30  N25 V26 d   1      -5.648   5.146  13.504  0.00  0.00    -0.390 N 
ATOM     31  H1  V26 d   1      -5.393   6.144  13.521  0.00  0.00     0.159 HD
BRANCH  30  32
ATOM     32  C26 V26 d   1      -6.775   4.722  12.663  0.00  0.00    -0.021 C 
ATOM     33  H2  V26 d   1      -7.198   5.597  12.148  0.00  0.00     0.056 H 
ATOM     34  H3  V26 d   1      -7.548   4.258  13.293  0.00  0.00     0.056 H 
ATOM     35  H4  V26 d   1      -6.423   3.993  11.918  0.00  0.00     0.056 H 
ENDBRANCH  30  32
ENDBRANCH   6  30
BRANCH   9  36
ATOM     36  S1  V26 d   1      -5.732   0.955  16.709  0.00  0.00     0.263 S 
ATOM     37  O3  V26 d   1      -5.187   1.180  18.042  0.00  0.00    -0.201 OA
ATOM     38  O2  V26 d   1      -7.142   1.123  16.509  0.00  0.00    -0.201 OA
BRANCH  36  39
ATOM     39  N4  V26 d   1      -5.281  -0.434  16.109  0.00  0.00    -0.324 N 
ATOM     40  H5  V26 d   1      -5.622  -1.285  16.507  0.00  0.00     0.169 HD
ATOM     41  H6  V26 d   1      -4.654  -0.463  15.331  0.00  0.00     0.169 HD
ENDBRANCH  36  39
ENDBRANCH   9  36
TORSDOF 8
