REMARK  4 active torsions:
REMARK  status: ('A' for Active; 'I' for Inactive)
REMARK    1  A    between atoms: C5_3  and  S7_4 
REMARK    2  A    between atoms: S7_4  and  N10_6 
REMARK    3  A    between atoms: C2_14  and  N25_15 
REMARK    4  A    between atoms: N25_15  and  C19_16 
ROOT
ATOM      1  C19 V51 d   1      -3.117   5.934  12.802  0.00  0.00     0.031 C 
ATOM      2  C18 V51 d   1      -3.049   6.693  14.157  0.00  0.00    -0.038 C 
ATOM      3  C20 V51 d   1      -3.144   6.951  11.614  0.00  0.00    -0.038 C 
ATOM      4  C24 V51 d   1      -1.804   5.110  12.701  0.00  0.00    -0.038 C 
ATOM      5  C23 V51 d   1      -0.573   6.075  12.712  0.00  0.00    -0.051 C 
ATOM      6  C21 V51 d   1      -0.625   7.103  11.543  0.00  0.00    -0.058 C 
ATOM      7  C15 V51 d   1      -1.917   7.927  11.649  0.00  0.00    -0.051 C 
ATOM      8  C22 V51 d   1      -0.540   6.874  14.033  0.00  0.00    -0.058 C 
ATOM      9  C17 V51 d   1      -1.840   7.674  14.192  0.00  0.00    -0.051 C 
ATOM     10  C16 V51 d   1      -1.898   8.681  13.001  0.00  0.00    -0.058 C 
ATOM     11  H4  V51 d   1      -2.942   5.963  14.973  0.00  0.00     0.037 H 
ATOM     12  H5  V51 d   1      -3.979   7.264  14.296  0.00  0.00     0.037 H 
ATOM     13  H6  V51 d   1      -4.070   7.542  11.673  0.00  0.00     0.037 H 
ATOM     14  H7  V51 d   1      -3.126   6.392  10.667  0.00  0.00     0.037 H 
ATOM     15  H8  V51 d   1      -1.806   4.532  11.765  0.00  0.00     0.037 H 
ATOM     16  H9  V51 d   1      -1.737   4.423  13.557  0.00  0.00     0.037 H 
ATOM     17  H10 V51 d   1       0.344   5.475  12.623  0.00  0.00     0.040 H 
ATOM     18  H11 V51 d   1      -0.608   6.568  10.582  0.00  0.00     0.034 H 
ATOM     19  H12 V51 d   1       0.245   7.774  11.604  0.00  0.00     0.034 H 
ATOM     20  H13 V51 d   1      -1.982   8.643  10.817  0.00  0.00     0.040 H 
ATOM     21  H14 V51 d   1       0.315   7.566  14.019  0.00  0.00     0.034 H 
ATOM     22  H15 V51 d   1      -0.435   6.178  14.878  0.00  0.00     0.034 H 
ATOM     23  H16 V51 d   1      -1.839   8.221  15.146  0.00  0.00     0.040 H 
ATOM     24  H17 V51 d   1      -2.809   9.291  13.088  0.00  0.00     0.034 H 
ATOM     25  H18 V51 d   1      -1.014   9.335  13.038  0.00  0.00     0.034 H 
ENDROOT
BRANCH   1  26
ATOM     26  N25 V51 d   1      -4.332   5.121  12.701  0.00  0.00    -0.376 N 
ATOM     27  H3  V51 d   1      -5.003   5.338  11.950  0.00  0.00     0.160 HD
BRANCH  26  28
ATOM     28  C2  V51 d   1      -4.641   4.026  13.603  0.00  0.00     0.113 A 
ATOM     29  C1  V51 d   1      -4.133   2.706  13.487  0.00  0.00     0.186 A 
ATOM     30  C6  V51 d   1      -4.493   1.720  14.423  0.00  0.00     0.183 A 
ATOM     31  F11 V51 d   1      -3.283   2.308  12.510  0.00  0.00    -0.200 F 
ATOM     32  C5  V51 d   1      -5.333   2.015  15.519  0.00  0.00     0.162 A 
ATOM     33  F12 V51 d   1      -3.951   0.510  14.192  0.00  0.00    -0.201 F 
ATOM     34  C4  V51 d   1      -5.865   3.271  15.595  0.00  0.00     0.183 A 
ATOM     35  F14 V51 d   1      -6.690   3.570  16.624  0.00  0.00    -0.201 F 
ATOM     36  C3  V51 d   1      -5.495   4.255  14.682  0.00  0.00     0.186 A 
ATOM     37  F13 V51 d   1      -6.018   5.456  14.856  0.00  0.00    -0.200 F 
BRANCH  32  38
ATOM     38  S7  V51 d   1      -5.857   0.790  16.734  0.00  0.00     0.263 S 
ATOM     39  O9  V51 d   1      -5.298   1.011  18.127  0.00  0.00    -0.201 OA
ATOM     40  O8  V51 d   1      -7.384   0.958  16.852  0.00  0.00    -0.201 OA
BRANCH  38  41
ATOM     41  N10 V51 d   1      -5.229  -0.711  16.098  0.00  0.00    -0.324 N 
ATOM     42  H1  V51 d   1      -5.383  -1.567  16.592  0.00  0.00     0.169 HD
ATOM     43  H2  V51 d   1      -4.715  -0.715  15.240  0.00  0.00     0.169 HD
ENDBRANCH  38  41
ENDBRANCH  32  38
ENDBRANCH  26  28
ENDBRANCH   1  26
TORSDOF 4
