REMARK  6 active torsions:
REMARK  status: ('A' for Active; 'I' for Inactive)
REMARK    1  A    between atoms: S2_2  and  N3_4 
REMARK    2  A    between atoms: S2_2  and  C5_5 
REMARK    3  A    between atoms: C8_8  and  S11_11 
REMARK    4  A    between atoms: S11_11  and  C12_12 
REMARK    5  A    between atoms: C12_12  and  C13_13 
REMARK    6  A    between atoms: C13_13  and  C14_14 
ROOT
ATOM      1  C5  VD9 d   1      -5.361   2.198  15.902  0.00  0.00     0.079 A 
ATOM      2  C10 VD9 d   1      -4.021   2.233  15.534  0.00  0.00    -0.059 A 
ATOM      3  C9  VD9 d   1      -3.561   3.385  14.848  0.00  0.00    -0.065 A 
ATOM      4  C8  VD9 d   1      -4.445   4.422  14.521  0.00  0.00     0.000 A 
ATOM      5  C7  VD9 d   1      -5.795   4.370  14.872  0.00  0.00    -0.065 A 
ATOM      6  C6  VD9 d   1      -6.263   3.249  15.594  0.00  0.00    -0.059 A 
ATOM      7  H3  VD9 d   1      -3.353   1.411  15.763  0.00  0.00     0.086 H 
ATOM      8  H4  VD9 d   1      -2.515   3.465  14.574  0.00  0.00     0.085 H 
ATOM      9  H5  VD9 d   1      -6.470   5.172  14.597  0.00  0.00     0.085 H 
ATOM     10  H6  VD9 d   1      -7.299   3.193  15.909  0.00  0.00     0.086 H 
ENDROOT
BRANCH   4  11
ATOM     11  S11 VD9 d   1      -3.942   5.860  13.622  0.00  0.00    -0.130 SA
BRANCH  11  12
ATOM     12  C12 VD9 d   1      -2.064   5.833  13.655  0.00  0.00    -0.019 C 
ATOM     13  H7  VD9 d   1      -1.694   5.098  12.925  0.00  0.00     0.049 H 
ATOM     14  H8  VD9 d   1      -1.717   5.557  14.662  0.00  0.00     0.049 H 
BRANCH  12  15
ATOM     15  C13 VD9 d   1      -1.538   7.217  13.297  0.00  0.00    -0.060 C 
ATOM     16  H9  VD9 d   1      -2.161   7.700  12.530  0.00  0.00     0.033 H 
ATOM     17  H10 VD9 d   1      -0.495   7.176  12.950  0.00  0.00     0.033 H 
BRANCH  15  18
ATOM     18  C14 VD9 d   1      -1.654   7.930  14.645  0.00  0.00    -0.076 C 
ATOM     19  H11 VD9 d   1      -1.302   8.967  14.543  0.00  0.00     0.027 H 
ATOM     20  H12 VD9 d   1      -1.039   7.406  15.391  0.00  0.00     0.027 H 
ATOM     21  H13 VD9 d   1      -2.705   7.930  14.971  0.00  0.00     0.027 H 
ENDBRANCH  15  18
ENDBRANCH  12  15
ENDBRANCH  11  12
ENDBRANCH   4  11
BRANCH   1  22
ATOM     22  S2  VD9 d   1      -5.924   0.787  16.800  0.00  0.00     0.256 S 
ATOM     23  O4  VD9 d   1      -5.375   0.902  18.109  0.00  0.00    -0.201 OA
ATOM     24  O1  VD9 d   1      -7.364   0.843  16.684  0.00  0.00    -0.201 OA
BRANCH  22  25
ATOM     25  N3  VD9 d   1      -5.401  -0.583  16.081  0.00  0.00    -0.324 N 
ATOM     26  H1  VD9 d   1      -4.424  -0.796  16.061  0.00  0.00     0.169 HD
ATOM     27  H2  VD9 d   1      -6.058  -1.209  15.661  0.00  0.00     0.169 HD
ENDBRANCH  22  25
ENDBRANCH   1  22
TORSDOF 6
