REMARK  4 active torsions:
REMARK  status: ('A' for Active; 'I' for Inactive)
REMARK    1  A    between atoms: C5_3  and  S7_4 
REMARK    2  A    between atoms: S7_4  and  N10_6 
REMARK    3  A    between atoms: C2_14  and  S15_15 
REMARK    4  A    between atoms: S15_15  and  C16_16 
ROOT
ATOM      1  F14 V49 d   1      -3.972   0.342  14.532  0.00  0.00    -0.201 F 
ATOM      2  C4  V49 d   1      -4.552   1.561  14.578  0.00  0.00     0.182 A 
ATOM      3  C5  V49 d   1      -5.412   1.974  15.607  0.00  0.00     0.162 A 
ATOM      4  C6  V49 d   1      -6.012   3.236  15.555  0.00  0.00     0.182 A 
ATOM      5  F12 V49 d   1      -6.836   3.659  16.536  0.00  0.00    -0.201 F 
ATOM      6  C1  V49 d   1      -5.705   4.107  14.528  0.00  0.00     0.176 A 
ATOM      7  F11 V49 d   1      -6.257   5.325  14.585  0.00  0.00    -0.201 F 
ATOM      8  C3  V49 d   1      -4.259   2.478  13.557  0.00  0.00     0.176 A 
ATOM      9  F13 V49 d   1      -3.459   2.143  12.561  0.00  0.00    -0.201 F 
ATOM     10  C2  V49 d   1      -4.840   3.722  13.505  0.00  0.00     0.091 A 
ENDROOT
BRANCH  10  11
ATOM     11  S15 V49 d   1      -4.328   4.718  12.064  0.00  0.00    -0.057 SA
BRANCH  11  12
ATOM     12  C16 V49 d   1      -3.341   5.924  12.867  0.00  0.00     0.141 A 
ATOM     13  N20 V49 d   1      -2.875   6.969  12.135  0.00  0.00    -0.233 NA
ATOM     14  C19 V49 d   1      -2.146   7.783  12.949  0.00  0.00     0.075 A 
ATOM     15  C21 V49 d   1      -1.589   8.972  12.478  0.00  0.00    -0.054 A 
ATOM     16  C18 V49 d   1      -2.044   7.378  14.301  0.00  0.00     0.036 A 
ATOM     17  C22 V49 d   1      -0.844   9.745  13.417  0.00  0.00    -0.081 A 
ATOM     18  H3  V49 d   1      -1.716   9.292  11.450  0.00  0.00     0.087 H 
ATOM     19  C23 V49 d   1      -0.711   9.307  14.781  0.00  0.00    -0.082 A 
ATOM     20  H4  V49 d   1      -0.374  10.669  13.101  0.00  0.00     0.083 H 
ATOM     21  C24 V49 d   1      -1.327   8.123  15.224  0.00  0.00    -0.064 A 
ATOM     22  H5  V49 d   1      -0.127   9.898  15.477  0.00  0.00     0.083 H 
ATOM     23  H6  V49 d   1      -1.244   7.803  16.256  0.00  0.00     0.085 H 
ATOM     24  S17 V49 d   1      -2.858   5.938  14.472  0.00  0.00    -0.061 SA
ENDBRANCH  11  12
ENDBRANCH  10  11
BRANCH   3  25
ATOM     25  S7  V49 d   1      -5.875   0.872  16.933  0.00  0.00     0.263 S 
ATOM     26  O9  V49 d   1      -5.350   1.210  18.299  0.00  0.00    -0.201 OA
ATOM     27  O8  V49 d   1      -7.415   1.000  16.911  0.00  0.00    -0.201 OA
BRANCH  25  28
ATOM     28  N10 V49 d   1      -5.345  -0.770  16.568  0.00  0.00    -0.324 N 
ATOM     29  H1  V49 d   1      -5.529  -1.510  17.215  0.00  0.00     0.169 HD
ATOM     30  H2  V49 d   1      -4.861  -0.961  15.714  0.00  0.00     0.169 HD
ENDBRANCH  25  28
ENDBRANCH   3  25
TORSDOF 4
