REMARK  13 active torsions:
REMARK  status: ('A' for Active; 'I' for Inactive)
REMARK    1  A    between atoms: CBK_3  and  CAZ_6 
REMARK       I    between atoms: CAZ_6  and  NAW_8 
REMARK    2  A    between atoms: NAW_8  and  CBH_9 
REMARK    3  A    between atoms: CBH_9  and  CBJ_10 
REMARK    4  A    between atoms: CBH_9  and  CBA_14 
REMARK    5  A    between atoms: CBJ_10  and  CAD_11 
REMARK    6  A    between atoms: CBJ_10  and  CAB_12 
REMARK    7  A    between atoms: CBJ_10  and  CAC_13 
REMARK       I    between atoms: CBA_14  and  N_16 
REMARK    8  A    between atoms: CG_18  and  OD1_19 
REMARK    9  A    between atoms: CA_21  and  C_22 
REMARK       I    between atoms: C_22  and  NAV_24 
REMARK   10  A    between atoms: NAV_24  and  CAR_25 
REMARK   11  A    between atoms: CAR_25  and  CBC_26 
REMARK   12  A    between atoms: CBD_31  and  CBE_32 
REMARK   13  A    between atoms: CBB_36  and  CAA_37 
ROOT
ATOM      1  CAP 6Z3 d   1      10.376  57.587  97.699  0.00  0.00    -0.035 A 
ATOM      2  CAQ 6Z3 d   1       9.917  58.305  96.433  0.00  0.00    -0.035 A 
ATOM      3  CBK 6Z3 d   1      10.266  56.851  96.376  0.00  0.00     0.129 A 
ATOM      4  CAJ 6Z3 d   1       9.219  56.037  96.268  0.00  0.00     0.079 C 
ATOM      5  NAE 6Z3 d   1       8.482  55.474  96.184  0.00  0.00    -0.196 NA
ATOM      6  H1  6Z3 d   1       9.660  57.380  98.508  0.00  0.00     0.036 H 
ATOM      7  H2  6Z3 d   1      11.364  57.804  98.130  0.00  0.00     0.036 H 
ATOM      8  H3  6Z3 d   1      10.573  59.046  95.954  0.00  0.00     0.036 H 
ATOM      9  H4  6Z3 d   1       8.869  58.623  96.331  0.00  0.00     0.036 H 
ENDROOT
BRANCH   3  10
ATOM     10  CAZ 6Z3 d   1      11.564  56.375  95.709  0.00  0.00     0.241 C 
ATOM     11  OAG 6Z3 d   1      12.602  56.991  95.924  0.00  0.00    -0.272 OA
ATOM     12  NAW 6Z3 d   1      11.488  55.262  94.967  0.00  0.00    -0.346 N 
ATOM     13  H5  6Z3 d   1      10.605  54.801  94.884  0.00  0.00     0.163 HD
BRANCH  12  14
ATOM     14  CBH 6Z3 d   1      12.644  54.694  94.274  0.00  0.00     0.096 C 
ATOM     15  H6  6Z3 d   1      13.545  55.297  94.461  0.00  0.00     0.088 H 
BRANCH  14  16
ATOM     16  CBJ 6Z3 d   1      12.874  53.260  94.787  0.00  0.00    -0.022 C 
BRANCH  16  17
ATOM     17  CAD 6Z3 d   1      11.564  52.446  94.867  0.00  0.00    -0.067 C 
ATOM     18  H7  6Z3 d   1      11.783  51.434  95.237  0.00  0.00     0.028 H 
ATOM     19  H8  6Z3 d   1      11.111  52.380  93.867  0.00  0.00     0.028 H 
ATOM     20  H9  6Z3 d   1      10.864  52.944  95.554  0.00  0.00     0.028 H 
ENDBRANCH  16  17
BRANCH  16  21
ATOM     21  CAB 6Z3 d   1      13.427  53.356  96.211  0.00  0.00    -0.067 C 
ATOM     22  H10 6Z3 d   1      14.365  53.931  96.202  0.00  0.00     0.028 H 
ATOM     23  H11 6Z3 d   1      13.620  52.345  96.598  0.00  0.00     0.028 H 
ATOM     24  H12 6Z3 d   1      12.693  53.862  96.856  0.00  0.00     0.028 H 
ENDBRANCH  16  21
BRANCH  16  25
ATOM     25  CAC 6Z3 d   1      13.900  52.498  93.913  0.00  0.00    -0.067 C 
ATOM     26  H13 6Z3 d   1      13.518  52.419  92.884  0.00  0.00     0.028 H 
ATOM     27  H14 6Z3 d   1      14.055  51.490  94.325  0.00  0.00     0.028 H 
ATOM     28  H15 6Z3 d   1      14.855  53.044  93.909  0.00  0.00     0.028 H 
ENDBRANCH  16  25
ENDBRANCH  14  16
BRANCH  14  29
ATOM     29  CBA 6Z3 d   1      12.289  54.731  92.780  0.00  0.00     0.244 C 
ATOM     30  OAH 6Z3 d   1      11.132  54.527  92.445  0.00  0.00    -0.271 OA
ATOM     31  N   6Z3 d   1      13.266  55.016  91.901  0.00  0.00    -0.334 N 
ATOM     32  CD2 6Z3 d   1      14.684  55.317  92.197  0.00  0.00     0.022 C 
ATOM     33  CA  6Z3 d   1      13.045  55.111  90.415  0.00  0.00     0.094 C 
ATOM     34  CG  6Z3 d   1      15.154  56.094  90.983  0.00  0.00     0.053 C 
ATOM     35  H16 6Z3 d   1      15.264  54.390  92.317  0.00  0.00     0.068 H 
ATOM     36  H17 6Z3 d   1      14.773  55.925  93.109  0.00  0.00     0.068 H 
ATOM     37  CB  6Z3 d   1      14.403  55.469  89.842  0.00  0.00    -0.012 C 
ATOM     38  H18 6Z3 d   1      16.242  56.001  90.850  0.00  0.00     0.085 H 
ATOM     39  H20 6Z3 d   1      14.922  54.567  89.485  0.00  0.00     0.040 H 
ATOM     40  H21 6Z3 d   1      14.296  56.183  89.012  0.00  0.00     0.040 H 
ATOM     41  H22 6Z3 d   1      12.303  55.893  90.196  0.00  0.00     0.088 H 
BRANCH  34  42
ATOM     42  OD1 6Z3 d   1      14.785  57.477  91.079  0.00  0.00    -0.394 OA
ATOM     43  H19 6Z3 d   1      15.181  57.856  91.855  0.00  0.00     0.210 HD
ENDBRANCH  34  42
BRANCH  33  44
ATOM     44  C   6Z3 d   1      12.633  53.898  89.824  0.00  0.00     0.241 C 
ATOM     45  O   6Z3 d   1      13.111  52.826  90.201  0.00  0.00    -0.271 OA
ATOM     46  NAV 6Z3 d   1      11.758  54.029  88.796  0.00  0.00    -0.355 N 
ATOM     47  H23 6Z3 d   1      11.418  54.944  88.580  0.00  0.00     0.162 HD
BRANCH  46  48
ATOM     48  CAR 6Z3 d   1      11.275  52.890  87.971  0.00  0.00     0.019 C 
ATOM     49  H24 6Z3 d   1      10.241  53.098  87.658  0.00  0.00     0.071 H 
ATOM     50  H25 6Z3 d   1      11.296  51.978  88.586  0.00  0.00     0.071 H 
BRANCH  48  51
ATOM     51  CBC 6Z3 d   1      12.074  52.668  86.796  0.00  0.00    -0.040 A 
ATOM     52  CAK 6Z3 d   1      12.908  53.648  86.243  0.00  0.00    -0.074 A 
ATOM     53  CAM 6Z3 d   1      13.678  53.393  85.092  0.00  0.00    -0.071 A 
ATOM     54  H26 6Z3 d   1      12.962  54.624  86.711  0.00  0.00     0.084 H 
ATOM     55  CBD 6Z3 d   1      13.638  52.170  84.447  0.00  0.00    -0.017 A 
ATOM     56  H27 6Z3 d   1      14.319  54.175  84.701  0.00  0.00     0.084 H 
ATOM     57  CAN 6Z3 d   1      12.814  51.183  85.002  0.00  0.00    -0.071 A 
ATOM     58  CAL 6Z3 d   1      12.040  51.432  86.141  0.00  0.00    -0.074 A 
ATOM     59  H29 6Z3 d   1      12.775  50.204  84.539  0.00  0.00     0.084 H 
ATOM     60  H28 6Z3 d   1      11.398  50.648  86.525  0.00  0.00     0.084 H 
BRANCH  55  61
ATOM     61  CBE 6Z3 d   1      14.380  51.962  83.348  0.00  0.00     0.040 A 
ATOM     62  SAX 6Z3 d   1      15.987  52.405  83.114  0.00  0.00    -0.080 SA
ATOM     63  CAO 6Z3 d   1      16.097  51.798  81.587  0.00  0.00     0.041 A 
ATOM     64  NAU 6Z3 d   1      14.916  51.278  81.244  0.00  0.00    -0.258 NA
ATOM     65  H30 6Z3 d   1      16.987  51.818  80.960  0.00  0.00     0.126 H 
ATOM     66  CBB 6Z3 d   1      13.988  51.376  82.206  0.00  0.00     0.049 A 
BRANCH  66  67
ATOM     67  CAA 6Z3 d   1      12.605  50.826  81.958  0.00  0.00    -0.034 C 
ATOM     68  H31 6Z3 d   1      12.555  50.403  80.944  0.00  0.00     0.035 H 
ATOM     69  H32 6Z3 d   1      11.866  51.635  82.054  0.00  0.00     0.035 H 
ATOM     70  H33 6Z3 d   1      12.386  50.039  82.695  0.00  0.00     0.035 H 
ENDBRANCH  66  67
ENDBRANCH  55  61
ENDBRANCH  48  51
ENDBRANCH  46  48
ENDBRANCH  33  44
ENDBRANCH  14  29
ENDBRANCH  12  14
ENDBRANCH   3  10
TORSDOF 13
