REMARK  8 active torsions:
REMARK  status: ('A' for Active; 'I' for Inactive)
REMARK    1  A    between atoms: C18_11  and  O19_1 
REMARK    2  A    between atoms: S14_9  and  C17_2 
REMARK    3  A    between atoms: C17_2  and  C18_11 
REMARK    4  A    between atoms: C5_5  and  S1_16 
REMARK    5  A    between atoms: C8_12  and  S14_9 
REMARK    6  A    between atoms: C9_14  and  N20_20 
REMARK    7  A    between atoms: S1_16  and  N4_18 
REMARK    8  A    between atoms: N20_20  and  C21_21 
ROOT
ATOM      1  C6  5EF d   1      23.472   4.011  12.799  0.00  0.00     0.182 A 
ATOM      2  F11 5EF d   1      22.434   3.210  13.195  0.00  0.00    -0.201 F 
ATOM      3  C5  5EF d   1      24.051   3.910  11.535  0.00  0.00     0.161 A 
ATOM      4  F12 5EF d   1      23.333   4.951  14.990  0.00  0.00    -0.201 F 
ATOM      5  F13 5EF d   1      25.730   4.653  10.145  0.00  0.00    -0.202 F 
ATOM      6  C8  5EF d   1      24.960   5.752  13.472  0.00  0.00     0.130 A 
ATOM      7  C7  5EF d   1      23.884   4.904  13.768  0.00  0.00     0.180 A 
ATOM      8  C9  5EF d   1      25.584   5.687  12.227  0.00  0.00     0.094 A 
ATOM      9  C10 5EF d   1      25.127   4.783  11.296  0.00  0.00     0.170 A 
ENDROOT
BRANCH   8  10
ATOM     10  N20 5EF d   1      26.651   6.575  11.828  0.00  0.00    -0.377 N 
ATOM     11  H8  5EF d   1      27.430   6.752  12.478  0.00  0.00     0.160 HD
BRANCH  10  12
ATOM     12  C21 5EF d   1      26.646   7.239  10.498  0.00  0.00     0.036 C 
ATOM     13  C25 5EF d   1      25.958   8.622  10.574  0.00  0.00    -0.039 C 
ATOM     14  C24 5EF d   1      26.708   9.520   9.546  0.00  0.00    -0.038 C 
ATOM     15  H10 5EF d   1      26.048   9.041  11.587  0.00  0.00     0.036 H 
ATOM     16  H11 5EF d   1      24.895   8.537  10.306  0.00  0.00     0.036 H 
ATOM     17  C23 5EF d   1      28.059   8.955   9.733  0.00  0.00    -0.050 A 
ATOM     18  H12 5EF d   1      26.661  10.586   9.811  0.00  0.00     0.040 H 
ATOM     19  H13 5EF d   1      26.336   9.381   8.520  0.00  0.00     0.040 H 
ATOM     20  C29 5EF d   1      29.297   9.584   9.443  0.00  0.00    -0.076 A 
ATOM     21  C22 5EF d   1      28.044   7.683  10.241  0.00  0.00    -0.029 A 
ATOM     22  C28 5EF d   1      30.527   8.928   9.714  0.00  0.00    -0.082 A 
ATOM     23  H14 5EF d   1      29.304  10.577   9.009  0.00  0.00     0.084 H 
ATOM     24  C27 5EF d   1      30.505   7.611  10.276  0.00  0.00    -0.082 A 
ATOM     25  H15 5EF d   1      31.470   9.418   9.498  0.00  0.00     0.083 H 
ATOM     26  C26 5EF d   1      29.241   7.020  10.535  0.00  0.00    -0.074 A 
ATOM     27  H16 5EF d   1      31.425   7.082  10.497  0.00  0.00     0.083 H 
ATOM     28  H17 5EF d   1      29.202   6.029  10.972  0.00  0.00     0.084 H 
ATOM     29  H9  5EF d   1      26.228   6.587   9.717  0.00  0.00     0.080 H 
ENDBRANCH  10  12
ENDBRANCH   8  10
BRANCH   6  30
ATOM     30  S14 5EF d   1      25.440   6.942  14.733  0.00  0.00     0.182 S 
ATOM     31  O16 5EF d   1      26.804   7.640  14.412  0.00  0.00    -0.222 OA
ATOM     32  O15 5EF d   1      25.798   6.122  15.970  0.00  0.00    -0.222 OA
BRANCH  30  33
ATOM     33  C17 5EF d   1      24.265   8.217  15.219  0.00  0.00     0.053 C 
ATOM     34  H2  5EF d   1      24.555   8.635  16.194  0.00  0.00     0.059 H 
ATOM     35  H3  5EF d   1      23.257   7.783  15.291  0.00  0.00     0.059 H 
BRANCH  33  36
ATOM     36  C18 5EF d   1      24.274   9.306  14.178  0.00  0.00     0.029 C 
ATOM     37  H4  5EF d   1      23.690  10.170  14.527  0.00  0.00     0.075 H 
ATOM     38  H5  5EF d   1      25.306   9.622  13.969  0.00  0.00     0.075 H 
BRANCH  36  39
ATOM     39  O19 5EF d   1      23.693   8.764  13.028  0.00  0.00    -0.400 OA
ATOM     40  H1  5EF d   1      23.678   9.421  12.342  0.00  0.00     0.209 HD
ENDBRANCH  36  39
ENDBRANCH  33  36
ENDBRANCH  30  33
ENDBRANCH   6  30
BRANCH   3  41
ATOM     41  S1  5EF d   1      23.541   2.703  10.328  0.00  0.00     0.263 S 
ATOM     42  O3  5EF d   1      24.672   1.782   9.991  0.00  0.00    -0.201 OA
ATOM     43  O2  5EF d   1      23.113   3.427   9.057  0.00  0.00    -0.201 OA
BRANCH  41  44
ATOM     44  N4  5EF d   1      22.267   1.803  10.865  0.00  0.00    -0.324 N 
ATOM     45  H6  5EF d   1      21.881   1.087  10.284  0.00  0.00     0.169 HD
ATOM     46  H7  5EF d   1      21.881   1.974  11.772  0.00  0.00     0.169 HD
ENDBRANCH  41  44
ENDBRANCH   3  41
TORSDOF 8
