REMARK  8 active torsions:
REMARK  status: ('A' for Active; 'I' for Inactive)
REMARK    1  A    between atoms: C3_1  and  S2_20 
REMARK    2  A    between atoms: C8_3  and  S9_24 
REMARK    3  A    between atoms: C11_5  and  C12_6 
REMARK    4  A    between atoms: S9_24  and  C11_5 
REMARK    5  A    between atoms: C12_6  and  O13_26 
REMARK    6  A    between atoms: N16_30  and  C15_7 
REMARK    7  A    between atoms: C17_8  and  N16_30 
REMARK    8  A    between atoms: S2_20  and  N29_22 
ROOT
ATOM      1  C3  6Z9 d   1      24.121   3.775  11.491  0.00  0.00     0.161 A 
ATOM      2  C4  6Z9 d   1      23.552   3.931  12.747  0.00  0.00     0.182 A 
ATOM      3  C8  6Z9 d   1      25.075   5.756  13.333  0.00  0.00     0.130 A 
ATOM      4  C6  6Z9 d   1      24.000   4.892  13.648  0.00  0.00     0.180 A 
ATOM      5  C15 6Z9 d   1      25.689   5.559  12.108  0.00  0.00     0.094 A 
ATOM      6  C27 6Z9 d   1      25.191   4.609  11.224  0.00  0.00     0.170 A 
ATOM      7  F28 6Z9 d   1      25.821   4.421  10.064  0.00  0.00    -0.202 F 
ATOM      8  F7  6Z9 d   1      23.412   5.028  14.874  0.00  0.00    -0.201 F 
ATOM      9  F5  6Z9 d   1      22.498   3.196  13.159  0.00  0.00    -0.201 F 
ENDROOT
BRANCH   5  10
ATOM     10  N16 6Z9 d   1      26.752   6.389  11.666  0.00  0.00    -0.377 N 
ATOM     11  H19 6Z9 d   1      27.650   6.373  12.171  0.00  0.00     0.160 HD
BRANCH  10  12
ATOM     12  C17 6Z9 d   1      26.594   7.276  10.495  0.00  0.00     0.036 C 
ATOM     13  C18 6Z9 d   1      25.602   8.440  10.686  0.00  0.00    -0.042 C 
ATOM     14  C19 6Z9 d   1      26.299   9.686  11.206  0.00  0.00    -0.059 C 
ATOM     15  H6  6Z9 d   1      24.829   8.136  11.407  0.00  0.00     0.036 H 
ATOM     16  H7  6Z9 d   1      25.131   8.671   9.719  0.00  0.00     0.036 H 
ATOM     17  C20 6Z9 d   1      27.392  10.107  10.217  0.00  0.00    -0.040 C 
ATOM     18  H8  6Z9 d   1      26.753   9.472  12.185  0.00  0.00     0.033 H 
ATOM     19  H9  6Z9 d   1      25.566  10.500  11.312  0.00  0.00     0.033 H 
ATOM     20  C21 6Z9 d   1      28.371   8.994   9.964  0.00  0.00    -0.050 A 
ATOM     21  H10 6Z9 d   1      27.933  10.971  10.630  0.00  0.00     0.040 H 
ATOM     22  H11 6Z9 d   1      26.921  10.391   9.264  0.00  0.00     0.040 H 
ATOM     23  C22 6Z9 d   1      27.979   7.644  10.071  0.00  0.00    -0.029 A 
ATOM     24  C26 6Z9 d   1      29.691   9.288   9.607  0.00  0.00    -0.076 A 
ATOM     25  C23 6Z9 d   1      28.879   6.607   9.829  0.00  0.00    -0.074 A 
ATOM     26  C24 6Z9 d   1      30.192   6.911   9.459  0.00  0.00    -0.082 A 
ATOM     27  H12 6Z9 d   1      28.563   5.575   9.927  0.00  0.00     0.084 H 
ATOM     28  C25 6Z9 d   1      30.589   8.248   9.354  0.00  0.00    -0.082 A 
ATOM     29  H13 6Z9 d   1      30.899   6.115   9.255  0.00  0.00     0.083 H 
ATOM     30  H14 6Z9 d   1      31.609   8.481   9.072  0.00  0.00     0.083 H 
ATOM     31  H15 6Z9 d   1      30.016  10.319   9.527  0.00  0.00     0.084 H 
ATOM     32  H5  6Z9 d   1      26.166   6.667   9.685  0.00  0.00     0.080 H 
ENDBRANCH  10  12
ENDBRANCH   5  10
BRANCH   3  33
ATOM     33  S9  6Z9 d   1      25.516   6.989  14.584  0.00  0.00     0.182 S 
ATOM     34  O14 6Z9 d   1      26.754   7.880  14.279  0.00  0.00    -0.222 OA
ATOM     35  O10 6Z9 d   1      24.519   8.192  14.565  0.00  0.00    -0.222 OA
BRANCH  33  36
ATOM     36  C11 6Z9 d   1      25.719   6.322  16.224  0.00  0.00     0.053 C 
ATOM     37  H1  6Z9 d   1      26.028   7.116  16.920  0.00  0.00     0.059 H 
ATOM     38  H2  6Z9 d   1      24.775   5.877  16.571  0.00  0.00     0.059 H 
BRANCH  36  39
ATOM     39  C12 6Z9 d   1      26.796   5.258  16.136  0.00  0.00     0.029 C 
ATOM     40  H3  6Z9 d   1      27.345   5.217  17.088  0.00  0.00     0.075 H 
ATOM     41  H4  6Z9 d   1      27.491   5.512  15.322  0.00  0.00     0.075 H 
BRANCH  39  42
ATOM     42  O13 6Z9 d   1      26.234   4.033  15.885  0.00  0.00    -0.400 OA
ATOM     43  H18 6Z9 d   1      26.919   3.377  15.832  0.00  0.00     0.209 HD
ENDBRANCH  39  42
ENDBRANCH  36  39
ENDBRANCH  33  36
ENDBRANCH   3  33
BRANCH   1  44
ATOM     44  S2  6Z9 d   1      23.599   2.549  10.275  0.00  0.00     0.263 S 
ATOM     45  O30 6Z9 d   1      24.730   1.681   9.950  0.00  0.00    -0.201 OA
ATOM     46  O1  6Z9 d   1      23.064   3.234   9.067  0.00  0.00    -0.201 OA
BRANCH  44  47
ATOM     47  N29 6Z9 d   1      22.366   1.677  10.911  0.00  0.00    -0.324 N 
ATOM     48  H16 6Z9 d   1      21.944   0.945  10.377  0.00  0.00     0.169 HD
ATOM     49  H17 6Z9 d   1      22.036   1.877  11.833  0.00  0.00     0.169 HD
ENDBRANCH  44  47
ENDBRANCH   1  44
TORSDOF 8
