REMARK  13 active torsions:
REMARK  status: ('A' for Active; 'I' for Inactive)
REMARK    1  A    between atoms: C1_2  and  O1_3 
REMARK    2  A    between atoms: C2_4  and  N2_5 
REMARK       I    between atoms: N2_5  and  C7_13 
REMARK    3  A    between atoms: C3_6  and  O3_7 
REMARK    4  A    between atoms: O3_7  and  C1_16 
REMARK    5  A    between atoms: C4_8  and  O4_9 
REMARK    6  A    between atoms: C5_10  and  C6_11 
REMARK    7  A    between atoms: C6_11  and  O6_12 
REMARK    8  A    between atoms: C7_13  and  C8_15 
REMARK    9  A    between atoms: C2_17  and  O2_22 
REMARK   10  A    between atoms: C3_18  and  O3_23 
REMARK   11  A    between atoms: C4_19  and  O4_24 
REMARK   12  A    between atoms: C5_20  and  C6_21 
REMARK   13  A    between atoms: C6_21  and  O6_26 
ROOT
ATOM      1  O   A2G d   1     -17.205 -17.254  38.073  0.00  0.00    -0.349 OA
ATOM      2  C1  A2G d   1     -16.291 -17.850  38.997  0.00  0.00     0.151 C 
ATOM      3  C2  A2G d   1     -15.490 -18.998  38.355  0.00  0.00     0.087 C 
ATOM      4  C3  A2G d   1     -14.723 -18.520  37.094  0.00  0.00     0.093 C 
ATOM      5  C4  A2G d   1     -15.703 -17.802  36.193  0.00  0.00     0.089 C 
ATOM      6  C5  A2G d   1     -16.517 -16.721  36.912  0.00  0.00     0.089 C 
ATOM      7  H1  A2G d   1     -16.835 -18.220  39.879  0.00  0.00     0.132 H 
ATOM      8  H3  A2G d   1     -16.195 -19.794  38.074  0.00  0.00     0.084 H 
ATOM      9  H5  A2G d   1     -13.946 -17.809  37.412  0.00  0.00     0.091 H 
ATOM     10  H6  A2G d   1     -15.142 -17.312  35.384  0.00  0.00     0.091 H 
ATOM     11  H8  A2G d   1     -15.811 -15.956  37.268  0.00  0.00     0.090 H 
ENDROOT
BRANCH   4  12
ATOM     12  O3  A2G d   1     -14.060 -19.613  36.362  0.00  0.00    -0.348 OA
BRANCH  12  13
ATOM     13  C1  GAL d   1     -12.738 -19.676  36.210  0.00  0.00     0.159 C 
ATOM     14  C2  GAL d   1     -12.258 -21.100  35.877  0.00  0.00     0.110 C 
ATOM     15  C3  GAL d   1     -10.759 -21.121  35.749  0.00  0.00     0.092 C 
ATOM     16  H16 A2G d   1     -12.715 -21.455  34.941  0.00  0.00     0.094 H 
ATOM     17  C4  GAL d   1     -10.218 -20.038  34.817  0.00  0.00     0.090 C 
ATOM     18  H17 A2G d   1     -10.323 -20.947  36.744  0.00  0.00     0.091 H 
ATOM     19  C5  GAL d   1     -10.652 -18.664  35.373  0.00  0.00     0.089 C 
ATOM     20  H18 A2G d   1      -9.119 -20.090  34.797  0.00  0.00     0.091 H 
ATOM     21  O5  GAL d   1     -12.073 -18.602  35.488  0.00  0.00    -0.348 OA
ATOM     22  H19 A2G d   1     -10.202 -18.535  36.368  0.00  0.00     0.090 H 
ATOM     23  H15 A2G d   1     -12.371 -19.522  37.236  0.00  0.00     0.133 H 
BRANCH  14  24
ATOM     24  O2  GAL d   1     -12.681 -21.916  36.991  0.00  0.00    -0.388 OA
ATOM     25  H22 A2G d   1     -12.395 -22.811  36.853  0.00  0.00     0.210 HD
ENDBRANCH  14  24
BRANCH  15  26
ATOM     26  O3  GAL d   1     -10.405 -22.411  35.323  0.00  0.00    -0.390 OA
ATOM     27  H23 A2G d   1      -9.458 -22.487  35.299  0.00  0.00     0.210 HD
ENDBRANCH  15  26
BRANCH  17  28
ATOM     28  O4  GAL d   1     -10.713 -20.235  33.485  0.00  0.00    -0.390 OA
ATOM     29  H24 A2G d   1     -10.371 -19.555  32.917  0.00  0.00     0.210 HD
ENDBRANCH  17  28
BRANCH  19  30
ATOM     30  C6  GAL d   1     -10.199 -17.498  34.465  0.00  0.00     0.043 C 
ATOM     31  H20 A2G d   1      -9.137 -17.635  34.211  0.00  0.00     0.078 H 
ATOM     32  H21 A2G d   1     -10.327 -16.551  35.009  0.00  0.00     0.078 H 
BRANCH  30  33
ATOM     33  O6  GAL d   1     -10.953 -17.447  33.273  0.00  0.00    -0.398 OA
ATOM     34  H25 A2G d   1     -10.843 -18.261  32.795  0.00  0.00     0.209 HD
ENDBRANCH  30  33
ENDBRANCH  19  30
ENDBRANCH  12  13
ENDBRANCH   4  12
BRANCH   3  35
ATOM     35  N2  A2G d   1     -14.497 -19.538  39.251  0.00  0.00    -0.349 N 
ATOM     36  C7  A2G d   1     -14.490 -20.781  39.696  0.00  0.00     0.214 C 
ATOM     37  O7  A2G d   1     -15.351 -21.574  39.323  0.00  0.00    -0.274 OA
ATOM     38  H4  A2G d   1     -13.764 -18.930  39.556  0.00  0.00     0.163 HD
BRANCH  36  39
ATOM     39  C8  A2G d   1     -13.343 -21.110  40.637  0.00  0.00    -0.003 C 
ATOM     40  H12 A2G d   1     -13.419 -22.160  40.954  0.00  0.00     0.040 H 
ATOM     41  H13 A2G d   1     -13.394 -20.456  41.520  0.00  0.00     0.040 H 
ATOM     42  H14 A2G d   1     -12.386 -20.952  40.118  0.00  0.00     0.040 H 
ENDBRANCH  36  39
ENDBRANCH   3  35
BRANCH   5  43
ATOM     43  O4  A2G d   1     -16.551 -18.813  35.628  0.00  0.00    -0.390 OA
ATOM     44  H7  A2G d   1     -16.022 -19.428  35.134  0.00  0.00     0.210 HD
ENDBRANCH   5  43
BRANCH   2  45
ATOM     45  O1  A2G d   1     -15.362 -16.841  39.360  0.00  0.00    -0.369 OA
ATOM     46  H2  A2G d   1     -15.825 -16.116  39.762  0.00  0.00     0.212 HD
ENDBRANCH   2  45
BRANCH   6  47
ATOM     47  C6  A2G d   1     -17.495 -16.038  35.956  0.00  0.00     0.043 C 
ATOM     48  H9  A2G d   1     -18.320 -16.720  35.703  0.00  0.00     0.078 H 
ATOM     49  H10 A2G d   1     -16.977 -15.732  35.035  0.00  0.00     0.078 H 
BRANCH  47  50
ATOM     50  O6  A2G d   1     -17.997 -14.885  36.652  0.00  0.00    -0.398 OA
ATOM     51  H11 A2G d   1     -18.434 -15.163  37.448  0.00  0.00     0.209 HD
ENDBRANCH  47  50
ENDBRANCH   6  47
TORSDOF 13
