REMARK  6 active torsions:
REMARK  status: ('A' for Active; 'I' for Inactive)
REMARK       I    between atoms: C1_1  and  N2_19 
REMARK    1  A    between atoms: C4_21  and  C1_1 
REMARK    2  A    between atoms: C7_2  and  O8_24 
REMARK    3  A    between atoms: C14_6  and  C11_5 
REMARK       I    between atoms: N30_34  and  C14_6 
REMARK    4  A    between atoms: N2_19  and  C16_7 
REMARK    5  A    between atoms: N2_19  and  C22_11 
REMARK    6  A    between atoms: C18_29  and  N23_12 
ROOT
ATOM      1  C7  70K d   1      -1.831  11.503  25.017  0.00  0.00     0.083 A 
ATOM      2  C9  70K d   1      -0.552  12.436  23.194  0.00  0.00     0.065 A 
ATOM      3  C10 70K d   1       0.641  12.115  23.911  0.00  0.00     0.029 A 
ATOM      4  C11 70K d   1       1.711  12.567  23.014  0.00  0.00     0.157 A 
ATOM      5  C4  70K d   1      -0.657  11.251  25.773  0.00  0.00     0.066 A 
ATOM      6  C5  70K d   1       0.599  11.548  25.184  0.00  0.00    -0.050 A 
ATOM      7  C6  70K d   1      -1.786  12.114  23.767  0.00  0.00    -0.022 A 
ATOM      8  N12 70K d   1       1.133  13.029  21.916  0.00  0.00    -0.168 NA
ATOM      9  N13 70K d   1      -0.153  12.989  21.991  0.00  0.00    -0.277 N 
ATOM     10  H19 70K d   1       1.518  11.336  25.719  0.00  0.00     0.086 H 
ATOM     11  H20 70K d   1      -2.705  12.340  23.239  0.00  0.00     0.091 H 
ATOM     12  H22 70K d   1      -0.794  13.322  21.257  0.00  0.00     0.189 HD
ENDROOT
BRANCH   5  13
ATOM     13  C1  70K d   1      -0.785  10.530  27.076  0.00  0.00     0.260 C 
ATOM     14  N2  70K d   1      -0.215   9.290  27.280  0.00  0.00    -0.318 N 
ATOM     15  O3  70K d   1      -1.510  11.040  27.928  0.00  0.00    -0.267 OA
BRANCH  14  16
ATOM     16  C16 70K d   1       0.578   8.633  26.308  0.00  0.00     0.037 A 
ATOM     17  C21 70K d   1       0.026   8.146  25.107  0.00  0.00    -0.055 A 
ATOM     18  C19 70K d   1       0.809   7.499  24.153  0.00  0.00    -0.055 A 
ATOM     19  H3  70K d   1      -1.034   8.278  24.920  0.00  0.00     0.087 H 
ATOM     20  C18 70K d   1       2.201   7.367  24.394  0.00  0.00     0.030 A 
ATOM     21  H1  70K d   1       0.364   7.105  23.246  0.00  0.00     0.087 H 
ATOM     22  C20 70K d   1       2.739   7.885  25.585  0.00  0.00    -0.055 A 
ATOM     23  C17 70K d   1       1.960   8.506  26.545  0.00  0.00    -0.055 A 
ATOM     24  H2  70K d   1       3.805   7.794  25.758  0.00  0.00     0.087 H 
ATOM     25  H23 70K d   1       2.403   8.886  27.458  0.00  0.00     0.087 H 
BRANCH  20  26
ATOM     26  N23 70K d   1       3.084   6.729  23.479  0.00  0.00    -0.377 N 
ATOM     27  C24 70K d   1       2.492   6.171  22.229  0.00  0.00     0.015 C 
ATOM     28  C25 70K d   1       3.593   5.684  21.264  0.00  0.00     0.034 C 
ATOM     29  H7  70K d   1       1.899   6.953  21.732  0.00  0.00     0.067 H 
ATOM     30  H8  70K d   1       1.840   5.324  22.487  0.00  0.00     0.067 H 
ATOM     31  O26 70K d   1       4.445   4.805  22.013  0.00  0.00    -0.388 OA
ATOM     32  H24 70K d   1       4.171   6.540  20.887  0.00  0.00     0.076 H 
ATOM     33  H25 70K d   1       3.143   5.144  20.418  0.00  0.00     0.076 H 
ATOM     34  C27 70K d   1       5.171   5.460  23.067  0.00  0.00     0.034 C 
ATOM     35  C28 70K d   1       4.147   5.904  24.125  0.00  0.00     0.015 C 
ATOM     36  H9  70K d   1       5.703   6.336  22.668  0.00  0.00     0.076 H 
ATOM     37  H10 70K d   1       5.895   4.763  23.514  0.00  0.00     0.076 H 
ATOM     38  H26 70K d   1       3.691   5.016  24.588  0.00  0.00     0.067 H 
ATOM     39  H27 70K d   1       4.654   6.500  24.898  0.00  0.00     0.067 H 
ENDBRANCH  20  26
ENDBRANCH  14  16
BRANCH  14  40
ATOM     40  C22 70K d   1      -0.372   8.544  28.542  0.00  0.00    -0.011 C 
ATOM     41  H4  70K d   1      -0.999   9.124  29.235  0.00  0.00     0.057 H 
ATOM     42  H5  70K d   1       0.617   8.376  28.994  0.00  0.00     0.057 H 
ATOM     43  H6  70K d   1      -0.851   7.575  28.338  0.00  0.00     0.057 H 
ENDBRANCH  14  40
ENDBRANCH   5  13
BRANCH   1  44
ATOM     44  O8  70K d   1      -3.036  11.199  25.554  0.00  0.00    -0.360 OA
ATOM     45  H21 70K d   1      -2.909  10.790  26.402  0.00  0.00     0.217 HD
ENDBRANCH   1  44
BRANCH   4  46
ATOM     46  C14 70K d   1       3.156  12.381  23.268  0.00  0.00     0.275 C 
ATOM     47  O15 70K d   1       3.629  11.375  22.758  0.00  0.00    -0.266 OA
ATOM     48  N30 70K d   1       3.922  13.203  24.045  0.00  0.00    -0.347 N 
ATOM     49  C31 70K d   1       5.381  12.894  24.164  0.00  0.00    -0.002 C 
ATOM     50  C29 70K d   1       3.351  14.457  24.611  0.00  0.00    -0.002 C 
ATOM     51  C32 70K d   1       6.042  13.486  25.418  0.00  0.00    -0.050 C 
ATOM     52  H11 70K d   1       5.503  11.801  24.192  0.00  0.00     0.064 H 
ATOM     53  H12 70K d   1       5.894  13.298  23.279  0.00  0.00     0.064 H 
ATOM     54  C33 70K d   1       5.693  14.980  25.494  0.00  0.00    -0.062 C 
ATOM     55  H13 70K d   1       7.133  13.363  25.355  0.00  0.00     0.035 H 
ATOM     56  H14 70K d   1       5.665  12.971  26.314  0.00  0.00     0.035 H 
ATOM     57  C34 70K d   1       4.176  15.135  25.721  0.00  0.00    -0.050 C 
ATOM     58  H15 70K d   1       5.976  15.472  24.552  0.00  0.00     0.033 H 
ATOM     59  H16 70K d   1       6.239  15.444  26.329  0.00  0.00     0.033 H 
ATOM     60  H17 70K d   1       3.928  16.206  25.742  0.00  0.00     0.035 H 
ATOM     61  H18 70K d   1       3.913  14.679  26.687  0.00  0.00     0.035 H 
ATOM     62  H28 70K d   1       3.239  15.177  23.787  0.00  0.00     0.064 H 
ATOM     63  H29 70K d   1       2.361  14.218  25.026  0.00  0.00     0.064 H 
ENDBRANCH   4  46
TORSDOF 6
