REMARK  11 active torsions:
REMARK  status: ('A' for Active; 'I' for Inactive)
REMARK    1  A    between atoms: OAB_1  and  CAF_2 
REMARK    2  A    between atoms: CAG_3  and  OAC_4 
REMARK    3  A    between atoms: CAH_5  and  OAI_6 
REMARK    4  A    between atoms: CAM_9  and  OAQ_10 
REMARK    5  A    between atoms: CAM_9  and  CAL_11 
REMARK    6  A    between atoms: CAL_11  and  N_12 
REMARK    7  A    between atoms: N_12  and  CA_13 
REMARK    8  A    between atoms: CA_13  and  C_14 
REMARK    9  A    between atoms: CA_13  and  CB_16 
REMARK   10  A    between atoms: CB_16  and  CG_17 
REMARK   11  A    between atoms: CG_17  and  CD_18 
REMARK       I    between atoms: CD_18  and  NE2_20 
ROOT
ATOM      1  CAL SNW d   1      41.515 -66.572  32.155  0.00  0.00     0.136 C 
ATOM      2  H10 SNW d   1      42.114 -66.039  31.402  0.00  0.00     0.084 H 
ATOM      3  H11 SNW d   1      40.497 -66.731  31.769  0.00  0.00     0.084 H 
ENDROOT
BRANCH   1   4
ATOM      4  CAM SNW d   1      41.439 -65.722  33.424  0.00  0.00     0.215 C 
ATOM      5  CAF SNW d   1      40.878 -64.332  33.114  0.00  0.00     0.118 C 
ATOM      6  CAG SNW d   1      40.974 -63.476  34.292  0.00  0.00     0.092 C 
ATOM      7  H2  SNW d   1      41.531 -63.891  32.347  0.00  0.00     0.095 H 
ATOM      8  CAH SNW d   1      42.298 -63.421  34.877  0.00  0.00     0.083 C 
ATOM      9  H3  SNW d   1      40.279 -63.853  35.057  0.00  0.00     0.091 H 
ATOM     10  CAO SNW d   1      42.841 -64.839  35.132  0.00  0.00     0.049 C 
ATOM     11  H5  SNW d   1      42.219 -62.898  35.842  0.00  0.00     0.090 H 
ATOM     12  OAN SNW d   1      42.771 -65.630  33.942  0.00  0.00    -0.349 OA
ATOM     13  H7  SNW d   1      42.242 -65.319  35.920  0.00  0.00     0.078 H 
ATOM     14  H8  SNW d   1      43.889 -64.771  35.459  0.00  0.00     0.078 H 
BRANCH   5  15
ATOM     15  OAB SNW d   1      39.553 -64.362  32.544  0.00  0.00    -0.387 OA
ATOM     16  H1  SNW d   1      38.939 -64.690  33.190  0.00  0.00     0.210 HD
ENDBRANCH   5  15
BRANCH   6  17
ATOM     17  OAC SNW d   1      40.550 -62.103  33.866  0.00  0.00    -0.390 OA
ATOM     18  H4  SNW d   1      39.657 -62.134  33.543  0.00  0.00     0.210 HD
ENDBRANCH   6  17
BRANCH   8  19
ATOM     19  OAI SNW d   1      43.231 -62.701  34.050  0.00  0.00    -0.391 OA
ATOM     20  H6  SNW d   1      44.083 -62.690  34.471  0.00  0.00     0.210 HD
ENDBRANCH   8  19
BRANCH   4  21
ATOM     21  OAQ SNW d   1      40.589 -66.278  34.342  0.00  0.00    -0.362 OA
ATOM     22  H9  SNW d   1      40.890 -67.151  34.562  0.00  0.00     0.213 HD
ENDBRANCH   4  21
ENDBRANCH   1   4
BRANCH   1  23
ATOM     23  N   SNW d   1      42.139 -67.886  32.425  0.00  0.00    -0.056 N 
ATOM     24  H12 SNW d   1      41.689 -68.304  33.225  0.00  0.00     0.278 HD
ATOM     25  H13 SNW d   1      43.118 -67.749  32.623  0.00  0.00     0.278 HD
BRANCH  23  26
ATOM     26  CA  SNW d   1      42.007 -68.795  31.273  0.00  0.00     0.185 C 
ATOM     27  H14 SNW d   1      42.026 -68.215  30.338  0.00  0.00     0.101 H 
BRANCH  26  28
ATOM     28  C   SNW d   1      40.711 -69.557  31.398  0.00  0.00     0.204 C 
ATOM     29  O   SNW d   1      40.330 -70.336  30.469  0.00  0.00    -0.646 OA
ATOM     30  OXT SNW d   1      40.038 -69.420  32.444  0.00  0.00    -0.646 OA
ENDBRANCH  26  28
BRANCH  26  31
ATOM     31  CB  SNW d   1      43.128 -69.835  31.270  0.00  0.00    -0.021 C 
ATOM     32  H15 SNW d   1      44.063 -69.329  30.990  0.00  0.00     0.037 H 
ATOM     33  H16 SNW d   1      42.884 -70.598  30.516  0.00  0.00     0.037 H 
BRANCH  31  34
ATOM     34  CG  SNW d   1      43.350 -70.534  32.591  0.00  0.00     0.011 C 
ATOM     35  H17 SNW d   1      42.412 -71.041  32.862  0.00  0.00     0.047 H 
ATOM     36  H18 SNW d   1      43.581 -69.764  33.342  0.00  0.00     0.047 H 
BRANCH  34  37
ATOM     37  CD  SNW d   1      44.448 -71.555  32.635  0.00  0.00     0.215 C 
ATOM     38  OE1 SNW d   1      44.904 -72.002  31.603  0.00  0.00    -0.274 OA
ATOM     39  NE2 SNW d   1      44.956 -72.014  33.877  0.00  0.00    -0.370 N 
ATOM     40  H19 SNW d   1      45.688 -72.695  33.897  0.00  0.00     0.159 HD
ATOM     41  H20 SNW d   1      44.582 -71.657  34.733  0.00  0.00     0.159 HD
ENDBRANCH  34  37
ENDBRANCH  31  34
ENDBRANCH  26  31
ENDBRANCH  23  26
ENDBRANCH   1  23
TORSDOF 11
