REMARK  9 active torsions:
REMARK  status: ('A' for Active; 'I' for Inactive)
REMARK    1  A    between atoms: C01_1  and  C04_2 
REMARK    2  A    between atoms: C04_2  and  C36_3 
REMARK    3  A    between atoms: C12_7  and  C11_31 
REMARK    4  A    between atoms: C19_10  and  C34_30 
REMARK    5  A    between atoms: C17_16  and  C33_29 
REMARK    6  A    between atoms: C23_18  and  C05_19 
REMARK    7  A    between atoms: C23_18  and  C06_20 
REMARK    8  A    between atoms: C24_21  and  O01_22 
REMARK    9  A    between atoms: C22_27  and  C35_28 
ROOT
ATOM      1  C01 QZQ d   1      19.050  19.765  17.823  0.00  0.00    -0.028 C 
ATOM      2  C07 QZQ d   1      18.803  19.120  19.191  0.00  0.00    -0.057 C 
ATOM      3  C02 QZQ d   1      19.825  17.980  19.117  0.00  0.00    -0.048 C 
ATOM      4  C12 QZQ d   1      19.398  17.282  17.842  0.00  0.00     0.053 C 
ATOM      5  C2  QZQ d   1      20.420  16.481  17.007  0.00  0.00    -0.047 C 
ATOM      6  C3  QZQ d   1      19.765  15.931  15.721  0.00  0.00    -0.056 C 
ATOM      7  C19 QZQ d   1      18.982  16.959  14.876  0.00  0.00    -0.032 C 
ATOM      8  C20 QZQ d   1      18.294  17.942  15.851  0.00  0.00    -0.041 C 
ATOM      9  C21 QZQ d   1      19.168  18.499  16.982  0.00  0.00    -0.026 C 
ATOM     10  C15 QZQ d   1      17.339  18.877  15.183  0.00  0.00    -0.060 C 
ATOM     11  C13 QZQ d   1      16.217  18.226  14.407  0.00  0.00    -0.060 C 
ATOM     12  C14 QZQ d   1      16.935  17.486  13.302  0.00  0.00    -0.039 C 
ATOM     13  C17 QZQ d   1      16.137  17.315  11.957  0.00  0.00    -0.035 C 
ATOM     14  C18 QZQ d   1      17.097  16.862  10.845  0.00  0.00    -0.038 C 
ATOM     15  C23 QZQ d   1      17.740  17.890   9.854  0.00  0.00    -0.017 C 
ATOM     16  C24 QZQ d   1      17.433  19.385  10.071  0.00  0.00     0.042 C 
ATOM     17  C26 QZQ d   1      16.366  19.748  11.078  0.00  0.00    -0.040 C 
ATOM     18  C25 QZQ d   1      15.477  18.605  11.491  0.00  0.00    -0.055 C 
ATOM     19  C28 QZQ d   1      18.008  15.739  11.298  0.00  0.00    -0.059 C 
ATOM     20  C27 QZQ d   1      18.484  15.615  12.745  0.00  0.00    -0.057 C 
ATOM     21  C22 QZQ d   1      17.838  16.358  13.899  0.00  0.00    -0.032 C 
ATOM     22  H1  QZQ d   1      18.227  20.414  17.489  0.00  0.00     0.047 H 
ATOM     23  H7  QZQ d   1      17.774  18.744  19.288  0.00  0.00     0.034 H 
ATOM     24  H8  QZQ d   1      19.020  19.813  20.017  0.00  0.00     0.034 H 
ATOM     25  H9  QZQ d   1      19.747  17.312  19.987  0.00  0.00     0.035 H 
ATOM     26  H10 QZQ d   1      20.853  18.365  19.041  0.00  0.00     0.035 H 
ATOM     27  H11 QZQ d   1      20.797  15.640  17.608  0.00  0.00     0.035 H 
ATOM     28  H12 QZQ d   1      21.257  17.140  16.732  0.00  0.00     0.035 H 
ATOM     29  H13 QZQ d   1      19.068  15.132  16.012  0.00  0.00     0.034 H 
ATOM     30  H14 QZQ d   1      20.561  15.511  15.089  0.00  0.00     0.034 H 
ATOM     31  H15 QZQ d   1      17.613  17.281  16.407  0.00  0.00     0.042 H 
ATOM     32  H16 QZQ d   1      20.119  18.692  16.463  0.00  0.00     0.043 H 
ATOM     33  H17 QZQ d   1      17.913  19.504  14.485  0.00  0.00     0.033 H 
ATOM     34  H18 QZQ d   1      16.888  19.512  15.960  0.00  0.00     0.033 H 
ATOM     35  H19 QZQ d   1      15.534  18.983  13.994  0.00  0.00     0.033 H 
ATOM     36  H20 QZQ d   1      15.651  17.530  15.043  0.00  0.00     0.033 H 
ATOM     37  H21 QZQ d   1      17.693  18.216  12.983  0.00  0.00     0.042 H 
ATOM     38  H22 QZQ d   1      16.404  16.340  10.168  0.00  0.00     0.042 H 
ATOM     39  H29 QZQ d   1      18.372  19.795  10.472  0.00  0.00     0.084 H 
ATOM     40  H31 QZQ d   1      15.733  20.533  10.639  0.00  0.00     0.036 H 
ATOM     41  H32 QZQ d   1      16.863  20.138  11.978  0.00  0.00     0.036 H 
ATOM     42  H33 QZQ d   1      14.845  18.965  12.316  0.00  0.00     0.034 H 
ATOM     43  H34 QZQ d   1      14.845  18.355  10.627  0.00  0.00     0.034 H 
ATOM     44  H35 QZQ d   1      18.916  15.811  10.681  0.00  0.00     0.033 H 
ATOM     45  H36 QZQ d   1      17.480  14.802  11.066  0.00  0.00     0.033 H 
ATOM     46  H37 QZQ d   1      19.541  15.921  12.743  0.00  0.00     0.034 H 
ATOM     47  H38 QZQ d   1      18.412  14.546  12.996  0.00  0.00     0.034 H 
ENDROOT
BRANCH   1  48
ATOM     48  C04 QZQ d   1      20.341  20.544  17.907  0.00  0.00    -0.088 C 
ATOM     49  C37 QZQ d   1      20.742  21.177  19.017  0.00  0.00    -0.119 C 
ATOM     50  H5  QZQ d   1      20.199  21.037  19.950  0.00  0.00     0.067 H 
ATOM     51  H6  QZQ d   1      21.611  21.832  18.986  0.00  0.00     0.067 H 
BRANCH  48  52
ATOM     52  C36 QZQ d   1      21.106  20.761  16.659  0.00  0.00    -0.055 C 
ATOM     53  H2  QZQ d   1      22.014  21.340  16.882  0.00  0.00     0.033 H 
ATOM     54  H3  QZQ d   1      20.485  21.315  15.940  0.00  0.00     0.033 H 
ATOM     55  H4  QZQ d   1      21.387  19.789  16.228  0.00  0.00     0.033 H 
ENDBRANCH  48  52
ENDBRANCH   1  48
BRANCH   4  56
ATOM     56  C11 QZQ d   1      18.391  16.350  18.317  0.00  0.00     0.182 C 
ATOM     57  O16 QZQ d   1      18.632  15.698  19.340  0.00  0.00    -0.647 OA
ATOM     58  O1  QZQ d   1      17.358  16.237  17.670  0.00  0.00    -0.647 OA
ENDBRANCH   4  56
BRANCH   7  59
ATOM     59  C34 QZQ d   1      20.103  17.645  14.108  0.00  0.00    -0.068 C 
ATOM     60  H45 QZQ d   1      20.849  18.033  14.817  0.00  0.00     0.028 H 
ATOM     61  H46 QZQ d   1      19.689  18.477  13.520  0.00  0.00     0.028 H 
ATOM     62  H47 QZQ d   1      20.581  16.921  13.432  0.00  0.00     0.028 H 
ENDBRANCH   7  59
BRANCH  21  63
ATOM     63  C35 QZQ d   1      17.020  15.319  14.689  0.00  0.00    -0.068 C 
ATOM     64  H39 QZQ d   1      16.529  15.810  15.542  0.00  0.00     0.028 H 
ATOM     65  H40 QZQ d   1      17.690  14.528  15.058  0.00  0.00     0.028 H 
ATOM     66  H41 QZQ d   1      16.257  14.876  14.032  0.00  0.00     0.028 H 
ENDBRANCH  21  63
BRANCH  13  67
ATOM     67  C33 QZQ d   1      14.947  16.348  12.063  0.00  0.00    -0.068 C 
ATOM     68  H42 QZQ d   1      15.304  15.363  12.398  0.00  0.00     0.028 H 
ATOM     69  H43 QZQ d   1      14.466  16.249  11.079  0.00  0.00     0.028 H 
ATOM     70  H44 QZQ d   1      14.219  16.740  12.789  0.00  0.00     0.028 H 
ENDBRANCH  13  67
BRANCH  15  71
ATOM     71  C05 QZQ d   1      17.163  17.449   8.528  0.00  0.00    -0.067 C 
ATOM     72  H23 QZQ d   1      17.542  18.102   7.728  0.00  0.00     0.028 H 
ATOM     73  H24 QZQ d   1      16.066  17.515   8.566  0.00  0.00     0.028 H 
ATOM     74  H25 QZQ d   1      17.462  16.410   8.326  0.00  0.00     0.028 H 
ENDBRANCH  15  71
BRANCH  15  75
ATOM     75  C06 QZQ d   1      19.246  17.706   9.653  0.00  0.00    -0.067 C 
ATOM     76  H26 QZQ d   1      19.777  18.001  10.570  0.00  0.00     0.028 H 
ATOM     77  H27 QZQ d   1      19.584  18.334   8.815  0.00  0.00     0.028 H 
ATOM     78  H28 QZQ d   1      19.460  16.650   9.429  0.00  0.00     0.028 H 
ENDBRANCH  15  75
BRANCH  16  79
ATOM     79  O01 QZQ d   1      17.148  20.126   8.890  0.00  0.00    -0.395 OA
ATOM     80  H30 QZQ d   1      16.972  21.031   9.120  0.00  0.00     0.210 HD
ENDBRANCH  16  79
TORSDOF 9
