REMARK  29 active torsions:
REMARK  status: ('A' for Active; 'I' for Inactive)
REMARK    1  A    between atoms: O20_1  and  C23_2 
REMARK    2  A    between atoms: C6_3  and  O5_4 
REMARK    3  A    between atoms: O5_4  and  C5_5 
REMARK    4  A    between atoms: C4_6  and  O4_7 
REMARK    5  A    between atoms: C3_8  and  O3_9 
REMARK    6  A    between atoms: O3_9  and  C29_46 
REMARK    7  A    between atoms: C2_11  and  C1_12 
REMARK    8  A    between atoms: C1_12  and  O1_13 
REMARK    9  A    between atoms: C1_12  and  C_14 
REMARK   10  A    between atoms: C_14  and  O_15 
REMARK   11  A    between atoms: C10_16  and  O9_23 
REMARK   12  A    between atoms: C9_17  and  O8_18 
REMARK   13  A    between atoms: C7_19  and  C8_20 
REMARK   14  A    between atoms: C8_20  and  O7_21 
REMARK   15  A    between atoms: O9_23  and  C11_24 
REMARK   16  A    between atoms: C22_25  and  O19_26 
REMARK   17  A    between atoms: C15_27  and  O13_34 
REMARK   18  A    between atoms: C12_28  and  C13_29 
REMARK   19  A    between atoms: C13_29  and  C14_30 
REMARK   20  A    between atoms: C13_29  and  O11_32 
REMARK   21  A    between atoms: C14_30  and  O12_31 
REMARK   22  A    between atoms: O13_34  and  C16_35 
REMARK   23  A    between atoms: C21_36  and  O18_37 
REMARK   24  A    between atoms: C20_38  and  O17_39 
REMARK   25  A    between atoms: C19_40  and  O16_41 
REMARK   26  A    between atoms: C17_42  and  C18_44 
REMARK   27  A    between atoms: C18_44  and  O15_45 
REMARK   28  A    between atoms: C29_46  and  C30_47 
REMARK   29  A    between atoms: C30_47  and  C31_48 
ROOT
ATOM      1  C23 KTS d   1      -6.110   9.384   6.150  0.00  0.00     0.110 C 
ATOM      2  C6  KTS d   1      -7.602   9.259   5.938  0.00  0.00     0.159 C 
ATOM      3  C10 KTS d   1      -5.583  10.583   5.371  0.00  0.00     0.098 C 
ATOM      4  C9  KTS d   1      -5.972  10.452   3.897  0.00  0.00     0.090 C 
ATOM      5  C7  KTS d   1      -7.464  10.173   3.765  0.00  0.00     0.089 C 
ATOM      6  O6  KTS d   1      -7.842   9.027   4.542  0.00  0.00    -0.348 OA
ATOM      7  H2  KTS d   1      -5.620   8.482   5.755  0.00  0.00     0.094 H 
ATOM      8  H3  KTS d   1      -8.000   8.410   6.514  0.00  0.00     0.133 H 
ATOM      9  H14 KTS d   1      -6.001  11.516   5.778  0.00  0.00     0.091 H 
ATOM     10  H15 KTS d   1      -5.719  11.383   3.368  0.00  0.00     0.091 H 
ATOM     11  H17 KTS d   1      -8.023  11.051   4.121  0.00  0.00     0.090 H 
ENDROOT
BRANCH   3  12
ATOM     12  O9  KTS d   1      -4.170  10.575   5.525  0.00  0.00    -0.348 OA
BRANCH  12  13
ATOM     13  C11 KTS d   1      -3.604  11.874   5.461  0.00  0.00     0.159 C 
ATOM     14  C22 KTS d   1      -2.154  11.850   5.943  0.00  0.00     0.110 C 
ATOM     15  C15 KTS d   1      -1.592  13.001   5.123  0.00  0.00     0.098 C 
ATOM     16  H22 KTS d   1      -1.666  10.894   5.704  0.00  0.00     0.094 H 
ATOM     17  C12 KTS d   1      -2.225  12.701   3.768  0.00  0.00     0.096 C 
ATOM     18  H24 KTS d   1      -1.914  13.975   5.520  0.00  0.00     0.091 H 
ATOM     19  O10 KTS d   1      -3.574  12.358   4.108  0.00  0.00    -0.348 OA
ATOM     20  H25 KTS d   1      -1.713  11.847   3.300  0.00  0.00     0.091 H 
ATOM     21  H21 KTS d   1      -4.197  12.555   6.088  0.00  0.00     0.133 H 
BRANCH  14  22
ATOM     22  O19 KTS d   1      -2.011  12.120   7.348  0.00  0.00    -0.388 OA
ATOM     23  H23 KTS d   1      -2.487  11.465   7.845  0.00  0.00     0.210 HD
ENDBRANCH  14  22
BRANCH  15  24
ATOM     24  O13 KTS d   1      -0.182  12.971   5.036  0.00  0.00    -0.348 OA
BRANCH  24  25
ATOM     25  C16 KTS d   1       0.353  14.286   5.308  0.00  0.00     0.159 C 
ATOM     26  C21 KTS d   1       1.827  14.292   4.948  0.00  0.00     0.110 C 
ATOM     27  C20 KTS d   1       2.595  13.330   5.845  0.00  0.00     0.092 C 
ATOM     28  H32 KTS d   1       2.235  15.307   5.064  0.00  0.00     0.094 H 
ATOM     29  C19 KTS d   1       2.353  13.798   7.267  0.00  0.00     0.090 C 
ATOM     30  H34 KTS d   1       2.233  12.301   5.701  0.00  0.00     0.091 H 
ATOM     31  C17 KTS d   1       0.856  13.750   7.565  0.00  0.00     0.089 C 
ATOM     32  H36 KTS d   1       2.882  13.132   7.964  0.00  0.00     0.091 H 
ATOM     33  O14 KTS d   1       0.148  14.651   6.688  0.00  0.00    -0.348 OA
ATOM     34  H38 KTS d   1       0.481  12.724   7.438  0.00  0.00     0.090 H 
ATOM     35  H31 KTS d   1      -0.169  15.020   4.676  0.00  0.00     0.133 H 
BRANCH  26  36
ATOM     36  O18 KTS d   1       1.948  13.870   3.587  0.00  0.00    -0.388 OA
ATOM     37  H33 KTS d   1       1.590  12.995   3.495  0.00  0.00     0.210 HD
ENDBRANCH  26  36
BRANCH  27  38
ATOM     38  O17 KTS d   1       4.004  13.394   5.590  0.00  0.00    -0.390 OA
ATOM     39  H35 KTS d   1       4.456  12.785   6.162  0.00  0.00     0.210 HD
ENDBRANCH  27  38
BRANCH  29  40
ATOM     40  O16 KTS d   1       2.852  15.142   7.428  0.00  0.00    -0.390 OA
ATOM     41  H37 KTS d   1       3.784  15.156   7.245  0.00  0.00     0.210 HD
ENDBRANCH  29  40
BRANCH  31  42
ATOM     42  C18 KTS d   1       0.623  14.230   8.995  0.00  0.00     0.043 C 
ATOM     43  H39 KTS d   1       1.298  13.691   9.676  0.00  0.00     0.078 H 
ATOM     44  H40 KTS d   1      -0.421  14.033   9.281  0.00  0.00     0.078 H 
BRANCH  42  45
ATOM     45  O15 KTS d   1       0.883  15.637   9.080  0.00  0.00    -0.398 OA
ATOM     46  H41 KTS d   1       1.784  15.807   8.833  0.00  0.00     0.209 HD
ENDBRANCH  42  45
ENDBRANCH  31  42
ENDBRANCH  24  25
ENDBRANCH  15  24
BRANCH  17  47
ATOM     47  C13 KTS d   1      -2.213  13.868   2.782  0.00  0.00     0.083 C 
ATOM     48  H26 KTS d   1      -1.172  14.112   2.523  0.00  0.00     0.090 H 
BRANCH  47  49
ATOM     49  C14 KTS d   1      -2.969  13.489   1.514  0.00  0.00     0.043 C 
ATOM     50  H27 KTS d   1      -3.036  14.367   0.855  0.00  0.00     0.078 H 
ATOM     51  H28 KTS d   1      -3.982  13.153   1.782  0.00  0.00     0.078 H 
BRANCH  49  52
ATOM     52  O12 KTS d   1      -2.290  12.439   0.831  0.00  0.00    -0.398 OA
ATOM     53  H29 KTS d   1      -2.771  12.212   0.044  0.00  0.00     0.209 HD
ENDBRANCH  49  52
ENDBRANCH  47  49
BRANCH  47  54
ATOM     54  O11 KTS d   1      -2.839  15.024   3.392  0.00  0.00    -0.391 OA
ATOM     55  H30 KTS d   1      -2.366  15.259   4.182  0.00  0.00     0.210 HD
ENDBRANCH  47  54
ENDBRANCH  17  47
ENDBRANCH  12  13
ENDBRANCH   3  12
BRANCH   1  56
ATOM     56  O20 KTS d   1      -5.835   9.456   7.561  0.00  0.00    -0.388 OA
ATOM     57  H1  KTS d   1      -4.898   9.535   7.696  0.00  0.00     0.210 HD
ENDBRANCH   1  56
BRANCH   4  58
ATOM     58  O8  KTS d   1      -5.270   9.346   3.306  0.00  0.00    -0.390 OA
ATOM     59  H16 KTS d   1      -4.334   9.494   3.373  0.00  0.00     0.210 HD
ENDBRANCH   4  58
BRANCH   2  60
ATOM     60  O5  KTS d   1      -8.186  10.477   6.425  0.00  0.00    -0.348 OA
BRANCH  60  61
ATOM     61  C5  KTS d   1      -9.542  10.314   6.831  0.00  0.00     0.098 C 
ATOM     62  C4  KTS d   1     -10.511   9.991   5.696  0.00  0.00     0.110 C 
ATOM     63  C3  KTS d   1     -11.839  10.573   6.156  0.00  0.00     0.158 C 
ATOM     64  H5  KTS d   1     -10.179  10.450   4.753  0.00  0.00     0.094 H 
ATOM     65  O2  KTS d   1     -11.520  11.323   7.340  0.00  0.00    -0.348 OA
ATOM     66  H7  KTS d   1     -12.487   9.744   6.476  0.00  0.00     0.133 H 
ATOM     67  C2  KTS d   1     -10.110  11.604   7.402  0.00  0.00     0.096 C 
ATOM     68  H8  KTS d   1      -9.869  12.459   6.753  0.00  0.00     0.091 H 
ATOM     69  H4  KTS d   1      -9.577   9.514   7.586  0.00  0.00     0.091 H 
BRANCH  62  70
ATOM     70  O4  KTS d   1     -10.650   8.580   5.528  0.00  0.00    -0.388 OA
ATOM     71  H6  KTS d   1     -10.983   8.198   6.332  0.00  0.00     0.210 HD
ENDBRANCH  62  70
BRANCH  63  72
ATOM     72  O3  KTS d   1     -12.524  11.191   5.096  0.00  0.00    -0.359 OA
BRANCH  72  73
ATOM     73  C29 KTS d   1     -12.754  10.450   3.893  0.00  0.00     0.022 C 
ATOM     74  H42 KTS d   1     -12.975   9.408   4.166  0.00  0.00     0.074 H 
ATOM     75  H43 KTS d   1     -11.837  10.483   3.286  0.00  0.00     0.074 H 
BRANCH  73  76
ATOM     76  C30 KTS d   1     -13.910  10.979   3.045  0.00  0.00    -0.048 C 
ATOM     77  H44 KTS d   1     -14.859  10.586   3.439  0.00  0.00     0.035 H 
ATOM     78  H45 KTS d   1     -13.779  10.647   2.004  0.00  0.00     0.035 H 
BRANCH  76  79
ATOM     79  C31 KTS d   1     -13.938  12.493   3.088  0.00  0.00    -0.075 C 
ATOM     80  H46 KTS d   1     -14.773  12.862   2.475  0.00  0.00     0.027 H 
ATOM     81  H47 KTS d   1     -12.991  12.889   2.693  0.00  0.00     0.027 H 
ATOM     82  H48 KTS d   1     -14.070  12.828   4.127  0.00  0.00     0.027 H 
ENDBRANCH  76  79
ENDBRANCH  73  76
ENDBRANCH  72  73
ENDBRANCH  63  72
BRANCH  67  83
ATOM     83  C1  KTS d   1      -9.547  11.900   8.794  0.00  0.00     0.083 C 
ATOM     84  H9  KTS d   1      -8.451  11.897   8.702  0.00  0.00     0.090 H 
BRANCH  83  85
ATOM     85  O1  KTS d   1      -9.907  10.839   9.689  0.00  0.00    -0.391 OA
ATOM     86  H10 KTS d   1     -10.854  10.774   9.736  0.00  0.00     0.210 HD
ENDBRANCH  83  85
BRANCH  83  87
ATOM     87  C   KTS d   1      -9.928  13.265   9.358  0.00  0.00     0.043 C 
ATOM     88  H11 KTS d   1      -9.510  14.052   8.713  0.00  0.00     0.078 H 
ATOM     89  H12 KTS d   1      -9.516  13.365  10.373  0.00  0.00     0.078 H 
BRANCH  87  90
ATOM     90  O   KTS d   1     -11.343  13.408   9.412  0.00  0.00    -0.398 OA
ATOM     91  H13 KTS d   1     -11.560  14.263   9.765  0.00  0.00     0.209 HD
ENDBRANCH  87  90
ENDBRANCH  83  87
ENDBRANCH  67  83
ENDBRANCH  60  61
ENDBRANCH   2  60
BRANCH   5  92
ATOM     92  C8  KTS d   1      -7.814   9.909   2.311  0.00  0.00     0.043 C 
ATOM     93  H18 KTS d   1      -8.887   9.682   2.231  0.00  0.00     0.078 H 
ATOM     94  H19 KTS d   1      -7.230   9.051   1.946  0.00  0.00     0.078 H 
BRANCH  92  95
ATOM     95  O7  KTS d   1      -7.512  11.062   1.514  0.00  0.00    -0.398 OA
ATOM     96  H20 KTS d   1      -8.017  11.803   1.827  0.00  0.00     0.209 HD
ENDBRANCH  92  95
ENDBRANCH   5  92
TORSDOF 29
