REMARK  12 active torsions:
REMARK  status: ('A' for Active; 'I' for Inactive)
REMARK    1  A    between atoms: N_1  and  CA_2 
REMARK    2  A    between atoms: CA_11  and  CB_14 
REMARK    3  A    between atoms: CB_14  and  OG_15 
REMARK    4  A    between atoms: CA_17  and  CB_20 
REMARK    5  A    between atoms: CB_20  and  CG_21 
REMARK    6  A    between atoms: CG_21  and  CD_22 
REMARK    7  A    between atoms: CD_22  and  NE_23 
REMARK       I    between atoms: NE_23  and  CZ_24 
REMARK       I    between atoms: CZ_24  and  NH1_25 
REMARK    8  A    between atoms: CA_28  and  CB_31 
REMARK    9  A    between atoms: CB_31  and  CG_32 
REMARK   10  A    between atoms: CA_42  and  CB_45 
REMARK   11  A    between atoms: CB_45  and  CG_46 
REMARK   12  A    between atoms: CA_50  and  C_51 
ROOT
ATOM      1  CA  LYS d   1     -16.604 -10.442 -21.399  0.00  0.00     0.176 C 
ATOM      2  C   LYS d   1     -15.384 -10.139 -20.519  0.00  0.00     0.249 C 
ATOM      3  O   LYS d   1     -14.439 -10.956 -20.473  0.00  0.00    -0.271 OA
ATOM      4  CB  LYS d   1     -16.260 -11.413 -22.560  0.00  0.00    -0.030 C 
ATOM      5  CG  LYS d   1     -17.442 -12.180 -23.182  0.00  0.00    -0.061 C 
ATOM      6  CD  LYS d   1     -18.237 -13.020 -22.163  0.00  0.00    -0.050 C 
ATOM      7  CE  LYS d   1     -19.606 -12.465 -21.697  0.00  0.00    -0.005 C 
ATOM      8  NZ  LYS d   1     -20.114 -11.139 -22.112  0.00  0.00    -0.361 N 
ATOM      9  H4  LYS d   1     -17.374 -10.921 -20.776  0.00  0.00     0.099 H 
ATOM     10  H5  LYS d   1     -15.544 -12.155 -22.175  0.00  0.00     0.036 H 
ATOM     11  H6  LYS d   1     -15.785 -10.825 -23.359  0.00  0.00     0.036 H 
ATOM     12  H7  LYS d   1     -17.050 -12.854 -23.958  0.00  0.00     0.033 H 
ATOM     13  H8  LYS d   1     -18.126 -11.451 -23.641  0.00  0.00     0.033 H 
ATOM     14  H9  LYS d   1     -17.607 -13.138 -21.269  0.00  0.00     0.035 H 
ATOM     15  H10 LYS d   1     -18.418 -14.006 -22.617  0.00  0.00     0.035 H 
ATOM     16  H11 LYS d   1     -19.569 -12.446 -20.598  0.00  0.00     0.064 H 
ATOM     17  H12 LYS d   1     -20.359 -13.196 -22.026  0.00  0.00     0.064 H 
ATOM     18  H13 LYS d   1     -19.619 -10.717 -22.871  0.00  0.00     0.162 HD
ATOM     19  N   SER d   1     -15.491  -9.118 -19.643  0.00  0.00    -0.344 N 
ATOM     20  CA  SER d   1     -16.496  -9.104 -18.516  0.00  0.00     0.109 C 
ATOM     21  C   SER d   1     -17.692  -9.962 -18.622  0.00  0.00     0.243 C 
ATOM     22  O   SER d   1     -18.681  -9.661 -19.300  0.00  0.00    -0.271 OA
ATOM     23  H14 SER d   1     -14.877  -8.335 -19.745  0.00  0.00     0.163 HD
ATOM     24  H15 SER d   1     -15.922  -9.540 -17.686  0.00  0.00     0.090 H 
ATOM     25  N   ARG d   1     -17.582 -11.028 -17.871  0.00  0.00    -0.346 N 
ATOM     26  CA  ARG d   1     -18.587 -12.020 -17.803  0.00  0.00     0.089 C 
ATOM     27  C   ARG d   1     -19.785 -11.679 -16.911  0.00  0.00     0.241 C 
ATOM     28  O   ARG d   1     -20.720 -12.439 -16.877  0.00  0.00    -0.271 OA
ATOM     29  H19 ARG d   1     -16.754 -11.146 -17.323  0.00  0.00     0.163 HD
ATOM     30  H20 ARG d   1     -18.989 -12.144 -18.819  0.00  0.00     0.087 H 
ATOM     31  N   TRP d   1     -19.762 -10.545 -16.220  0.00  0.00    -0.346 N 
ATOM     32  CA  TRP d   1     -20.900 -10.087 -15.404  0.00  0.00     0.093 C 
ATOM     33  C   TRP d   1     -22.104  -9.831 -16.292  0.00  0.00     0.241 C 
ATOM     34  O   TRP d   1     -21.986  -9.152 -17.327  0.00  0.00    -0.271 OA
ATOM     35  H32 TRP d   1     -18.939  -9.979 -16.255  0.00  0.00     0.163 HD
ATOM     36  H33 TRP d   1     -21.156 -10.888 -14.695  0.00  0.00     0.088 H 
ATOM     37  N   ASP d   1     -23.228 -10.459 -15.909  0.00  0.00    -0.345 N 
ATOM     38  CA  ASP d   1     -24.490 -10.328 -16.592  0.00  0.00     0.098 C 
ATOM     39  C   ASP d   1     -24.522 -10.989 -17.966  0.00  0.00     0.241 C 
ATOM     40  O   ASP d   1     -25.459 -10.787 -18.722  0.00  0.00    -0.271 OA
ATOM     41  H42 ASP d   1     -23.187 -11.051 -15.104  0.00  0.00     0.163 HD
ATOM     42  H43 ASP d   1     -25.245 -10.840 -15.977  0.00  0.00     0.088 H 
ATOM     43  N   GLU d   1     -23.538 -11.817 -18.274  0.00  0.00    -0.345 N 
ATOM     44  CA  GLU d   1     -23.559 -12.558 -19.513  0.00  0.00     0.096 C 
ATOM     45  CB  GLU d   1     -22.285 -12.268 -20.313  0.00  0.00    -0.029 C 
ATOM     46  CG  GLU d   1     -22.007 -10.793 -20.453  0.00  0.00     0.011 C 
ATOM     47  CD  GLU d   1     -21.148 -10.404 -21.624  0.00  0.00     0.217 C 
ATOM     48  OE2 GLU d   1     -21.411  -9.318 -22.109  0.00  0.00    -0.274 OA
ATOM     49  H46 GLU d   1     -22.771 -11.931 -17.642  0.00  0.00     0.163 HD
ATOM     50  H47 GLU d   1     -24.425 -12.220 -20.101  0.00  0.00     0.089 H 
ATOM     51  H48 GLU d   1     -22.394 -12.702 -21.318  0.00  0.00     0.037 H 
ATOM     52  H49 GLU d   1     -21.433 -12.739 -19.801  0.00  0.00     0.037 H 
ATOM     53  H50 GLU d   1     -21.503 -10.455 -19.536  0.00  0.00     0.047 H 
ATOM     54  H51 GLU d   1     -22.972 -10.274 -20.554  0.00  0.00     0.047 H 
ENDROOT
BRANCH  26  55
ATOM     55  CB  ARG d   1     -17.913 -13.328 -17.410  0.00  0.00    -0.036 C 
ATOM     56  H21 ARG d   1     -18.679 -14.068 -17.135  0.00  0.00     0.036 H 
ATOM     57  H22 ARG d   1     -17.247 -13.154 -16.552  0.00  0.00     0.036 H 
BRANCH  55  58
ATOM     58  CG  ARG d   1     -17.102 -13.850 -18.585  0.00  0.00    -0.048 C 
ATOM     59  H23 ARG d   1     -16.470 -13.038 -18.973  0.00  0.00     0.035 H 
ATOM     60  H24 ARG d   1     -17.790 -14.188 -19.374  0.00  0.00     0.035 H 
BRANCH  58  61
ATOM     61  CD  ARG d   1     -16.224 -15.001 -18.174  0.00  0.00     0.009 C 
ATOM     62  H25 ARG d   1     -15.928 -15.560 -19.074  0.00  0.00     0.064 H 
ATOM     63  H26 ARG d   1     -16.795 -15.661 -17.504  0.00  0.00     0.064 H 
BRANCH  61  64
ATOM     64  NE  ARG d   1     -15.026 -14.556 -17.484  0.00  0.00    -0.227 N 
ATOM     65  CZ  ARG d   1     -14.236 -15.363 -16.796  0.00  0.00     0.665 C 
ATOM     66  NH1 ARG d   1     -14.513 -16.672 -16.672  0.00  0.00    -0.235 N 
ATOM     67  NH2 ARG d   1     -13.151 -14.851 -16.229  0.00  0.00    -0.235 N 
ATOM     68  H28 ARG d   1     -13.884 -17.283 -16.131  0.00  0.00     0.174 HD
ATOM     69  H29 ARG d   1     -15.354 -17.065 -17.117  0.00  0.00     0.174 HD
ATOM     70  H30 ARG d   1     -12.944 -13.847 -16.327  0.00  0.00     0.174 HD
ATOM     71  H31 ARG d   1     -12.516 -15.458 -15.691  0.00  0.00     0.174 HD
ATOM     72  H27 ARG d   1     -14.778 -13.557 -17.533  0.00  0.00     0.177 HD
ENDBRANCH  61  64
ENDBRANCH  58  61
ENDBRANCH  55  58
ENDBRANCH  26  55
BRANCH  20  73
ATOM     73  CB  SER d   1     -16.954  -7.763 -17.993  0.00  0.00     0.044 C 
ATOM     74  H16 SER d   1     -17.715  -7.332 -18.660  0.00  0.00     0.077 H 
ATOM     75  H17 SER d   1     -16.102  -7.072 -17.915  0.00  0.00     0.077 H 
BRANCH  73  76
ATOM     76  OG  SER d   1     -17.513  -8.016 -16.694  0.00  0.00    -0.398 OA
ATOM     77  H18 SER d   1     -17.819  -7.199 -16.317  0.00  0.00     0.209 HD
ENDBRANCH  73  76
ENDBRANCH  20  73
BRANCH  32  78
ATOM     78  CB  TRP d   1     -20.550  -8.817 -14.584  0.00  0.00    -0.012 C 
ATOM     79  H34 TRP d   1     -21.475  -8.386 -14.174  0.00  0.00     0.044 H 
ATOM     80  H35 TRP d   1     -20.064  -8.083 -15.244  0.00  0.00     0.044 H 
BRANCH  78  81
ATOM     81  CG  TRP d   1     -19.643  -9.146 -13.481  0.00  0.00    -0.028 A 
ATOM     82  CD1 TRP d   1     -18.323  -8.818 -13.359  0.00  0.00    -0.015 A 
ATOM     83  NE1 TRP d   1     -17.794  -9.384 -12.197  0.00  0.00    -0.365 N 
ATOM     84  H36 TRP d   1     -17.765  -8.205 -14.065  0.00  0.00     0.112 H 
ATOM     85  CE2 TRP d   1     -18.795 -10.063 -11.553  0.00  0.00     0.042 A 
ATOM     86  H37 TRP d   1     -16.818  -9.305 -11.878  0.00  0.00     0.165 HD
ATOM     87  CD2 TRP d   1     -19.968  -9.948 -12.345  0.00  0.00    -0.002 A 
ATOM     88  CZ2 TRP d   1     -18.776 -10.782 -10.332  0.00  0.00    -0.056 A 
ATOM     89  CE3 TRP d   1     -21.141 -10.592 -11.919  0.00  0.00    -0.070 A 
ATOM     90  CZ3 TRP d   1     -21.126 -11.290 -10.716  0.00  0.00    -0.082 A 
ATOM     91  H38 TRP d   1     -22.043 -10.546 -12.518  0.00  0.00     0.084 H 
ATOM     92  CH2 TRP d   1     -19.955 -11.376  -9.934  0.00  0.00    -0.081 A 
ATOM     93  H40 TRP d   1     -22.032 -11.777 -10.373  0.00  0.00     0.083 H 
ATOM     94  H41 TRP d   1     -19.983 -11.922  -8.998  0.00  0.00     0.083 H 
ATOM     95  H39 TRP d   1     -17.874 -10.862  -9.737  0.00  0.00     0.086 H 
ENDBRANCH  78  81
ENDBRANCH  32  78
BRANCH   1  96
ATOM     96  N   LYS d   1     -17.145  -9.139 -21.914  0.00  0.00    -0.067 N 
ATOM     97  H1  LYS d   1     -17.949  -9.316 -22.496  0.00  0.00     0.275 HD
ATOM     98  H2  LYS d   1     -16.435  -8.671 -22.455  0.00  0.00     0.275 HD
ATOM     99  H3  LYS d   1     -17.414  -8.556 -21.137  0.00  0.00     0.275 HD
ENDBRANCH   1  96
BRANCH  38 100
ATOM    100  CB  ASP d   1     -24.888  -8.824 -16.669  0.00  0.00     0.043 C 
ATOM    101  H44 ASP d   1     -25.861  -8.738 -17.174  0.00  0.00     0.052 H 
ATOM    102  H45 ASP d   1     -24.125  -8.282 -17.248  0.00  0.00     0.052 H 
BRANCH 100 103
ATOM    103  CG  ASP d   1     -24.990  -8.219 -15.328  0.00  0.00     0.175 C 
ATOM    104  OD1 ASP d   1     -25.360  -8.971 -14.429  0.00  0.00    -0.648 OA
ATOM    105  OD2 ASP d   1     -24.729  -7.021 -15.134  0.00  0.00    -0.648 OA
ENDBRANCH 100 103
ENDBRANCH  38 100
BRANCH  44 106
ATOM    106  C   GLU d   1     -23.705 -14.067 -19.274  0.00  0.00     0.196 C 
ATOM    107  O   GLU d   1     -24.012 -14.598 -18.176  0.00  0.00    -0.646 OA
ATOM    108  OXT GLU d   1     -23.489 -14.792 -20.260  0.00  0.00    -0.646 OA
ENDBRANCH  44 106
TORSDOF 12
