REMARK  4 active torsions:
REMARK  status: ('A' for Active; 'I' for Inactive)
REMARK    1  A    between atoms: C9_2  and  C10_3 
REMARK    2  A    between atoms: C9_2  and  C8_6 
REMARK    3  A    between atoms: C8_6  and  C7_7 
REMARK    4  A    between atoms: C7_7  and  C1_8 
ROOT
ATOM      1  C1  XI7 d   1     -37.593 -15.307   7.573  0.00  0.00     0.010 A 
ATOM      2  C6  XI7 d   1     -37.366 -15.201   8.929  0.00  0.00    -0.070 A 
ATOM      3  C5  XI7 d   1     -37.665 -13.988   9.515  0.00  0.00    -0.082 A 
ATOM      4  C4  XI7 d   1     -38.161 -12.963   8.727  0.00  0.00    -0.083 A 
ATOM      5  C3  XI7 d   1     -38.381 -13.085   7.371  0.00  0.00    -0.082 A 
ATOM      6  C2  XI7 d   1     -38.087 -14.291   6.779  0.00  0.00    -0.070 A 
ATOM      7  H3  XI7 d   1     -36.972 -16.030   9.506  0.00  0.00     0.085 H 
ATOM      8  H4  XI7 d   1     -37.514 -13.839  10.578  0.00  0.00     0.083 H 
ATOM      9  H5  XI7 d   1     -38.388 -12.015   9.201  0.00  0.00     0.083 H 
ATOM     10  H6  XI7 d   1     -38.773 -12.257   6.791  0.00  0.00     0.083 H 
ATOM     11  H7  XI7 d   1     -38.239 -14.440   5.716  0.00  0.00     0.085 H 
ENDROOT
BRANCH   1  12
ATOM     12  C7  XI7 d   1     -37.292 -16.585   6.896  0.00  0.00     0.167 C 
ATOM     13  O14 XI7 d   1     -37.229 -16.538   5.694  0.00  0.00    -0.292 OA
BRANCH  12  14
ATOM     14  C8  XI7 d   1     -37.071 -17.807   7.729  0.00  0.00     0.060 C 
ATOM     15  H1  XI7 d   1     -36.465 -17.567   8.615  0.00  0.00     0.057 H 
ATOM     16  H2  XI7 d   1     -38.032 -18.237   8.048  0.00  0.00     0.057 H 
BRANCH  14  17
ATOM     17  C9  XI7 d   1     -36.344 -18.752   6.836  0.00  0.00     0.232 C 
ATOM     18  O8  XI7 d   1     -35.254 -19.168   7.127  0.00  0.00    -0.285 OA
BRANCH  17  19
ATOM     19  C10 XI7 d   1     -36.960 -19.219   5.580  0.00  0.00     0.247 C 
ATOM     20  O11 XI7 d   1     -36.412 -20.208   5.200  0.00  0.00    -0.642 OA
ATOM     21  O10 XI7 d   1     -37.876 -18.733   4.852  0.00  0.00    -0.642 OA
ENDBRANCH  17  19
ENDBRANCH  14  17
ENDBRANCH  12  14
ENDBRANCH   1  12
TORSDOF 4
