REMARK  2 active torsions:
REMARK  status: ('A' for Active; 'I' for Inactive)
REMARK    1  A    between atoms: N8_1  and  C3_2 
REMARK    2  A    between atoms: C2_3  and  N7_4 
ROOT
ATOM      1  C3  76X d   1      -5.108  21.242  -8.452  0.00  0.00     0.071 A 
ATOM      2  C2  76X d   1      -5.604  19.922  -8.418  0.00  0.00     0.147 A 
ATOM      3  C4  76X d   1      -3.892  21.504  -7.930  0.00  0.00    -0.053 A 
ATOM      4  C5  76X d   1      -3.169  20.507  -7.360  0.00  0.00    -0.064 A 
ATOM      5  C6  76X d   1      -3.608  19.225  -7.382  0.00  0.00     0.005 A 
ATOM      6  N1  76X d   1      -4.814  18.910  -7.898  0.00  0.00    -0.242 NA
ATOM      7  H5  76X d   1      -3.492  22.511  -7.966  0.00  0.00     0.087 H 
ATOM      8  H6  76X d   1      -2.225  20.740  -6.880  0.00  0.00     0.085 H 
ATOM      9  H7  76X d   1      -2.979  18.439  -6.978  0.00  0.00     0.114 H 
ENDROOT
BRANCH   1  10
ATOM     10  N8  76X d   1      -5.788  22.286  -8.939  0.00  0.00    -0.396 N 
ATOM     11  H1  76X d   1      -5.364  23.225  -8.933  0.00  0.00     0.156 HD
ATOM     12  H2  76X d   1      -6.735  22.151  -9.320  0.00  0.00     0.156 HD
ENDBRANCH   1  10
BRANCH   2  13
ATOM     13  N7  76X d   1      -6.815  19.668  -8.936  0.00  0.00    -0.382 N 
ATOM     14  H3  76X d   1      -7.192  18.709  -8.919  0.00  0.00     0.157 HD
ATOM     15  H4  76X d   1      -7.368  20.431  -9.351  0.00  0.00     0.157 HD
ENDBRANCH   2  13
TORSDOF 2
