REMARK  0 active torsions:
REMARK  status: ('A' for Active; 'I' for Inactive)
ROOT
ATOM      1  C1  537 d   1     -14.378  -7.983  -9.363  0.00  0.00    -0.082 A 
ATOM      2  C2  537 d   1     -13.578  -7.037  -8.746  0.00  0.00    -0.070 A 
ATOM      3  C3  537 d   1     -14.067  -5.780  -8.511  0.00  0.00     0.007 A 
ATOM      4  C4  537 d   1     -15.445  -5.405  -8.899  0.00  0.00     0.027 A 
ATOM      5  C5  537 d   1     -16.199  -6.399  -9.504  0.00  0.00    -0.068 A 
ATOM      6  C6  537 d   1     -15.657  -7.647  -9.726  0.00  0.00    -0.082 A 
ATOM      7  C11 537 d   1     -13.861  -3.465  -7.646  0.00  0.00     0.038 A 
ATOM      8  C12 537 d   1     -12.929  -2.601  -6.980  0.00  0.00     0.090 A 
ATOM      9  C13 537 d   1     -13.289  -1.295  -6.639  0.00  0.00    -0.052 A 
ATOM     10  C14 537 d   1     -14.600  -0.915  -7.018  0.00  0.00    -0.080 A 
ATOM     11  C15 537 d   1     -15.489  -1.772  -7.664  0.00  0.00    -0.068 A 
ATOM     12  C16 537 d   1     -15.130  -3.060  -7.988  0.00  0.00     0.030 A 
ATOM     13  C20 537 d   1     -15.983  -4.048  -8.639  0.00  0.00     0.194 A 
ATOM     14  C21 537 d   1     -13.334  -4.772  -7.897  0.00  0.00     0.075 A 
ATOM     15  O22 537 d   1     -17.152  -3.715  -8.989  0.00  0.00    -0.287 OA
ATOM     16  N23 537 d   1     -12.077  -4.731  -7.393  0.00  0.00    -0.276 N 
ATOM     17  N24 537 d   1     -11.870  -3.442  -6.815  0.00  0.00    -0.174 NA
ATOM     18  H1  537 d   1     -13.998  -8.979  -9.557  0.00  0.00     0.083 H 
ATOM     19  H2  537 d   1     -12.567  -7.291  -8.450  0.00  0.00     0.084 H 
ATOM     20  H3  537 d   1     -17.220  -6.194  -9.804  0.00  0.00     0.085 H 
ATOM     21  H4  537 d   1     -16.271  -8.398 -10.210  0.00  0.00     0.083 H 
ATOM     22  H5  537 d   1     -12.615  -0.622  -6.122  0.00  0.00     0.087 H 
ATOM     23  H6  537 d   1     -14.928   0.093  -6.794  0.00  0.00     0.083 H 
ATOM     24  H7  537 d   1     -16.482  -1.417  -7.916  0.00  0.00     0.085 H 
ATOM     25  H8  537 d   1     -11.389  -5.497  -7.422  0.00  0.00     0.189 HD
ENDROOT
TORSDOF 0
