REMARK  4 active torsions:
REMARK  status: ('A' for Active; 'I' for Inactive)
REMARK    1  A    between atoms: C01_1  and  N02_2 
REMARK       I    between atoms: N02_2  and  C03_3 
REMARK    2  A    between atoms: C03_3  and  C04_4 
REMARK    3  A    between atoms: C09_9  and  O10_10 
REMARK    4  A    between atoms: O10_10  and  C11_11 
ROOT
ATOM      1  C04 2LX d   1      21.098   0.453  57.081  0.00  0.00     0.065 A 
ATOM      2  C05 2LX d   1      21.191  -0.260  58.281  0.00  0.00    -0.065 A 
ATOM      3  C06 2LX d   1      20.811  -1.597  58.359  0.00  0.00    -0.082 A 
ATOM      4  C07 2LX d   1      20.317  -2.256  57.242  0.00  0.00    -0.080 A 
ATOM      5  C08 2LX d   1      20.167  -1.579  56.043  0.00  0.00    -0.050 A 
ATOM      6  C09 2LX d   1      20.529  -0.217  55.967  0.00  0.00     0.085 A 
ATOM      7  H5  2LX d   1      21.566   0.238  59.167  0.00  0.00     0.085 H 
ATOM      8  H6  2LX d   1      20.902  -2.128  59.300  0.00  0.00     0.083 H 
ATOM      9  H7  2LX d   1      20.048  -3.304  57.308  0.00  0.00     0.083 H 
ATOM     10  H8  2LX d   1      19.775  -2.091  55.171  0.00  0.00     0.087 H 
ENDROOT
BRANCH   6  11
ATOM     11  O10 2LX d   1      20.252   0.574  54.869  0.00  0.00    -0.345 OA
BRANCH  11  12
ATOM     12  C11 2LX d   1      20.047  -0.090  53.579  0.00  0.00     0.049 C 
ATOM     13  C12 2LX d   1      21.389  -0.167  52.892  0.00  0.00    -0.021 C 
ATOM     14  C13 2LX d   1      21.217  -0.722  51.493  0.00  0.00     0.022 C 
ATOM     15  H10 2LX d   1      22.056  -0.826  53.467  0.00  0.00     0.040 H 
ATOM     16  H11 2LX d   1      21.828   0.840  52.834  0.00  0.00     0.040 H 
ATOM     17  O14 2LX d   1      20.320   0.069  50.729  0.00  0.00    -0.391 OA
ATOM     18  H12 2LX d   1      20.822  -1.746  51.560  0.00  0.00     0.074 H 
ATOM     19  H13 2LX d   1      22.196  -0.738  50.992  0.00  0.00     0.074 H 
ATOM     20  C15 2LX d   1      19.033   0.123  51.381  0.00  0.00     0.022 C 
ATOM     21  C16 2LX d   1      19.049   0.719  52.774  0.00  0.00    -0.021 C 
ATOM     22  H14 2LX d   1      18.643  -0.903  51.453  0.00  0.00     0.074 H 
ATOM     23  H15 2LX d   1      18.359   0.729  50.758  0.00  0.00     0.074 H 
ATOM     24  H16 2LX d   1      19.360   1.773  52.732  0.00  0.00     0.040 H 
ATOM     25  H17 2LX d   1      18.050   0.649  53.228  0.00  0.00     0.040 H 
ATOM     26  H9  2LX d   1      19.653  -1.105  53.733  0.00  0.00     0.084 H 
ENDBRANCH  11  12
ENDBRANCH   6  11
BRANCH   1  27
ATOM     27  C03 2LX d   1      21.709   1.835  57.107  0.00  0.00     0.254 C 
ATOM     28  N02 2LX d   1      21.718   2.542  55.976  0.00  0.00    -0.361 N 
ATOM     29  H4  2LX d   1      21.369   2.122  55.138  0.00  0.00     0.162 HD
ATOM     30  O17 2LX d   1      22.150   2.310  58.156  0.00  0.00    -0.268 OA
BRANCH  28  31
ATOM     31  C01 2LX d   1      22.220   3.905  55.927  0.00  0.00    -0.018 C 
ATOM     32  H1  2LX d   1      22.132   4.291  54.901  0.00  0.00     0.056 H 
ATOM     33  H2  2LX d   1      23.276   3.918  56.234  0.00  0.00     0.056 H 
ATOM     34  H3  2LX d   1      21.632   4.537  56.608  0.00  0.00     0.056 H 
ENDBRANCH  28  31
ENDBRANCH   1  27
TORSDOF 4
