REMARK  3 active torsions:
REMARK  status: ('A' for Active; 'I' for Inactive)
REMARK    1  A    between atoms: N2_7  and  C4_1 
REMARK       I    between atoms: C_11  and  N_12 
REMARK    2  A    between atoms: C_11  and  C1_13 
REMARK    3  A    between atoms: C2_14  and  C3_15 
ROOT
ATOM      1  N1  78Y d   1      -9.664  19.266  78.575  0.00  0.00    -0.142 NA
ATOM      2  N2  78Y d   1     -10.552  18.285  78.748  0.00  0.00    -0.150 N 
ATOM      3  N3  78Y d   1     -11.168  17.849  77.636  0.00  0.00    -0.152 NA
ATOM      4  C1  78Y d   1      -9.681  19.497  77.260  0.00  0.00     0.172 A 
ATOM      5  C2  78Y d   1     -10.632  18.606  76.692  0.00  0.00     0.089 A 
ENDROOT
BRANCH   2   6
ATOM      6  C4  78Y d   1     -10.870  17.775  80.043  0.00  0.00     0.079 A 
ATOM      7  C5  78Y d   1     -11.793  16.741  80.172  0.00  0.00    -0.053 A 
ATOM      8  C6  78Y d   1     -12.189  16.335  81.437  0.00  0.00    -0.081 A 
ATOM      9  H1  78Y d   1     -12.199  16.257  79.291  0.00  0.00     0.087 H 
ATOM     10  C7  78Y d   1     -11.675  16.952  82.564  0.00  0.00    -0.083 A 
ATOM     11  H2  78Y d   1     -12.906  15.529  81.544  0.00  0.00     0.083 H 
ATOM     12  C8  78Y d   1     -10.748  17.971  82.432  0.00  0.00    -0.081 A 
ATOM     13  H3  78Y d   1     -11.998  16.637  83.550  0.00  0.00     0.083 H 
ATOM     14  C9  78Y d   1     -10.334  18.383  81.176  0.00  0.00    -0.053 A 
ATOM     15  H4  78Y d   1     -10.344  18.450  83.317  0.00  0.00     0.083 H 
ATOM     16  H5  78Y d   1      -9.598  19.173  81.075  0.00  0.00     0.087 H 
ENDBRANCH   2   6
BRANCH   4  17
ATOM     17  C   78Y d   1      -8.834  20.454  76.608  0.00  0.00     0.271 C 
ATOM     18  O   78Y d   1      -8.868  20.586  75.391  0.00  0.00    -0.266 OA
ATOM     19  N   78Y d   1      -8.024  21.134  77.397  0.00  0.00    -0.365 N 
ATOM     20  H6  78Y d   1      -8.043  20.981  78.385  0.00  0.00     0.159 HD
ATOM     21  H7  78Y d   1      -7.391  21.802  77.007  0.00  0.00     0.159 HD
ENDBRANCH   4  17
BRANCH   5  22
ATOM     22  C3  78Y d   1     -11.027  18.441  75.262  0.00  0.00    -0.031 C 
ATOM     23  H8  78Y d   1     -10.471  19.160  74.643  0.00  0.00     0.035 H 
ATOM     24  H9  78Y d   1     -12.107  18.624  75.156  0.00  0.00     0.035 H 
ATOM     25  H10 78Y d   1     -10.795  17.417  74.933  0.00  0.00     0.035 H 
ENDBRANCH   5  22
TORSDOF 3
