REMARK  14 active torsions:
REMARK  status: ('A' for Active; 'I' for Inactive)
REMARK    1  A    between atoms: C4_2  and  C20_19 
REMARK    2  A    between atoms: N_20  and  C4_2 
REMARK    3  A    between atoms: C6_5  and  C5_3 
REMARK       I    between atoms: C5_3  and  N_20 
REMARK    4  A    between atoms: C12_14  and  O4_4 
REMARK    5  A    between atoms: O4_4  and  C13_16 
REMARK    6  A    between atoms: N1_6  and  C6_5 
REMARK    7  A    between atoms: C6_5  and  C7_7 
REMARK    8  A    between atoms: P_22  and  N1_6 
REMARK    9  A    between atoms: C7_7  and  C8_8 
REMARK   10  A    between atoms: C8_8  and  C9_10 
REMARK   11  A    between atoms: C8_8  and  C10_12 
REMARK   12  A    between atoms: C11_13  and  N2_9 
REMARK       I    between atoms: N2_9  and  C12_14 
REMARK   13  A    between atoms: C11_13  and  P_22 
REMARK       I    between atoms: C20_19  and  N3_15 
REMARK   14  A    between atoms: C13_16  and  C14_17 
ROOT
ATOM      1  C6  79E d   1      10.143  38.704  -3.671  0.00  0.00     0.091 C 
ATOM      2  H3  79E d   1       9.897  37.667  -3.941  0.00  0.00     0.087 H 
ENDROOT
BRANCH   1   3
ATOM      3  C5  79E d   1       8.921  39.572  -3.950  0.00  0.00     0.240 C 
ATOM      4  N   79E d   1       9.163  40.864  -4.167  0.00  0.00    -0.351 N 
ATOM      5  H22 79E d   1      10.117  41.154  -4.245  0.00  0.00     0.163 HD
ATOM      6  O   79E d   1       7.793  39.080  -3.893  0.00  0.00    -0.271 OA
BRANCH   4   7
ATOM      7  C4  79E d   1       8.126  41.886  -4.298  0.00  0.00     0.069 C 
ATOM      8  H1  79E d   1       7.142  41.404  -4.393  0.00  0.00     0.078 H 
ATOM      9  H2  79E d   1       8.133  42.535  -3.410  0.00  0.00     0.078 H 
BRANCH   7  10
ATOM     10  C20 79E d   1       8.409  42.719  -5.542  0.00  0.00     0.233 C 
ATOM     11  O5  79E d   1       9.574  42.843  -5.942  0.00  0.00    -0.272 OA
ATOM     12  N3  79E d   1       7.368  43.354  -6.076  0.00  0.00    -0.369 N 
ATOM     13  H17 79E d   1       7.491  43.916  -6.894  0.00  0.00     0.159 HD
ATOM     14  H18 79E d   1       6.463  43.269  -5.660  0.00  0.00     0.159 HD
ENDBRANCH   7  10
ENDBRANCH   4   7
ENDBRANCH   1   3
BRANCH   1  15
ATOM     15  N1  79E d   1      11.299  39.129  -4.467  0.00  0.00    -0.334 N 
ATOM     16  H4  79E d   1      11.997  39.692  -4.025  0.00  0.00     0.164 HD
BRANCH  15  17
ATOM     17  P   79E d   1      11.508  38.728  -6.049  0.00  0.00     0.224 P 
ATOM     18  O2  79E d   1      10.200  38.291  -6.580  0.00  0.00    -0.651 OA
ATOM     19  O1  79E d   1      12.599  37.684  -6.263  0.00  0.00    -0.651 OA
BRANCH  17  20
ATOM     20  C11 79E d   1      12.008  40.279  -6.796  0.00  0.00     0.086 C 
ATOM     21  H15 79E d   1      11.113  40.899  -6.953  0.00  0.00     0.083 H 
ATOM     22  H16 79E d   1      12.695  40.795  -6.110  0.00  0.00     0.083 H 
BRANCH  20  23
ATOM     23  N2  79E d   1      12.679  40.094  -8.077  0.00  0.00    -0.325 N 
ATOM     24  C12 79E d   1      12.552  41.037  -9.023  0.00  0.00     0.361 C 
ATOM     25  O3  79E d   1      11.894  42.039  -8.911  0.00  0.00    -0.238 OA
ATOM     26  H8  79E d   1      13.227  39.275  -8.248  0.00  0.00     0.165 HD
BRANCH  24  27
ATOM     27  O4  79E d   1      13.258  40.724 -10.120  0.00  0.00    -0.299 OA
BRANCH  27  28
ATOM     28  C13 79E d   1      13.657  41.850 -10.990  0.00  0.00     0.054 C 
ATOM     29  H19 79E d   1      13.726  42.793 -10.428  0.00  0.00     0.082 H 
ATOM     30  H20 79E d   1      12.964  41.976 -11.835  0.00  0.00     0.082 H 
BRANCH  28  31
ATOM     31  C14 79E d   1      15.011  41.375 -11.448  0.00  0.00    -0.034 A 
ATOM     32  C15 79E d   1      15.148  40.762 -12.684  0.00  0.00    -0.075 A 
ATOM     33  C16 79E d   1      16.384  40.304 -13.119  0.00  0.00    -0.082 A 
ATOM     34  H21 79E d   1      14.278  40.639 -13.319  0.00  0.00     0.084 H 
ATOM     35  C17 79E d   1      17.504  40.473 -12.331  0.00  0.00    -0.083 A 
ATOM     36  H26 79E d   1      16.470  39.812 -14.081  0.00  0.00     0.083 H 
ATOM     37  C18 79E d   1      17.385  41.105 -11.102  0.00  0.00    -0.082 A 
ATOM     38  H25 79E d   1      18.469  40.115 -12.670  0.00  0.00     0.083 H 
ATOM     39  C19 79E d   1      16.148  41.548 -10.665  0.00  0.00    -0.075 A 
ATOM     40  H24 79E d   1      18.262  41.252 -10.482  0.00  0.00     0.083 H 
ATOM     41  H23 79E d   1      16.064  42.036  -9.701  0.00  0.00     0.084 H 
ENDBRANCH  28  31
ENDBRANCH  27  28
ENDBRANCH  24  27
ENDBRANCH  20  23
ENDBRANCH  17  20
ENDBRANCH  15  17
ENDBRANCH   1  15
BRANCH   1  42
ATOM     42  C7  79E d   1      10.505  38.749  -2.189  0.00  0.00    -0.035 C 
ATOM     43  H5  79E d   1      10.719  39.796  -1.930  0.00  0.00     0.037 H 
ATOM     44  H6  79E d   1      11.413  38.144  -2.049  0.00  0.00     0.037 H 
BRANCH  42  45
ATOM     45  C8  79E d   1       9.454  38.237  -1.213  0.00  0.00    -0.059 C 
ATOM     46  H7  79E d   1       8.502  38.729  -1.460  0.00  0.00     0.038 H 
BRANCH  45  47
ATOM     47  C9  79E d   1       9.815  38.625   0.205  0.00  0.00    -0.073 C 
ATOM     48  H9  79E d   1       9.046  38.248   0.895  0.00  0.00     0.028 H 
ATOM     49  H10 79E d   1       9.871  39.721   0.282  0.00  0.00     0.028 H 
ATOM     50  H11 79E d   1      10.790  38.188   0.468  0.00  0.00     0.028 H 
ENDBRANCH  45  47
BRANCH  45  51
ATOM     51  C10 79E d   1       9.240  36.726  -1.358  0.00  0.00    -0.073 C 
ATOM     52  H12 79E d   1       8.981  36.491  -2.401  0.00  0.00     0.028 H 
ATOM     53  H13 79E d   1       8.422  36.406  -0.696  0.00  0.00     0.028 H 
ATOM     54  H14 79E d   1      10.164  36.197  -1.082  0.00  0.00     0.028 H 
ENDBRANCH  45  51
ENDBRANCH  42  45
ENDBRANCH   1  42
TORSDOF 14
