REMARK  7 active torsions:
REMARK  status: ('A' for Active; 'I' for Inactive)
REMARK    1  A    between atoms: C7_5  and  C8_6 
REMARK    2  A    between atoms: N2_7  and  C18_27 
REMARK    3  A    between atoms: C11_10  and  C12_11 
REMARK    4  A    between atoms: C12_11  and  C13_13 
REMARK    5  A    between atoms: C13_13  and  C14_14 
REMARK       I    between atoms: C14_14  and  N4_16 
REMARK    6  A    between atoms: N4_16  and  C15_15 
REMARK    7  A    between atoms: N4_16  and  C16_20 
ROOT
ATOM      1  C13 79T d   1      36.425  29.197  47.991  0.00  0.00     0.113 C 
ATOM      2  N5  79T d   1      35.395  28.994  45.652  0.00  0.00    -0.196 NA
ATOM      3  C17 79T d   1      35.850  29.109  46.690  0.00  0.00     0.074 C 
ATOM      4  H9  79T d   1      37.428  29.279  47.547  0.00  0.00     0.078 H 
ENDROOT
BRANCH   1   5
ATOM      5  C12 79T d   1      36.793  28.061  48.615  0.00  0.00     0.003 C 
ATOM      6  H7  79T d   1      35.868  27.765  49.131  0.00  0.00     0.045 H 
ATOM      7  H8  79T d   1      36.978  27.378  47.773  0.00  0.00     0.045 H 
BRANCH   5   8
ATOM      8  C11 79T d   1      37.788  27.680  49.537  0.00  0.00     0.055 A 
ATOM      9  C10 79T d   1      38.918  28.348  49.816  0.00  0.00    -0.051 A 
ATOM     10  C9  79T d   1      39.577  27.645  50.849  0.00  0.00    -0.044 A 
ATOM     11  H6  79T d   1      39.263  29.262  49.335  0.00  0.00     0.087 H 
ATOM     12  C8  79T d   1      38.802  26.589  51.169  0.00  0.00     0.121 A 
ATOM     13  H5  79T d   1      40.532  27.907  51.302  0.00  0.00     0.088 H 
ATOM     14  O   79T d   1      37.683  26.573  50.350  0.00  0.00    -0.311 OA
BRANCH  12  15
ATOM     15  C7  79T d   1      38.964  25.561  52.168  0.00  0.00     0.165 A 
ATOM     16  N2  79T d   1      38.008  25.027  53.002  0.00  0.00    -0.322 N 
ATOM     17  C1  79T d   1      38.646  24.011  53.760  0.00  0.00     0.081 A 
ATOM     18  C   79T d   1      39.983  24.056  53.276  0.00  0.00     0.104 A 
ATOM     19  C2  79T d   1      38.312  23.042  54.738  0.00  0.00     0.041 A 
ATOM     20  C4  79T d   1      40.914  23.144  53.750  0.00  0.00     0.035 A 
ATOM     21  N3  79T d   1      40.155  25.022  52.321  0.00  0.00    -0.225 NA
ATOM     22  N   79T d   1      40.641  22.177  54.611  0.00  0.00    -0.240 NA
ATOM     23  H1  79T d   1      41.933  23.229  53.391  0.00  0.00     0.118 H 
ATOM     24  C3  79T d   1      39.369  22.169  55.100  0.00  0.00     0.139 A 
ATOM     25  N1  79T d   1      38.869  21.299  56.016  0.00  0.00    -0.350 N 
ATOM     26  C6  79T d   1      37.542  21.581  56.256  0.00  0.00    -0.020 A 
ATOM     27  H4  79T d   1      39.403  20.541  56.465  0.00  0.00     0.166 HD
ATOM     28  C5  79T d   1      37.158  22.646  55.512  0.00  0.00    -0.052 A 
ATOM     29  H3  79T d   1      36.898  21.031  56.941  0.00  0.00     0.111 H 
ATOM     30  H2  79T d   1      36.174  23.112  55.500  0.00  0.00     0.087 H 
BRANCH  16  31
ATOM     31  C18 79T d   1      36.591  25.420  53.087  0.00  0.00     0.019 C 
ATOM     32  C20 79T d   1      36.229  25.999  54.444  0.00  0.00    -0.046 C 
ATOM     33  C21 79T d   1      34.752  26.395  54.476  0.00  0.00    -0.063 C 
ATOM     34  H17 79T d   1      36.847  26.888  54.636  0.00  0.00     0.036 H 
ATOM     35  H18 79T d   1      36.419  25.245  55.222  0.00  0.00     0.036 H 
ATOM     36  C22 79T d   1      33.859  25.245  54.091  0.00  0.00    -0.065 C 
ATOM     37  H19 79T d   1      34.590  27.224  53.771  0.00  0.00     0.033 H 
ATOM     38  H20 79T d   1      34.493  26.723  55.493  0.00  0.00     0.033 H 
ATOM     39  C23 79T d   1      34.210  24.734  52.709  0.00  0.00    -0.063 C 
ATOM     40  H21 79T d   1      32.812  25.583  54.096  0.00  0.00     0.033 H 
ATOM     41  H22 79T d   1      33.985  24.431  54.820  0.00  0.00     0.033 H 
ATOM     42  C19 79T d   1      35.669  24.293  52.652  0.00  0.00    -0.046 C 
ATOM     43  H23 79T d   1      34.047  25.537  51.975  0.00  0.00     0.033 H 
ATOM     44  H24 79T d   1      33.564  23.877  52.466  0.00  0.00     0.033 H 
ATOM     45  H25 79T d   1      35.812  23.432  53.321  0.00  0.00     0.036 H 
ATOM     46  H26 79T d   1      35.917  24.001  51.621  0.00  0.00     0.036 H 
ATOM     47  H16 79T d   1      36.449  26.233  52.360  0.00  0.00     0.073 H 
ENDBRANCH  16  31
ENDBRANCH  12  15
ENDBRANCH   5   8
ENDBRANCH   1   5
BRANCH   1  48
ATOM     48  C14 79T d   1      36.613  30.533  48.647  0.00  0.00     0.237 C 
ATOM     49  N4  79T d   1      37.221  31.534  47.999  0.00  0.00    -0.360 N 
ATOM     50  O1  79T d   1      36.124  30.684  49.755  0.00  0.00    -0.272 OA
BRANCH  49  51
ATOM     51  C15 79T d   1      37.242  32.877  48.599  0.00  0.00    -0.017 C 
ATOM     52  H10 79T d   1      37.780  33.568  47.933  0.00  0.00     0.056 H 
ATOM     53  H11 79T d   1      37.751  32.836  49.573  0.00  0.00     0.056 H 
ATOM     54  H12 79T d   1      36.210  33.232  48.739  0.00  0.00     0.056 H 
ENDBRANCH  49  51
BRANCH  49  55
ATOM     55  C16 79T d   1      37.968  31.452  46.740  0.00  0.00    -0.017 C 
ATOM     56  H13 79T d   1      37.912  30.426  46.347  0.00  0.00     0.056 H 
ATOM     57  H14 79T d   1      39.020  31.719  46.920  0.00  0.00     0.056 H 
ATOM     58  H15 79T d   1      37.532  32.149  46.009  0.00  0.00     0.056 H 
ENDBRANCH  49  55
ENDBRANCH   1  48
TORSDOF 7
