REMARK  30 active torsions:
REMARK  status: ('A' for Active; 'I' for Inactive)
REMARK    1  A    between atoms: CA_2  and  C_3 
REMARK       I    between atoms: C_3  and  N_8 
REMARK    2  A    between atoms: N_8  and  CA_9 
REMARK    3  A    between atoms: CA_9  and  C_10 
REMARK    4  A    between atoms: CA_9  and  CB_12 
REMARK       I    between atoms: C_10  and  N_15 
REMARK    5  A    between atoms: CB_12  and  OG1_13 
REMARK    6  A    between atoms: CB_12  and  CG2_14 
REMARK    7  A    between atoms: N_15  and  CA_16 
REMARK    8  A    between atoms: CA_16  and  C_17 
REMARK    9  A    between atoms: CA_16  and  CB_19 
REMARK       I    between atoms: C_17  and  N_22 
REMARK   10  A    between atoms: CB_19  and  CG1_20 
REMARK   11  A    between atoms: CB_19  and  CG2_21 
REMARK   12  A    between atoms: N_22  and  CA_23 
REMARK   13  A    between atoms: CA_23  and  C_24 
REMARK   14  A    between atoms: CA_23  and  CB_26 
REMARK       I    between atoms: C_24  and  N_31 
REMARK   15  A    between atoms: CB_26  and  CG_27 
REMARK   16  A    between atoms: CG_27  and  CD_28 
REMARK   17  A    between atoms: N_31  and  CA_32 
REMARK   18  A    between atoms: CA_32  and  C_33 
REMARK   19  A    between atoms: CA_32  and  CB_35 
REMARK       I    between atoms: C_33  and  N_40 
REMARK   20  A    between atoms: CB_35  and  CG_36 
REMARK   21  A    between atoms: CG_36  and  CD_37 
REMARK   22  A    between atoms: N_40  and  CA_41 
REMARK   23  A    between atoms: CA_41  and  C_42 
REMARK   24  A    between atoms: CA_41  and  CB_44 
REMARK       I    between atoms: C_42  and  N_47 
REMARK   25  A    between atoms: CB_44  and  CG1_45 
REMARK   26  A    between atoms: CB_44  and  CG2_46 
REMARK   27  A    between atoms: N_47  and  CA_48 
REMARK   28  A    between atoms: CA_48  and  C_49 
REMARK   29  A    between atoms: CA_48  and  CB_51 
REMARK   30  A    between atoms: CB_51  and  CG_52 
ROOT
ATOM      1  CA  GLU d   1       5.370   6.557 -34.105  0.00  0.00     0.090 C 
ATOM      2  H27 GLU d   1       5.128   6.054 -33.157  0.00  0.00     0.087 H 
ENDROOT
BRANCH   1   3
ATOM      3  N   GLU d   1       6.818   6.676 -34.199  0.00  0.00    -0.346 N 
ATOM      4  C   VAL d   1       7.627   5.710 -33.771  0.00  0.00     0.241 C 
ATOM      5  O   VAL d   1       7.212   4.604 -33.414  0.00  0.00    -0.271 OA
ATOM      6  H26 GLU d   1       7.215   7.504 -34.595  0.00  0.00     0.163 HD
BRANCH   4   7
ATOM      7  CA  VAL d   1       9.115   6.040 -33.734  0.00  0.00     0.092 C 
ATOM      8  H18 VAL d   1       9.298   6.951 -34.323  0.00  0.00     0.088 H 
BRANCH   7   9
ATOM      9  N   VAL d   1       9.443   6.298 -32.337  0.00  0.00    -0.346 N 
ATOM     10  C   THR d   1       9.586   7.522 -31.841  0.00  0.00     0.243 C 
ATOM     11  O   THR d   1       9.581   8.540 -32.543  0.00  0.00    -0.271 OA
ATOM     12  H17 VAL d   1       9.566   5.518 -31.724  0.00  0.00     0.163 HD
BRANCH  10  13
ATOM     13  CA  THR d   1       9.797   7.612 -30.335  0.00  0.00     0.113 C 
ATOM     14  H11 THR d   1       9.851   6.592 -29.927  0.00  0.00     0.091 H 
BRANCH  13  15
ATOM     15  N   THR d   1      11.056   8.291 -30.048  0.00  0.00    -0.344 N 
ATOM     16  C   PRO d   1      12.206   7.793 -30.506  0.00  0.00     0.249 C 
ATOM     17  O   PRO d   1      12.273   6.766 -31.183  0.00  0.00    -0.271 OA
ATOM     18  H10 THR d   1      11.057   9.132 -29.507  0.00  0.00     0.163 HD
BRANCH  16  19
ATOM     19  CA  PRO d   1      13.498   8.531 -30.165  0.00  0.00     0.178 C 
ATOM     20  N   PRO d   1      14.470   7.658 -29.510  0.00  0.00    -0.062 N 
ATOM     21  CD  PRO d   1      15.265   6.915 -30.500  0.00  0.00     0.083 C 
ATOM     22  H1  PRO d   1      13.980   7.002 -28.922  0.00  0.00     0.278 HD
ATOM     23  H2  PRO d   1      15.088   8.219 -28.945  0.00  0.00     0.278 HD
ATOM     24  CG  PRO d   1      15.161   7.776 -31.738  0.00  0.00    -0.040 C 
ATOM     25  H8  PRO d   1      14.841   5.915 -30.677  0.00  0.00     0.075 H 
ATOM     26  H9  PRO d   1      16.311   6.817 -30.174  0.00  0.00     0.075 H 
ATOM     27  CB  PRO d   1      14.232   8.951 -31.433  0.00  0.00    -0.028 C 
ATOM     28  H6  PRO d   1      16.157   8.152 -32.014  0.00  0.00     0.035 H 
ATOM     29  H7  PRO d   1      14.750   7.184 -32.569  0.00  0.00     0.035 H 
ATOM     30  H4  PRO d   1      14.810   9.871 -31.262  0.00  0.00     0.036 H 
ATOM     31  H5  PRO d   1      13.523   9.112 -32.259  0.00  0.00     0.036 H 
ATOM     32  H3  PRO d   1      13.264   9.402 -29.535  0.00  0.00     0.099 H 
ENDBRANCH  16  19
ENDBRANCH  13  15
BRANCH  13  33
ATOM     33  CB  THR d   1       8.615   8.333 -29.677  0.00  0.00     0.060 C 
ATOM     34  H12 THR d   1       8.673   9.405 -29.919  0.00  0.00     0.086 H 
BRANCH  33  35
ATOM     35  OG1 THR d   1       8.668   8.168 -28.253  0.00  0.00    -0.393 OA
ATOM     36  H13 THR d   1       7.932   8.618 -27.856  0.00  0.00     0.210 HD
ENDBRANCH  33  35
BRANCH  33  37
ATOM     37  CG2 THR d   1       7.294   7.778 -30.194  0.00  0.00    -0.050 C 
ATOM     38  H14 THR d   1       6.460   8.307 -29.711  0.00  0.00     0.031 H 
ATOM     39  H15 THR d   1       7.231   6.705 -29.961  0.00  0.00     0.031 H 
ATOM     40  H16 THR d   1       7.237   7.921 -31.283  0.00  0.00     0.031 H 
ENDBRANCH  33  37
ENDBRANCH  13  33
ENDBRANCH  10  13
ENDBRANCH   7   9
BRANCH   7  41
ATOM     41  CB  VAL d   1       9.969   4.915 -34.322  0.00  0.00    -0.033 C 
ATOM     42  H19 VAL d   1       9.763   3.990 -33.764  0.00  0.00     0.042 H 
BRANCH  41  43
ATOM     43  CG1 VAL d   1       9.607   4.690 -35.777  0.00  0.00    -0.071 C 
ATOM     44  H20 VAL d   1      10.227   3.880 -36.188  0.00  0.00     0.028 H 
ATOM     45  H21 VAL d   1       9.786   5.614 -36.347  0.00  0.00     0.028 H 
ATOM     46  H22 VAL d   1       8.545   4.413 -35.852  0.00  0.00     0.028 H 
ENDBRANCH  41  43
BRANCH  41  47
ATOM     47  CG2 VAL d   1      11.451   5.246 -34.177  0.00  0.00    -0.071 C 
ATOM     48  H23 VAL d   1      11.689   5.405 -33.115  0.00  0.00     0.028 H 
ATOM     49  H24 VAL d   1      11.680   6.160 -34.745  0.00  0.00     0.028 H 
ATOM     50  H25 VAL d   1      12.053   4.412 -34.567  0.00  0.00     0.028 H 
ENDBRANCH  41  47
ENDBRANCH   7  41
ENDBRANCH   4   7
ENDBRANCH   1   3
BRANCH   1  51
ATOM     51  C   GLU d   1       4.803   5.719 -35.247  0.00  0.00     0.241 C 
ATOM     52  O   GLU d   1       5.257   5.807 -36.392  0.00  0.00    -0.271 OA
ATOM     53  N   GLU d   1       3.811   4.894 -34.918  0.00  0.00    -0.346 N 
ATOM     54  H32 GLU d   1       3.547   4.815 -33.957  0.00  0.00     0.163 HD
BRANCH  53  55
ATOM     55  CA  GLU d   1       3.097   4.103 -35.910  0.00  0.00     0.090 C 
ATOM     56  H33 GLU d   1       3.832   3.544 -36.508  0.00  0.00     0.087 H 
BRANCH  55  57
ATOM     57  C   GLU d   1       2.288   5.001 -36.843  0.00  0.00     0.241 C 
ATOM     58  O   GLU d   1       1.827   6.081 -36.462  0.00  0.00    -0.271 OA
ATOM     59  N   VAL d   1       2.107   4.529 -38.078  0.00  0.00    -0.346 N 
ATOM     60  H38 VAL d   1       2.506   3.642 -38.313  0.00  0.00     0.163 HD
BRANCH  59  61
ATOM     61  CA  VAL d   1       1.354   5.247 -39.103  0.00  0.00     0.092 C 
ATOM     62  H39 VAL d   1       1.722   6.283 -39.139  0.00  0.00     0.088 H 
BRANCH  61  63
ATOM     63  C   VAL d   1      -0.131   5.279 -38.755  0.00  0.00     0.241 C 
ATOM     64  O   VAL d   1      -0.593   4.529 -37.888  0.00  0.00    -0.271 OA
ATOM     65  N   ASP d   1      -0.891   6.131 -39.443  0.00  0.00    -0.344 N 
ATOM     66  H47 ASP d   1      -0.480   6.662 -40.184  0.00  0.00     0.163 HD
BRANCH  65  67
ATOM     67  CA  ASP d   1      -2.312   6.308 -39.140  0.00  0.00     0.105 C 
ATOM     68  H48 ASP d   1      -2.576   5.594 -38.346  0.00  0.00     0.090 H 
BRANCH  67  69
ATOM     69  C   ASP d   1      -3.224   6.028 -40.341  0.00  0.00     0.197 C 
ATOM     70  O   ASP d   1      -4.451   6.100 -40.232  0.00  0.00    -0.646 OA
ATOM     71  OXT ASP d   1      -2.777   5.725 -41.449  0.00  0.00    -0.646 OA
ENDBRANCH  67  69
BRANCH  67  72
ATOM     72  CB  ASP d   1      -2.563   7.727 -38.616  0.00  0.00     0.044 C 
ATOM     73  H49 ASP d   1      -3.616   7.808 -38.309  0.00  0.00     0.053 H 
ATOM     74  H50 ASP d   1      -2.361   8.443 -39.426  0.00  0.00     0.053 H 
BRANCH  72  75
ATOM     75  CG  ASP d   1      -1.680   8.075 -37.426  0.00  0.00     0.175 C 
ATOM     76  OD1 ASP d   1      -1.217   9.233 -37.343  0.00  0.00    -0.648 OA
ATOM     77  OD2 ASP d   1      -1.446   7.188 -36.576  0.00  0.00    -0.648 OA
ENDBRANCH  72  75
ENDBRANCH  67  72
ENDBRANCH  65  67
ENDBRANCH  61  63
BRANCH  61  78
ATOM     78  CB  VAL d   1       1.577   4.608 -40.483  0.00  0.00    -0.033 C 
ATOM     79  H40 VAL d   1       0.894   5.080 -41.205  0.00  0.00     0.042 H 
BRANCH  78  80
ATOM     80  CG1 VAL d   1       3.006   4.846 -40.944  0.00  0.00    -0.071 C 
ATOM     81  H41 VAL d   1       3.154   4.385 -41.932  0.00  0.00     0.028 H 
ATOM     82  H42 VAL d   1       3.704   4.398 -40.222  0.00  0.00     0.028 H 
ATOM     83  H43 VAL d   1       3.194   5.928 -41.013  0.00  0.00     0.028 H 
ENDBRANCH  78  80
BRANCH  78  84
ATOM     84  CG2 VAL d   1       1.264   3.123 -40.424  0.00  0.00    -0.071 C 
ATOM     85  H44 VAL d   1       0.226   2.980 -40.088  0.00  0.00     0.028 H 
ATOM     86  H45 VAL d   1       1.949   2.632 -39.717  0.00  0.00     0.028 H 
ATOM     87  H46 VAL d   1       1.390   2.682 -41.424  0.00  0.00     0.028 H 
ENDBRANCH  78  84
ENDBRANCH  61  78
ENDBRANCH  59  61
ENDBRANCH  55  57
BRANCH  55  88
ATOM     88  CB  GLU d   1       2.165   3.106 -35.215  0.00  0.00    -0.029 C 
ATOM     89  H34 GLU d   1       1.373   3.677 -34.708  0.00  0.00     0.037 H 
ATOM     90  H35 GLU d   1       2.754   2.552 -34.469  0.00  0.00     0.037 H 
BRANCH  88  91
ATOM     91  CG  GLU d   1       1.498   2.091 -36.138  0.00  0.00     0.018 C 
ATOM     92  H36 GLU d   1       2.174   1.233 -36.265  0.00  0.00     0.049 H 
ATOM     93  H37 GLU d   1       1.321   2.566 -37.114  0.00  0.00     0.049 H 
BRANCH  91  94
ATOM     94  CD  GLU d   1       0.171   1.589 -35.593  0.00  0.00     0.172 C 
ATOM     95  OE1 GLU d   1      -0.633   2.422 -35.118  0.00  0.00    -0.648 OA
ATOM     96  OE2 GLU d   1      -0.068   0.362 -35.636  0.00  0.00    -0.648 OA
ENDBRANCH  91  94
ENDBRANCH  88  91
ENDBRANCH  55  88
ENDBRANCH  53  55
ENDBRANCH   1  51
BRANCH   1  97
ATOM     97  CB  GLU d   1       4.726   7.948 -34.093  0.00  0.00    -0.029 C 
ATOM     98  H28 GLU d   1       3.668   7.840 -34.374  0.00  0.00     0.037 H 
ATOM     99  H29 GLU d   1       5.242   8.573 -34.837  0.00  0.00     0.037 H 
BRANCH  97 100
ATOM    100  CG  GLU d   1       4.793   8.663 -32.734  0.00  0.00     0.018 C 
ATOM    101  H30 GLU d   1       5.233   7.972 -32.000  0.00  0.00     0.049 H 
ATOM    102  H31 GLU d   1       3.769   8.921 -32.427  0.00  0.00     0.049 H 
BRANCH 100 103
ATOM    103  CD  GLU d   1       5.628   9.943 -32.751  0.00  0.00     0.172 C 
ATOM    104  OE1 GLU d   1       6.170  10.303 -33.823  0.00  0.00    -0.648 OA
ATOM    105  OE2 GLU d   1       5.742  10.591 -31.683  0.00  0.00    -0.648 OA
ENDBRANCH 100 103
ENDBRANCH  97 100
ENDBRANCH   1  97
TORSDOF 30
