REMARK  6 active torsions:
REMARK  status: ('A' for Active; 'I' for Inactive)
REMARK    1  A    between atoms: C2_2  and  C1_1 
REMARK    2  A    between atoms: C2_2  and  C3_3 
REMARK    3  A    between atoms: C7_5  and  C6_4 
REMARK    4  A    between atoms: C6_4  and  N5_12 
REMARK    5  A    between atoms: O8_13  and  C7_5 
REMARK    6  A    between atoms: O8_13  and  C9_14 
ROOT
ATOM      1  C10 7BW d   1      24.047   6.958  -4.126  0.00  0.00    -0.048 A 
ATOM      2  C11 7BW d   1      23.268   7.719  -4.974  0.00  0.00    -0.042 A 
ATOM      3  C12 7BW d   1      22.556   8.780  -4.475  0.00  0.00     0.137 A 
ATOM      4  C14 7BW d   1      22.593   9.115  -3.130  0.00  0.00     0.085 A 
ATOM      5  C15 7BW d   1      21.853  10.217  -2.614  0.00  0.00     0.102 C 
ATOM      6  C9  7BW d   1      24.109   7.266  -2.769  0.00  0.00     0.070 A 
ATOM      7  F13 7BW d   1      21.793   9.524  -5.310  0.00  0.00    -0.204 F 
ATOM      8  N16 7BW d   1      21.251  11.113  -2.195  0.00  0.00    -0.191 NA
ATOM      9  C17 7BW d   1      23.384   8.342  -2.273  0.00  0.00    -0.028 A 
ATOM     10  H11 7BW d   1      24.611   6.119  -4.517  0.00  0.00     0.087 H 
ATOM     11  H12 7BW d   1      23.219   7.479  -6.030  0.00  0.00     0.088 H 
ATOM     12  H15 7BW d   1      23.431   8.584  -1.217  0.00  0.00     0.090 H 
ENDROOT
BRANCH   6  13
ATOM     13  O8  7BW d   1      24.851   6.574  -1.841  0.00  0.00    -0.349 OA
BRANCH  13  14
ATOM     14  C7  7BW d   1      25.477   5.341  -2.232  0.00  0.00     0.041 C 
ATOM     15  H9  7BW d   1      24.709   4.621  -2.552  0.00  0.00     0.077 H 
ATOM     16  H10 7BW d   1      26.174   5.527  -3.062  0.00  0.00     0.077 H 
BRANCH  14  17
ATOM     17  C6  7BW d   1      26.236   4.784  -1.043  0.00  0.00     0.018 C 
ATOM     18  H7  7BW d   1      25.516   4.551  -0.245  0.00  0.00     0.067 H 
ATOM     19  H8  7BW d   1      26.942   5.549  -0.688  0.00  0.00     0.067 H 
BRANCH  17  20
ATOM     20  N5  7BW d   1      26.981   3.578  -1.360  0.00  0.00    -0.349 N 
ATOM     21  C4  7BW d   1      26.345   2.267  -1.407  0.00  0.00     0.004 A 
ATOM     22  C2  7BW d   1      27.506   1.258  -1.644  0.00  0.00    -0.023 A 
ATOM     23  H13 7BW d   1      25.835   2.052  -0.457  0.00  0.00     0.065 H 
ATOM     24  H14 7BW d   1      25.619   2.220  -2.232  0.00  0.00     0.065 H 
ATOM     25  C20 7BW d   1      28.750   2.155  -1.866  0.00  0.00     0.017 A 
ATOM     26  C18 7BW d   1      28.292   3.567  -1.638  0.00  0.00     0.220 A 
ATOM     27  H16 7BW d   1      29.127   2.037  -2.893  0.00  0.00     0.048 H 
ATOM     28  H17 7BW d   1      29.543   1.891  -1.151  0.00  0.00     0.048 H 
ATOM     29  O19 7BW d   1      29.004   4.560  -1.697  0.00  0.00    -0.273 OA
BRANCH  22  30
ATOM     30  C1  7BW d   1      27.702   0.350  -0.415  0.00  0.00    -0.067 C 
ATOM     31  H1  7BW d   1      26.809  -0.277  -0.276  0.00  0.00     0.028 H 
ATOM     32  H2  7BW d   1      27.856   0.972   0.479  0.00  0.00     0.028 H 
ATOM     33  H3  7BW d   1      28.581  -0.293  -0.571  0.00  0.00     0.028 H 
ENDBRANCH  22  30
BRANCH  22  34
ATOM     34  C3  7BW d   1      27.226   0.393  -2.889  0.00  0.00    -0.067 C 
ATOM     35  H4  7BW d   1      27.087   1.044  -3.764  0.00  0.00     0.028 H 
ATOM     36  H5  7BW d   1      26.315  -0.201  -2.725  0.00  0.00     0.028 H 
ATOM     37  H6  7BW d   1      28.077  -0.281  -3.066  0.00  0.00     0.028 H 
ENDBRANCH  22  34
ENDBRANCH  17  20
ENDBRANCH  14  17
ENDBRANCH  13  14
ENDBRANCH   6  13
TORSDOF 6
