REMARK  6 active torsions:
REMARK  status: ('A' for Active; 'I' for Inactive)
REMARK    1  A    between atoms: C2_2  and  C1_1 
REMARK    2  A    between atoms: C20_25  and  C2_2 
REMARK    3  A    between atoms: N4_4  and  C5_5 
REMARK    4  A    between atoms: C5_5  and  C6_6 
REMARK    5  A    between atoms: C6_6  and  O7_19 
REMARK    6  A    between atoms: O7_19  and  C8_7 
ROOT
ATOM      1  C8  7K4 d   1      24.739   7.634  -3.030  0.00  0.00     0.070 A 
ATOM      2  C10 7K4 d   1      23.797   8.144  -5.175  0.00  0.00    -0.042 A 
ATOM      3  C11 7K4 d   1      23.085   9.165  -4.600  0.00  0.00     0.137 A 
ATOM      4  C13 7K4 d   1      23.175   9.448  -3.250  0.00  0.00     0.085 A 
ATOM      5  C14 7K4 d   1      22.415  10.528  -2.672  0.00  0.00     0.102 C 
ATOM      6  C16 7K4 d   1      24.013   8.671  -2.460  0.00  0.00    -0.028 A 
ATOM      7  C9  7K4 d   1      24.628   7.373  -4.390  0.00  0.00    -0.048 A 
ATOM      8  F12 7K4 d   1      22.270   9.921  -5.370  0.00  0.00    -0.204 F 
ATOM      9  N15 7K4 d   1      21.815  11.380  -2.217  0.00  0.00    -0.191 NA
ATOM     10  H10 7K4 d   1      23.707   7.945  -6.237  0.00  0.00     0.088 H 
ATOM     11  H11 7K4 d   1      24.100   8.874  -1.399  0.00  0.00     0.090 H 
ATOM     12  H19 7K4 d   1      25.195   6.563  -4.834  0.00  0.00     0.087 H 
ENDROOT
BRANCH   1  13
ATOM     13  O7  7K4 d   1      25.527   6.940  -2.151  0.00  0.00    -0.349 OA
BRANCH  13  14
ATOM     14  C6  7K4 d   1      26.267   5.815  -2.638  0.00  0.00     0.041 C 
ATOM     15  H8  7K4 d   1      25.583   5.097  -3.113  0.00  0.00     0.077 H 
ATOM     16  H9  7K4 d   1      27.014   6.150  -3.372  0.00  0.00     0.077 H 
BRANCH  14  17
ATOM     17  C5  7K4 d   1      26.956   5.166  -1.471  0.00  0.00     0.018 C 
ATOM     18  H6  7K4 d   1      27.729   5.851  -1.093  0.00  0.00     0.067 H 
ATOM     19  H7  7K4 d   1      26.212   4.981  -0.682  0.00  0.00     0.067 H 
BRANCH  17  20
ATOM     20  N4  7K4 d   1      27.585   3.904  -1.821  0.00  0.00    -0.349 N 
ATOM     21  C3  7K4 d   1      26.859   2.640  -1.816  0.00  0.00     0.009 C 
ATOM     22  C2  7K4 d   1      27.795   1.673  -2.581  0.00  0.00     0.008 C 
ATOM     23  H4  7K4 d   1      26.690   2.289  -0.787  0.00  0.00     0.066 H 
ATOM     24  H5  7K4 d   1      25.893   2.741  -2.333  0.00  0.00     0.066 H 
ATOM     25  C19 7K4 d   1      29.167   2.289  -2.218  0.00  0.00     0.021 C 
ATOM     26  C17 7K4 d   1      28.892   3.760  -2.074  0.00  0.00     0.221 C 
ATOM     27  H12 7K4 d   1      29.899   2.107  -3.018  0.00  0.00     0.048 H 
ATOM     28  H13 7K4 d   1      29.544   1.870  -1.274  0.00  0.00     0.048 H 
ATOM     29  O18 7K4 d   1      29.700   4.674  -2.169  0.00  0.00    -0.273 OA
BRANCH  22  30
ATOM     30  C1  7K4 d   1      27.561   1.771  -4.087  0.00  0.00    -0.063 C 
ATOM     31  H1  7K4 d   1      27.726   2.807  -4.417  0.00  0.00     0.029 H 
ATOM     32  H2  7K4 d   1      26.528   1.473  -4.318  0.00  0.00     0.029 H 
ATOM     33  H3  7K4 d   1      28.261   1.103  -4.611  0.00  0.00     0.029 H 
ENDBRANCH  22  30
BRANCH  22  34
ATOM     34  C20 7K4 d   1      27.553   0.218  -2.179  0.00  0.00    -0.048 A 
ATOM     35  C21 7K4 d   1      28.613  -0.671  -2.032  0.00  0.00    -0.076 A 
ATOM     36  C22 7K4 d   1      28.383  -1.983  -1.670  0.00  0.00    -0.082 A 
ATOM     37  H14 7K4 d   1      29.628  -0.331  -2.203  0.00  0.00     0.084 H 
ATOM     38  C23 7K4 d   1      27.101  -2.425  -1.450  0.00  0.00    -0.083 A 
ATOM     39  H15 7K4 d   1      29.217  -2.667  -1.559  0.00  0.00     0.083 H 
ATOM     40  C24 7K4 d   1      26.043  -1.560  -1.591  0.00  0.00    -0.082 A 
ATOM     41  H16 7K4 d   1      26.924  -3.456  -1.165  0.00  0.00     0.083 H 
ATOM     42  C25 7K4 d   1      26.263  -0.248  -1.952  0.00  0.00    -0.076 A 
ATOM     43  H17 7K4 d   1      25.032  -1.910  -1.418  0.00  0.00     0.083 H 
ATOM     44  H18 7K4 d   1      25.422   0.427  -2.060  0.00  0.00     0.084 H 
ENDBRANCH  22  34
ENDBRANCH  17  20
ENDBRANCH  14  17
ENDBRANCH  13  14
ENDBRANCH   1  13
TORSDOF 6
