REMARK  6 active torsions:
REMARK  status: ('A' for Active; 'I' for Inactive)
REMARK    1  A    between atoms: C2_2  and  C1_1 
REMARK    2  A    between atoms: C20_25  and  C2_2 
REMARK    3  A    between atoms: N4_4  and  C5_5 
REMARK    4  A    between atoms: C5_5  and  C6_6 
REMARK    5  A    between atoms: C6_6  and  O7_19 
REMARK    6  A    between atoms: O7_19  and  C8_7 
ROOT
ATOM      1  C8  7BK d   1      23.924   7.322  -2.841  0.00  0.00     0.070 A 
ATOM      2  C10 7BK d   1      23.066   7.771  -5.038  0.00  0.00    -0.042 A 
ATOM      3  C11 7BK d   1      22.372   8.842  -4.533  0.00  0.00     0.137 A 
ATOM      4  C13 7BK d   1      22.430   9.181  -3.191  0.00  0.00     0.085 A 
ATOM      5  C14 7BK d   1      21.707  10.299  -2.665  0.00  0.00     0.102 C 
ATOM      6  C16 7BK d   1      23.219   8.407  -2.341  0.00  0.00    -0.028 A 
ATOM      7  C9  7BK d   1      23.844   7.008  -4.194  0.00  0.00    -0.048 A 
ATOM      8  F12 7BK d   1      21.608   9.590  -5.364  0.00  0.00    -0.204 F 
ATOM      9  N15 7BK d   1      21.124  11.198  -2.242  0.00  0.00    -0.191 NA
ATOM     10  H10 7BK d   1      23.003   7.527  -6.092  0.00  0.00     0.088 H 
ATOM     11  H11 7BK d   1      23.282   8.654  -1.287  0.00  0.00     0.090 H 
ATOM     12  H19 7BK d   1      24.395   6.161  -4.586  0.00  0.00     0.087 H 
ENDROOT
BRANCH   1  13
ATOM     13  O7  7BK d   1      24.665   6.633  -1.914  0.00  0.00    -0.349 OA
BRANCH  13  14
ATOM     14  C6  7BK d   1      25.397   5.477  -2.348  0.00  0.00     0.041 C 
ATOM     15  H8  7BK d   1      24.713   4.768  -2.837  0.00  0.00     0.077 H 
ATOM     16  H9  7BK d   1      26.180   5.780  -3.058  0.00  0.00     0.077 H 
BRANCH  14  17
ATOM     17  C5  7BK d   1      26.029   4.824  -1.143  0.00  0.00     0.018 C 
ATOM     18  H6  7BK d   1      26.690   5.554  -0.653  0.00  0.00     0.067 H 
ATOM     19  H7  7BK d   1      25.232   4.525  -0.446  0.00  0.00     0.067 H 
BRANCH  17  20
ATOM     20  N4  7BK d   1      26.808   3.650  -1.489  0.00  0.00    -0.349 N 
ATOM     21  C3  7BK d   1      26.192   2.348  -1.693  0.00  0.00     0.009 C 
ATOM     22  C2  7BK d   1      27.382   1.359  -1.828  0.00  0.00     0.008 C 
ATOM     23  H4  7BK d   1      25.561   2.079  -0.833  0.00  0.00     0.066 H 
ATOM     24  H5  7BK d   1      25.583   2.348  -2.609  0.00  0.00     0.066 H 
ATOM     25  C19 7BK d   1      28.608   2.292  -2.026  0.00  0.00     0.021 C 
ATOM     26  C17 7BK d   1      28.109   3.690  -1.792  0.00  0.00     0.221 C 
ATOM     27  H12 7BK d   1      29.002   2.193  -3.048  0.00  0.00     0.048 H 
ATOM     28  H13 7BK d   1      29.398   2.043  -1.303  0.00  0.00     0.048 H 
ATOM     29  O18 7BK d   1      28.778   4.712  -1.864  0.00  0.00    -0.273 OA
BRANCH  22  30
ATOM     30  C1  7BK d   1      27.514   0.556  -0.523  0.00  0.00    -0.063 C 
ATOM     31  H1  7BK d   1      27.529   1.247   0.333  0.00  0.00     0.029 H 
ATOM     32  H2  7BK d   1      28.448  -0.024  -0.542  0.00  0.00     0.029 H 
ATOM     33  H3  7BK d   1      26.659  -0.129  -0.426  0.00  0.00     0.029 H 
ENDBRANCH  22  30
BRANCH  22  34
ATOM     34  C20 7BK d   1      27.360   0.401  -3.033  0.00  0.00    -0.048 A 
ATOM     35  C21 7BK d   1      26.235   0.274  -3.845  0.00  0.00    -0.076 A 
ATOM     36  C22 7BK d   1      26.233  -0.592  -4.923  0.00  0.00    -0.082 A 
ATOM     37  H14 7BK d   1      25.350   0.862  -3.629  0.00  0.00     0.084 H 
ATOM     38  C23 7BK d   1      27.349  -1.344  -5.210  0.00  0.00    -0.083 A 
ATOM     39  H15 7BK d   1      25.349  -0.679  -5.544  0.00  0.00     0.083 H 
ATOM     40  C24 7BK d   1      28.470  -1.235  -4.423  0.00  0.00    -0.082 A 
ATOM     41  H16 7BK d   1      27.344  -2.022  -6.056  0.00  0.00     0.083 H 
ATOM     42  C25 7BK d   1      28.480  -0.370  -3.342  0.00  0.00    -0.076 A 
ATOM     43  H17 7BK d   1      29.349  -1.828  -4.649  0.00  0.00     0.083 H 
ATOM     44  H18 7BK d   1      29.370  -0.291  -2.728  0.00  0.00     0.084 H 
ENDBRANCH  22  34
ENDBRANCH  17  20
ENDBRANCH  14  17
ENDBRANCH  13  14
ENDBRANCH   1  13
TORSDOF 6
