REMARK  9 active torsions:
REMARK  status: ('A' for Active; 'I' for Inactive)
REMARK    1  A    between atoms: PB_1  and  O3A_5 
REMARK    2  A    between atoms: O3A_5  and  PA_6 
REMARK    3  A    between atoms: PA_6  and  O5'_9 
REMARK    4  A    between atoms: O5'_9  and  C5'_10 
REMARK    5  A    between atoms: C5'_10  and  C4'_11 
REMARK    6  A    between atoms: C3'_13  and  O3'_14 
REMARK    7  A    between atoms: C2'_15  and  O2'_16 
REMARK    8  A    between atoms: C1'_17  and  N9_18 
REMARK    9  A    between atoms: C2_25  and  N2_26 
ROOT
ATOM      1  C4' GDP d   1      -1.946  43.031   9.415  0.00  0.00     0.089 C 
ATOM      2  O4' GDP d   1      -0.859  42.418  10.105  0.00  0.00    -0.353 OA
ATOM      3  C3' GDP d   1      -1.392  43.657   8.167  0.00  0.00     0.091 C 
ATOM      4  C2' GDP d   1      -0.056  42.967   7.982  0.00  0.00     0.105 C 
ATOM      5  C1' GDP d   1       0.353  42.607   9.407  0.00  0.00     0.139 C 
ATOM      6  H3  GDP d   1      -2.398  43.818  10.036  0.00  0.00     0.090 H 
ATOM      7  H4  GDP d   1      -2.064  43.531   7.306  0.00  0.00     0.091 H 
ATOM      8  H6  GDP d   1      -0.206  42.039   7.411  0.00  0.00     0.093 H 
ATOM      9  H8  GDP d   1       0.940  43.419   9.861  0.00  0.00     0.122 H 
ENDROOT
BRANCH   5  10
ATOM     10  N9  GDP d   1       1.162  41.331   9.404  0.00  0.00    -0.295 N 
ATOM     11  C8  GDP d   1       0.819  40.128   8.864  0.00  0.00     0.071 A 
ATOM     12  N7  GDP d   1       1.791  39.209   9.014  0.00  0.00    -0.234 NA
ATOM     13  H9  GDP d   1      -0.131  39.933   8.369  0.00  0.00     0.144 H 
ATOM     14  C5  GDP d   1       2.776  39.829   9.684  0.00  0.00     0.171 A 
ATOM     15  C6  GDP d   1       4.079  39.481  10.215  0.00  0.00     0.292 A 
ATOM     16  C4  GDP d   1       2.328  41.225   9.946  0.00  0.00     0.161 A 
ATOM     17  O6  GDP d   1       4.625  38.341  10.068  0.00  0.00    -0.265 OA
ATOM     18  N1  GDP d   1       4.748  40.475  10.848  0.00  0.00    -0.154 N 
ATOM     19  C2  GDP d   1       4.290  41.742  11.034  0.00  0.00     0.680 A 
ATOM     20  H10 GDP d   1       5.655  40.259  11.209  0.00  0.00     0.187 HD
ATOM     21  N3  GDP d   1       3.088  42.123  10.607  0.00  0.00    -0.174 N 
ATOM     22  H13 GDP d   1       2.747  43.080  10.777  0.00  0.00     0.186 HD
BRANCH  19  23
ATOM     23  N2  GDP d   1       5.036  42.661  11.705  0.00  0.00    -0.234 N 
ATOM     24  H11 GDP d   1       4.677  43.617  11.839  0.00  0.00     0.174 HD
ATOM     25  H12 GDP d   1       5.960  42.401  12.079  0.00  0.00     0.174 HD
ENDBRANCH  19  23
ENDBRANCH   5  10
BRANCH   4  26
ATOM     26  O2' GDP d   1       0.911  43.762   7.247  0.00  0.00    -0.388 OA
ATOM     27  H7  GDP d   1       1.072  44.574   7.714  0.00  0.00     0.210 HD
ENDBRANCH   4  26
BRANCH   1  28
ATOM     28  C5' GDP d   1      -2.969  41.955   9.170  0.00  0.00     0.058 C 
ATOM     29  H1  GDP d   1      -3.131  41.398  10.104  0.00  0.00     0.079 H 
ATOM     30  H2  GDP d   1      -3.912  42.425   8.855  0.00  0.00     0.079 H 
BRANCH  28  31
ATOM     31  O5' GDP d   1      -2.545  41.044   8.156  0.00  0.00    -0.287 OA
BRANCH  31  32
ATOM     32  PA  GDP d   1      -3.619  40.509   7.159  0.00  0.00     0.418 P 
ATOM     33  O1A GDP d   1      -2.796  39.665   6.193  0.00  0.00    -0.624 OA
ATOM     34  O2A GDP d   1      -4.393  41.664   6.646  0.00  0.00    -0.624 OA
BRANCH  32  35
ATOM     35  O3A GDP d   1      -4.631  39.723   8.185  0.00  0.00    -0.173 OA
BRANCH  35  36
ATOM     36  PB  GDP d   1      -5.934  38.809   7.847  0.00  0.00     0.431 P 
ATOM     37  O1B GDP d   1      -5.984  38.647   6.355  0.00  0.00    -0.616 OA
ATOM     38  O2B GDP d   1      -5.748  37.522   8.622  0.00  0.00    -0.616 OA
ATOM     39  O3B GDP d   1      -7.033  39.677   8.313  0.00  0.00    -0.616 OA
ENDBRANCH  35  36
ENDBRANCH  32  35
ENDBRANCH  31  32
ENDBRANCH  28  31
ENDBRANCH   1  28
BRANCH   3  40
ATOM     40  O3' GDP d   1      -1.086  45.043   8.407  0.00  0.00    -0.390 OA
ATOM     41  H5  GDP d   1      -1.878  45.501   8.663  0.00  0.00     0.210 HD
ENDBRANCH   3  40
TORSDOF 9
