REMARK  10 active torsions:
REMARK  status: ('A' for Active; 'I' for Inactive)
REMARK    1  A    between atoms: O3_18  and  C1_1 
REMARK    2  A    between atoms: C2_2  and  O2_7 
REMARK    3  A    between atoms: C3_3  and  O3_8 
REMARK    4  A    between atoms: C4_4  and  O4_9 
REMARK    5  A    between atoms: C5_5  and  C6_6 
REMARK    6  A    between atoms: C6_6  and  O6_11 
REMARK    7  A    between atoms: C4_13  and  O4_12 
REMARK    8  A    between atoms: C5_14  and  C6_15 
REMARK    9  A    between atoms: C6_15  and  O6_16 
REMARK   10  A    between atoms: C3_17  and  O3_18 
ROOT
ATOM      1  C1  MAN d   1       3.261  21.808   6.619  0.00  0.00     0.159 C 
ATOM      2  C2  MAN d   1       2.313  21.646   7.786  0.00  0.00     0.110 C 
ATOM      3  C3  MAN d   1       2.812  22.397   9.008  0.00  0.00     0.092 C 
ATOM      4  C4  MAN d   1       4.245  21.998   9.344  0.00  0.00     0.090 C 
ATOM      5  C5  MAN d   1       5.100  22.228   8.094  0.00  0.00     0.089 C 
ATOM      6  O5  MAN d   1       4.590  21.478   6.992  0.00  0.00    -0.348 OA
ATOM      7  H1  MAN d   1       2.961  21.118   5.817  0.00  0.00     0.133 H 
ATOM      8  H2  MAN d   1       1.327  22.043   7.504  0.00  0.00     0.094 H 
ATOM      9  H3  MAN d   1       2.792  23.476   8.794  0.00  0.00     0.091 H 
ATOM     10  H4  MAN d   1       4.285  20.939   9.639  0.00  0.00     0.091 H 
ATOM     11  H5  MAN d   1       5.104  23.300   7.850  0.00  0.00     0.090 H 
ENDROOT
BRANCH   1  12
ATOM     12  O3  7D1 d   1       3.107  23.140   6.144  0.00  0.00    -0.351 OA
BRANCH  12  13
ATOM     13  C3  7D1 d   1       3.569  23.349   4.790  0.00  0.00     0.070 C 
ATOM     14  C4  7D1 d   1       2.754  24.444   4.146  0.00  0.00     0.087 C 
ATOM     15  C5  7D1 d   1       3.322  24.741   2.755  0.00  0.00     0.085 C 
ATOM     16  H13 MAN d   1       2.785  25.352   4.766  0.00  0.00     0.091 H 
ATOM     17  O5  7D1 d   1       4.704  25.115   2.862  0.00  0.00    -0.381 OA
ATOM     18  H14 MAN d   1       3.226  23.829   2.147  0.00  0.00     0.090 H 
ATOM     19  C1  7D1 d   1       5.500  24.055   3.384  0.00  0.00     0.023 C 
ATOM     20  C2  7D1 d   1       5.040  23.733   4.791  0.00  0.00    -0.018 C 
ATOM     21  H21 MAN d   1       5.389  23.164   2.748  0.00  0.00     0.074 H 
ATOM     22  H22 MAN d   1       6.556  24.363   3.404  0.00  0.00     0.074 H 
ATOM     23  H19 MAN d   1       5.634  22.895   5.184  0.00  0.00     0.040 H 
ATOM     24  H20 MAN d   1       5.184  24.616   5.431  0.00  0.00     0.040 H 
ATOM     25  H18 MAN d   1       3.441  22.418   4.218  0.00  0.00     0.087 H 
BRANCH  14  26
ATOM     26  O4  7D1 d   1       1.401  23.987   4.008  0.00  0.00    -0.390 OA
ATOM     27  H12 MAN d   1       0.882  24.661   3.586  0.00  0.00     0.210 HD
ENDBRANCH  14  26
BRANCH  15  28
ATOM     28  C6  7D1 d   1       2.651  25.896   2.022  0.00  0.00     0.043 C 
ATOM     29  H15 MAN d   1       1.571  25.700   1.948  0.00  0.00     0.078 H 
ATOM     30  H16 MAN d   1       3.078  25.982   1.012  0.00  0.00     0.078 H 
BRANCH  28  31
ATOM     31  O6  7D1 d   1       2.862  27.130   2.733  0.00  0.00    -0.398 OA
ATOM     32  H17 MAN d   1       3.794  27.302   2.796  0.00  0.00     0.209 HD
ENDBRANCH  28  31
ENDBRANCH  15  28
ENDBRANCH  12  13
ENDBRANCH   1  12
BRANCH   2  33
ATOM     33  O2  MAN d   1       2.193  20.255   8.090  0.00  0.00    -0.388 OA
ATOM     34  H8  MAN d   1       3.042  19.913   8.345  0.00  0.00     0.210 HD
ENDBRANCH   2  33
BRANCH   3  35
ATOM     35  O3  MAN d   1       1.936  22.127  10.115  0.00  0.00    -0.390 OA
ATOM     36  H9  MAN d   1       1.958  21.199  10.315  0.00  0.00     0.210 HD
ENDBRANCH   3  35
BRANCH   5  37
ATOM     37  C6  MAN d   1       6.530  21.739   8.329  0.00  0.00     0.043 C 
ATOM     38  H6  MAN d   1       6.529  20.639   8.316  0.00  0.00     0.078 H 
ATOM     39  H7  MAN d   1       6.863  22.094   9.316  0.00  0.00     0.078 H 
BRANCH  37  40
ATOM     40  O6  MAN d   1       7.442  22.197   7.358  0.00  0.00    -0.398 OA
ATOM     41  H11 MAN d   1       7.459  23.147   7.364  0.00  0.00     0.209 HD
ENDBRANCH  37  40
ENDBRANCH   5  37
BRANCH   4  42
ATOM     42  O4  MAN d   1       4.721  22.818  10.416  0.00  0.00    -0.390 OA
ATOM     43  H10 MAN d   1       5.624  22.594  10.607  0.00  0.00     0.210 HD
ENDBRANCH   4  42
TORSDOF 10
