REMARK  27 active torsions:
REMARK  status: ('A' for Active; 'I' for Inactive)
REMARK    1  A    between atoms: CBD_1  and  CBC_3 
REMARK    2  A    between atoms: CBC_3  and  CBI_4 
REMARK    3  A    between atoms: CBC_3  and  NBE_7 
REMARK    4  A    between atoms: CBI_4  and  CBH_5 
REMARK    5  A    between atoms: CBI_4  and  CBG_6 
REMARK       I    between atoms: NBE_7  and  CDR_8 
REMARK    6  A    between atoms: CDR_8  and  CDO_10 
REMARK    7  A    between atoms: CDL_15  and  NDK_16 
REMARK    8  A    between atoms: NDK_16  and  NDJ_17 
REMARK    9  A    between atoms: NDJ_17  and  CDG_18 
REMARK   10  A    between atoms: CDD_23  and  CDC_24 
REMARK   11  A    between atoms: CDC_24  and  NDB_25 
REMARK       I    between atoms: NDB_25  and  CAZ_26 
REMARK   12  A    between atoms: CAZ_26  and  CAY_28 
REMARK   13  A    between atoms: CAY_28  and  CAX_29 
REMARK   14  A    between atoms: CAY_28  and  NBA_30 
REMARK       I    between atoms: NBA_30  and  CAN_31 
REMARK   15  A    between atoms: CAN_31  and  CAM_33 
REMARK   16  A    between atoms: CAM_33  and  CAW_34 
REMARK   17  A    between atoms: CAM_33  and  NAO_41 
REMARK   18  A    between atoms: CAW_34  and  CAR_35 
REMARK   19  A    between atoms: CAR_35  and  CAQ_36 
REMARK   20  A    between atoms: CAQ_36  and  NAV_37 
REMARK       I    between atoms: NAV_37  and  CAU_38 
REMARK       I    between atoms: CAU_38  and  NAS_40 
REMARK       I    between atoms: NAO_41  and  CAJ_42 
REMARK   21  A    between atoms: CAJ_42  and  CAI_44 
REMARK   22  A    between atoms: CAI_44  and  CAH_45 
REMARK   23  A    between atoms: CAI_44  and  NAK_46 
REMARK       I    between atoms: NAK_46  and  C_47 
REMARK   24  A    between atoms: C_47  and  CA_49 
REMARK   25  A    between atoms: CA_49  and  N_50 
REMARK   26  A    between atoms: CA_49  and  CB_51 
REMARK   27  A    between atoms: CB_51  and  OG_52 
ROOT
ATOM      1  CAY 7DC d   1      -7.171  26.079   3.655  0.00  0.00     0.086 C 
ATOM      2  H21 7DC d   1      -7.056  25.101   3.164  0.00  0.00     0.086 H 
ENDROOT
BRANCH   1   3
ATOM      3  CAZ 7DC d   1      -7.299  25.789   5.107  0.00  0.00     0.240 C 
ATOM      4  NDB 7DC d   1      -8.378  26.387   5.867  0.00  0.00    -0.355 N 
ATOM      5  H20 7DC d   1      -9.025  27.015   5.434  0.00  0.00     0.162 HD
ATOM      6  OBB 7DC d   1      -6.536  25.021   5.629  0.00  0.00    -0.271 OA
BRANCH   4   7
ATOM      7  CDC 7DC d   1      -8.492  26.055   7.248  0.00  0.00     0.019 C 
ATOM      8  H18 7DC d   1      -7.506  25.732   7.613  0.00  0.00     0.071 H 
ATOM      9  H19 7DC d   1      -8.811  26.952   7.799  0.00  0.00     0.071 H 
BRANCH   7  10
ATOM     10  CDD 7DC d   1      -9.504  24.932   7.513  0.00  0.00    -0.040 A 
ATOM     11  CDI 7DC d   1     -10.153  24.217   6.470  0.00  0.00    -0.073 A 
ATOM     12  CDH 7DC d   1     -11.055  23.200   6.756  0.00  0.00    -0.053 A 
ATOM     13  H15 7DC d   1      -9.941  24.469   5.437  0.00  0.00     0.084 H 
ATOM     14  CDG 7DC d   1     -11.350  22.883   8.083  0.00  0.00     0.079 A 
ATOM     15  H14 7DC d   1     -11.529  22.653   5.949  0.00  0.00     0.087 H 
ATOM     16  CDF 7DC d   1     -10.705  23.579   9.106  0.00  0.00    -0.053 A 
ATOM     17  CDE 7DC d   1      -9.793  24.592   8.820  0.00  0.00    -0.073 A 
ATOM     18  H16 7DC d   1     -10.917  23.328  10.139  0.00  0.00     0.087 H 
ATOM     19  H17 7DC d   1      -9.305  25.119   9.632  0.00  0.00     0.084 H 
BRANCH  14  20
ATOM     20  NDJ 7DC d   1     -12.297  21.828   8.425  0.00  0.00    -0.150 NA
BRANCH  20  21
ATOM     21  NDK 7DC d   1     -12.893  21.787   9.704  0.00  0.00    -0.150 NA
BRANCH  21  22
ATOM     22  CDL 7DC d   1     -13.880  20.797  10.091  0.00  0.00     0.079 A 
ATOM     23  CDQ 7DC d   1     -14.845  20.386   9.198  0.00  0.00    -0.052 A 
ATOM     24  CDP 7DC d   1     -15.819  19.415   9.580  0.00  0.00    -0.065 A 
ATOM     25  H11 7DC d   1     -14.865  20.803   8.198  0.00  0.00     0.087 H 
ATOM     26  CDO 7DC d   1     -15.806  18.885  10.871  0.00  0.00     0.032 A 
ATOM     27  H10 7DC d   1     -16.568  19.089   8.868  0.00  0.00     0.085 H 
ATOM     28  CDN 7DC d   1     -14.817  19.305  11.785  0.00  0.00    -0.065 A 
ATOM     29  CDM 7DC d   1     -13.864  20.249  11.402  0.00  0.00    -0.052 A 
ATOM     30  H12 7DC d   1     -14.797  18.893  12.787  0.00  0.00     0.085 H 
ATOM     31  H13 7DC d   1     -13.106  20.567  12.109  0.00  0.00     0.087 H 
BRANCH  26  32
ATOM     32  CDR 7DC d   1     -16.880  17.780  11.324  0.00  0.00     0.252 C 
ATOM     33  NBE 7DC d   1     -17.040  17.504  12.770  0.00  0.00    -0.342 N 
ATOM     34  H9  7DC d   1     -16.496  18.030  13.424  0.00  0.00     0.163 HD
ATOM     35  ODS 7DC d   1     -17.533  17.157  10.465  0.00  0.00    -0.268 OA
BRANCH  33  36
ATOM     36  CBC 7DC d   1     -17.932  16.527  13.259  0.00  0.00     0.099 C 
ATOM     37  H1  7DC d   1     -18.332  15.939  12.420  0.00  0.00     0.090 H 
BRANCH  36  38
ATOM     38  CBD 7DC d   1     -19.100  17.182  14.015  0.00  0.00     0.197 C 
ATOM     39  OBF 7DC d   1     -18.924  18.292  14.519  0.00  0.00    -0.646 OA
ATOM     40  O1  7DC d   1     -20.211  16.597  14.117  0.00  0.00    -0.646 OA
ENDBRANCH  36  38
BRANCH  36  41
ATOM     41  CBI 7DC d   1     -17.133  15.612  14.200  0.00  0.00    -0.032 C 
ATOM     42  H2  7DC d   1     -17.862  15.076  14.825  0.00  0.00     0.042 H 
BRANCH  41  43
ATOM     43  CBH 7DC d   1     -16.336  14.555  13.415  0.00  0.00    -0.071 C 
ATOM     44  H3  7DC d   1     -15.778  13.920  14.118  0.00  0.00     0.028 H 
ATOM     45  H4  7DC d   1     -15.631  15.057  12.736  0.00  0.00     0.028 H 
ATOM     46  H5  7DC d   1     -17.029  13.933  12.830  0.00  0.00     0.028 H 
ENDBRANCH  41  43
BRANCH  41  47
ATOM     47  CBG 7DC d   1     -16.245  16.377  15.120  0.00  0.00    -0.071 C 
ATOM     48  H6  7DC d   1     -16.840  17.124  15.667  0.00  0.00     0.028 H 
ATOM     49  H7  7DC d   1     -15.464  16.886  14.537  0.00  0.00     0.028 H 
ATOM     50  H8  7DC d   1     -15.776  15.686  15.836  0.00  0.00     0.028 H 
ENDBRANCH  41  47
ENDBRANCH  36  41
ENDBRANCH  33  36
ENDBRANCH  26  32
ENDBRANCH  21  22
ENDBRANCH  20  21
ENDBRANCH  14  20
ENDBRANCH   7  10
ENDBRANCH   4   7
ENDBRANCH   1   3
BRANCH   1  51
ATOM     51  CAX 7DC d   1      -5.925  26.827   3.316  0.00  0.00    -0.049 C 
ATOM     52  H22 7DC d   1      -5.890  27.009   2.232  0.00  0.00     0.030 H 
ATOM     53  H23 7DC d   1      -5.048  26.234   3.616  0.00  0.00     0.030 H 
ATOM     54  H24 7DC d   1      -5.918  27.789   3.850  0.00  0.00     0.030 H 
ENDBRANCH   1  51
BRANCH   1  55
ATOM     55  NBA 7DC d   1      -8.415  26.639   3.114  0.00  0.00    -0.346 N 
ATOM     56  CAN 7DC d   1      -9.504  25.793   2.774  0.00  0.00     0.241 C 
ATOM     57  OAP 7DC d   1      -9.476  24.583   2.918  0.00  0.00    -0.271 OA
ATOM     58  H25 7DC d   1      -8.497  27.627   2.983  0.00  0.00     0.163 HD
BRANCH  56  59
ATOM     59  CAM 7DC d   1     -10.774  26.411   2.177  0.00  0.00     0.089 C 
ATOM     60  H26 7DC d   1     -11.649  25.805   2.454  0.00  0.00     0.087 H 
BRANCH  59  61
ATOM     61  CAW 7DC d   1     -10.589  26.423   0.656  0.00  0.00    -0.036 C 
ATOM     62  H27 7DC d   1      -9.690  27.008   0.411  0.00  0.00     0.036 H 
ATOM     63  H28 7DC d   1     -11.469  26.893   0.194  0.00  0.00     0.036 H 
BRANCH  61  64
ATOM     64  CAR 7DC d   1     -10.427  24.987   0.084  0.00  0.00    -0.048 C 
ATOM     65  H29 7DC d   1     -11.274  24.377   0.429  0.00  0.00     0.035 H 
ATOM     66  H30 7DC d   1      -9.488  24.562   0.469  0.00  0.00     0.035 H 
BRANCH  64  67
ATOM     67  CAQ 7DC d   1     -10.388  24.941  -1.451  0.00  0.00     0.009 C 
ATOM     68  H31 7DC d   1     -10.533  23.899  -1.771  0.00  0.00     0.064 H 
ATOM     69  H32 7DC d   1      -9.400  25.293  -1.784  0.00  0.00     0.064 H 
BRANCH  67  70
ATOM     70  NAV 7DC d   1     -11.417  25.771  -2.092  0.00  0.00    -0.227 N 
ATOM     71  CAU 7DC d   1     -12.644  25.195  -2.662  0.00  0.00     0.665 C 
ATOM     72  NAT 7DC d   1     -12.790  23.861  -2.529  0.00  0.00    -0.235 N 
ATOM     73  NAS 7DC d   1     -13.593  25.989  -3.308  0.00  0.00    -0.235 N 
ATOM     74  H34 7DC d   1     -13.627  23.394  -2.906  0.00  0.00     0.174 HD
ATOM     75  H35 7DC d   1     -12.064  23.309  -2.050  0.00  0.00     0.174 HD
ATOM     76  H36 7DC d   1     -13.445  27.005  -3.389  0.00  0.00     0.174 HD
ATOM     77  H37 7DC d   1     -14.441  25.559  -3.704  0.00  0.00     0.174 HD
ATOM     78  H33 7DC d   1     -11.274  26.790  -2.144  0.00  0.00     0.177 HD
ENDBRANCH  67  70
ENDBRANCH  64  67
ENDBRANCH  61  64
ENDBRANCH  59  61
BRANCH  59  79
ATOM     79  NAO 7DC d   1     -10.963  27.741   2.615  0.00  0.00    -0.346 N 
ATOM     80  CAJ 7DC d   1     -11.122  28.027   4.019  0.00  0.00     0.240 C 
ATOM     81  OAL 7DC d   1     -11.098  27.133   4.810  0.00  0.00    -0.271 OA
ATOM     82  H38 7DC d   1     -10.986  28.486   1.949  0.00  0.00     0.163 HD
BRANCH  80  83
ATOM     83  CAI 7DC d   1     -11.338  29.406   4.454  0.00  0.00     0.086 C 
ATOM     84  H39 7DC d   1     -11.063  29.515   5.513  0.00  0.00     0.086 H 
BRANCH  83  85
ATOM     85  CAH 7DC d   1     -12.805  29.827   4.222  0.00  0.00    -0.049 C 
ATOM     86  H40 7DC d   1     -12.945  30.866   4.556  0.00  0.00     0.030 H 
ATOM     87  H41 7DC d   1     -13.471  29.165   4.794  0.00  0.00     0.030 H 
ATOM     88  H42 7DC d   1     -13.043  29.750   3.151  0.00  0.00     0.030 H 
ENDBRANCH  83  85
BRANCH  83  89
ATOM     89  NAK 7DC d   1     -10.547  30.297   3.609  0.00  0.00    -0.346 N 
ATOM     90  C   7DC d   1      -9.062  30.253   3.658  0.00  0.00     0.251 C 
ATOM     91  O   7DC d   1      -8.512  29.456   4.407  0.00  0.00    -0.271 OA
ATOM     92  H43 7DC d   1     -11.006  30.939   2.995  0.00  0.00     0.163 HD
BRANCH  90  93
ATOM     93  CA  7DC d   1      -8.200  31.242   2.722  0.00  0.00     0.195 C 
ATOM     94  H44 7DC d   1      -8.835  31.938   2.154  0.00  0.00     0.102 H 
BRANCH  93  95
ATOM     95  N   7DC d   1      -7.313  31.941   3.592  0.00  0.00    -0.064 N 
ATOM     96  H45 7DC d   1      -6.747  32.578   3.054  0.00  0.00     0.275 HD
ATOM     97  H46 7DC d   1      -6.718  31.280   4.066  0.00  0.00     0.275 HD
ATOM     98  H47 7DC d   1      -7.848  32.459   4.271  0.00  0.00     0.275 HD
ENDBRANCH  93  95
BRANCH  93  99
ATOM     99  CB  7DC d   1      -7.424  30.347   1.819  0.00  0.00     0.051 C 
ATOM    100  H48 7DC d   1      -6.629  29.836   2.382  0.00  0.00     0.077 H 
ATOM    101  H49 7DC d   1      -6.977  30.930   1.000  0.00  0.00     0.077 H 
BRANCH  99 102
ATOM    102  OG  7DC d   1      -8.375  29.366   1.282  0.00  0.00    -0.398 OA
ATOM    103  H50 7DC d   1      -9.060  29.819   0.804  0.00  0.00     0.209 HD
ENDBRANCH  99 102
ENDBRANCH  93  99
ENDBRANCH  90  93
ENDBRANCH  83  89
ENDBRANCH  80  83
ENDBRANCH  59  79
ENDBRANCH  56  59
ENDBRANCH   1  55
TORSDOF 27
