REMARK  23 active torsions:
REMARK  status: ('A' for Active; 'I' for Inactive)
REMARK    1  A    between atoms: NDJ_1  and  CDG_2 
REMARK    2  A    between atoms: NDK_45  and  NDJ_1 
REMARK    3  A    between atoms: CDD_7  and  CDC_8 
REMARK    4  A    between atoms: CDC_8  and  NDB_9 
REMARK       I    between atoms: NDB_9  and  CAZ_10 
REMARK    5  A    between atoms: CAZ_10  and  CAY_12 
REMARK    6  A    between atoms: CAY_12  and  CAX_13 
REMARK    7  A    between atoms: CAY_12  and  NBA_14 
REMARK       I    between atoms: NBA_14  and  CAN_15 
REMARK    8  A    between atoms: CAN_15  and  CAM_17 
REMARK    9  A    between atoms: CAM_17  and  CAW_18 
REMARK   10  A    between atoms: CAM_17  and  NAO_25 
REMARK   11  A    between atoms: CAW_18  and  CAR_19 
REMARK   12  A    between atoms: CAR_19  and  CAQ_20 
REMARK   13  A    between atoms: CAQ_20  and  NAV_21 
REMARK       I    between atoms: NAV_21  and  CAU_22 
REMARK       I    between atoms: CAU_22  and  NAT_23 
REMARK       I    between atoms: NAO_25  and  CAJ_26 
REMARK   14  A    between atoms: CAJ_26  and  CAI_28 
REMARK   15  A    between atoms: CAI_28  and  CAH_29 
REMARK   16  A    between atoms: CAI_28  and  NAK_30 
REMARK       I    between atoms: NAK_30  and  C_31 
REMARK   17  A    between atoms: C_31  and  CA_33 
REMARK   18  A    between atoms: CA_33  and  N_34 
REMARK   19  A    between atoms: CA_33  and  CB_35 
REMARK   20  A    between atoms: CB_35  and  OG_36 
REMARK   21  A    between atoms: CDR_37  and  ODS_38 
REMARK   22  A    between atoms: CDO_39  and  CDR_37 
REMARK   23  A    between atoms: CDL_44  and  NDK_45 
ROOT
ATOM      1  NBA 7DU d   1      -8.511  26.637   3.048  0.00  0.00    -0.346 N 
ATOM      2  CAN 7DU d   1      -9.684  25.810   2.894  0.00  0.00     0.241 C 
ATOM      3  OAP 7DU d   1      -9.646  24.653   3.235  0.00  0.00    -0.271 OA
ATOM      4  H13 7DU d   1      -8.552  27.599   2.778  0.00  0.00     0.163 HD
ENDROOT
BRANCH   2   5
ATOM      5  CAM 7DU d   1     -10.969  26.375   2.322  0.00  0.00     0.089 C 
ATOM      6  H14 7DU d   1     -11.819  25.780   2.687  0.00  0.00     0.087 H 
BRANCH   5   7
ATOM      7  CAW 7DU d   1     -10.926  26.335   0.799  0.00  0.00    -0.036 C 
ATOM      8  H15 7DU d   1     -10.225  27.103   0.441  0.00  0.00     0.036 H 
ATOM      9  H16 7DU d   1     -11.932  26.546   0.408  0.00  0.00     0.036 H 
BRANCH   7  10
ATOM     10  CAR 7DU d   1     -10.463  24.947   0.277  0.00  0.00    -0.048 C 
ATOM     11  H17 7DU d   1     -11.170  24.179   0.624  0.00  0.00     0.035 H 
ATOM     12  H18 7DU d   1      -9.461  24.730   0.676  0.00  0.00     0.035 H 
BRANCH  10  13
ATOM     13  CAQ 7DU d   1     -10.407  24.920  -1.272  0.00  0.00     0.009 C 
ATOM     14  H19 7DU d   1     -10.652  23.903  -1.613  0.00  0.00     0.064 H 
ATOM     15  H20 7DU d   1      -9.386  25.177  -1.589  0.00  0.00     0.064 H 
BRANCH  13  16
ATOM     16  NAV 7DU d   1     -11.330  25.849  -1.893  0.00  0.00    -0.227 N 
ATOM     17  CAU 7DU d   1     -12.580  25.347  -2.449  0.00  0.00     0.665 C 
ATOM     18  NAT 7DU d   1     -12.861  24.058  -2.339  0.00  0.00    -0.235 N 
ATOM     19  NAS 7DU d   1     -13.419  26.152  -3.034  0.00  0.00    -0.235 N 
ATOM     20  H22 7DU d   1     -13.740  23.688  -2.727  0.00  0.00     0.174 HD
ATOM     21  H23 7DU d   1     -12.200  23.425  -1.866  0.00  0.00     0.174 HD
ATOM     22  H24 7DU d   1     -13.198  27.154  -3.118  0.00  0.00     0.174 HD
ATOM     23  H25 7DU d   1     -14.304  25.787  -3.413  0.00  0.00     0.174 HD
ATOM     24  H21 7DU d   1     -11.105  26.853  -1.941  0.00  0.00     0.177 HD
ENDBRANCH  13  16
ENDBRANCH  10  13
ENDBRANCH   7  10
ENDBRANCH   5   7
BRANCH   5  25
ATOM     25  NAO 7DU d   1     -11.134  27.737   2.707  0.00  0.00    -0.346 N 
ATOM     26  CAJ 7DU d   1     -11.270  28.026   4.107  0.00  0.00     0.240 C 
ATOM     27  OAL 7DU d   1     -11.260  27.153   4.907  0.00  0.00    -0.271 OA
ATOM     28  H26 7DU d   1     -11.154  28.468   2.025  0.00  0.00     0.163 HD
BRANCH  26  29
ATOM     29  CAI 7DU d   1     -11.428  29.471   4.538  0.00  0.00     0.086 C 
ATOM     30  H27 7DU d   1     -11.156  29.589   5.598  0.00  0.00     0.086 H 
BRANCH  29  31
ATOM     31  CAH 7DU d   1     -12.849  29.897   4.309  0.00  0.00    -0.049 C 
ATOM     32  H28 7DU d   1     -12.972  30.945   4.619  0.00  0.00     0.030 H 
ATOM     33  H29 7DU d   1     -13.523  29.258   4.899  0.00  0.00     0.030 H 
ATOM     34  H30 7DU d   1     -13.093  29.800   3.241  0.00  0.00     0.030 H 
ENDBRANCH  29  31
BRANCH  29  35
ATOM     35  NAK 7DU d   1     -10.589  30.274   3.711  0.00  0.00    -0.346 N 
ATOM     36  C   7DU d   1      -9.155  30.119   3.679  0.00  0.00     0.251 C 
ATOM     37  O   7DU d   1      -8.627  29.272   4.381  0.00  0.00    -0.271 OA
ATOM     38  H31 7DU d   1     -11.011  30.971   3.131  0.00  0.00     0.163 HD
BRANCH  36  39
ATOM     39  CA  7DU d   1      -8.334  31.046   2.781  0.00  0.00     0.195 C 
ATOM     40  H32 7DU d   1      -9.028  31.753   2.304  0.00  0.00     0.102 H 
BRANCH  39  41
ATOM     41  N   7DU d   1      -7.416  31.781   3.581  0.00  0.00    -0.064 N 
ATOM     42  H33 7DU d   1      -6.873  32.393   2.993  0.00  0.00     0.275 HD
ATOM     43  H34 7DU d   1      -6.801  31.142   4.059  0.00  0.00     0.275 HD
ATOM     44  H35 7DU d   1      -7.924  32.329   4.258  0.00  0.00     0.275 HD
ENDBRANCH  39  41
BRANCH  39  45
ATOM     45  CB  7DU d   1      -7.586  30.328   1.687  0.00  0.00     0.051 C 
ATOM     46  H36 7DU d   1      -6.645  29.924   2.088  0.00  0.00     0.077 H 
ATOM     47  H37 7DU d   1      -7.365  31.030   0.870  0.00  0.00     0.077 H 
BRANCH  45  48
ATOM     48  OG  7DU d   1      -8.395  29.258   1.193  0.00  0.00    -0.398 OA
ATOM     49  H38 7DU d   1      -9.207  29.610   0.848  0.00  0.00     0.209 HD
ENDBRANCH  45  48
ENDBRANCH  39  45
ENDBRANCH  36  39
ENDBRANCH  29  35
ENDBRANCH  26  29
ENDBRANCH   5  25
ENDBRANCH   2   5
BRANCH   1  50
ATOM     50  CAY 7DU d   1      -7.287  26.110   3.580  0.00  0.00     0.086 C 
ATOM     51  H9  7DU d   1      -7.077  25.159   3.068  0.00  0.00     0.086 H 
BRANCH  50  52
ATOM     52  CAZ 7DU d   1      -7.442  25.844   5.062  0.00  0.00     0.240 C 
ATOM     53  NDB 7DU d   1      -8.398  26.629   5.863  0.00  0.00    -0.355 N 
ATOM     54  H8  7DU d   1      -8.958  27.351   5.456  0.00  0.00     0.162 HD
ATOM     55  OBB 7DU d   1      -6.782  24.970   5.573  0.00  0.00    -0.271 OA
BRANCH  53  56
ATOM     56  CDC 7DU d   1      -8.484  26.296   7.286  0.00  0.00     0.019 C 
ATOM     57  H6  7DU d   1      -7.513  25.909   7.628  0.00  0.00     0.071 H 
ATOM     58  H7  7DU d   1      -8.740  27.201   7.856  0.00  0.00     0.071 H 
BRANCH  56  59
ATOM     59  CDD 7DU d   1      -9.520  25.273   7.507  0.00  0.00    -0.040 A 
ATOM     60  CDI 7DU d   1     -10.045  24.550   6.427  0.00  0.00    -0.073 A 
ATOM     61  CDH 7DU d   1     -11.053  23.584   6.657  0.00  0.00    -0.055 A 
ATOM     62  H3  7DU d   1      -9.681  24.730   5.422  0.00  0.00     0.084 H 
ATOM     63  CDG 7DU d   1     -11.517  23.336   7.950  0.00  0.00     0.048 A 
ATOM     64  H2  7DU d   1     -11.469  23.032   5.822  0.00  0.00     0.087 H 
ATOM     65  CDF 7DU d   1     -10.979  24.059   9.034  0.00  0.00    -0.055 A 
ATOM     66  CDE 7DU d   1      -9.984  25.026   8.804  0.00  0.00    -0.073 A 
ATOM     67  H4  7DU d   1     -11.331  23.870  10.042  0.00  0.00     0.087 H 
ATOM     68  H5  7DU d   1      -9.573  25.584   9.638  0.00  0.00     0.084 H 
BRANCH  63  69
ATOM     69  NDJ 7DU d   1     -12.535  22.348   8.176  0.00  0.00    -0.300 N 
ATOM     70  H1  7DU d   1     -13.133  22.042   7.395  0.00  0.00     0.187 HD
BRANCH  69  71
ATOM     71  NDK 7DU d   1     -12.721  21.797   9.454  0.00  0.00    -0.300 N 
ATOM     72  H46 7DU d   1     -12.013  21.984  10.179  0.00  0.00     0.187 HD
BRANCH  71  73
ATOM     73  CDL 7DU d   1     -13.860  20.980   9.797  0.00  0.00     0.048 A 
ATOM     74  CDQ 7DU d   1     -13.841  20.256  11.011  0.00  0.00    -0.055 A 
ATOM     75  CDP 7DU d   1     -14.948  19.443  11.391  0.00  0.00    -0.073 A 
ATOM     76  H43 7DU d   1     -12.975  20.320  11.660  0.00  0.00     0.087 H 
ATOM     77  CDO 7DU d   1     -16.065  19.348  10.566  0.00  0.00    -0.035 A 
ATOM     78  H42 7DU d   1     -14.920  18.896  12.327  0.00  0.00     0.084 H 
ATOM     79  CDN 7DU d   1     -16.090  20.081   9.337  0.00  0.00    -0.073 A 
ATOM     80  CDM 7DU d   1     -14.993  20.891   8.964  0.00  0.00    -0.055 A 
ATOM     81  H44 7DU d   1     -16.956  20.015   8.688  0.00  0.00     0.084 H 
ATOM     82  H45 7DU d   1     -15.024  21.446   8.033  0.00  0.00     0.087 H 
BRANCH  77  83
ATOM     83  CDR 7DU d   1     -17.251  18.452  11.007  0.00  0.00     0.040 C 
ATOM     84  H39 7DU d   1     -16.866  17.480  11.351  0.00  0.00     0.081 H 
ATOM     85  H40 7DU d   1     -17.794  18.943  11.828  0.00  0.00     0.081 H 
BRANCH  83  86
ATOM     86  ODS 7DU d   1     -18.148  18.246   9.897  0.00  0.00    -0.396 OA
ATOM     87  H41 7DU d   1     -18.872  17.697  10.174  0.00  0.00     0.209 HD
ENDBRANCH  83  86
ENDBRANCH  77  83
ENDBRANCH  71  73
ENDBRANCH  69  71
ENDBRANCH  63  69
ENDBRANCH  56  59
ENDBRANCH  53  56
ENDBRANCH  50  52
BRANCH  50  88
ATOM     88  CAX 7DU d   1      -6.120  27.013   3.380  0.00  0.00    -0.049 C 
ATOM     89  H10 7DU d   1      -5.994  27.216   2.306  0.00  0.00     0.030 H 
ATOM     90  H11 7DU d   1      -5.212  26.531   3.771  0.00  0.00     0.030 H 
ATOM     91  H12 7DU d   1      -6.292  27.959   3.914  0.00  0.00     0.030 H 
ENDBRANCH  50  88
ENDBRANCH   1  50
TORSDOF 23
