REMARK  18 active torsions:
REMARK  status: ('A' for Active; 'I' for Inactive)
REMARK    1  A    between atoms: C1A_1  and  O1X_7 
REMARK    2  A    between atoms: C2A_2  and  O2A_8 
REMARK    3  A    between atoms: C3A_3  and  O3A_9 
REMARK    4  A    between atoms: C4A_4  and  O4A_10 
REMARK    5  A    between atoms: C5A_5  and  C6A_6 
REMARK    6  A    between atoms: C6A_6  and  O6A_12 
REMARK    7  A    between atoms: O4A_10  and  C1B_13 
REMARK    8  A    between atoms: C2B_14  and  O2B_19 
REMARK    9  A    between atoms: C3B_15  and  O3B_20 
REMARK   10  A    between atoms: C4B_16  and  O4B_21 
REMARK   11  A    between atoms: C5B_17  and  C6B_18 
REMARK   12  A    between atoms: C6B_18  and  O6B_23 
REMARK   13  A    between atoms: O4B_21  and  C1C_24 
REMARK   14  A    between atoms: C2C_25  and  O2C_30 
REMARK   15  A    between atoms: C3C_26  and  O3C_31 
REMARK   16  A    between atoms: C4C_27  and  O4C_32 
REMARK   17  A    between atoms: C5C_28  and  C6C_29 
REMARK   18  A    between atoms: C6C_29  and  O6C_34 
ROOT
ATOM      1  C1B MLR d   1      11.809  12.252  35.059  0.00  0.00     0.159 C 
ATOM      2  C2B MLR d   1      12.626  11.053  34.605  0.00  0.00     0.110 C 
ATOM      3  C3B MLR d   1      14.001  11.023  35.261  0.00  0.00     0.092 C 
ATOM      4  C4B MLR d   1      14.699  12.373  35.151  0.00  0.00     0.096 C 
ATOM      5  C5B MLR d   1      13.795  13.510  35.606  0.00  0.00     0.089 C 
ATOM      6  O5B MLR d   1      12.546  13.453  34.892  0.00  0.00    -0.348 OA
ATOM      7  H12 MLR d   1      10.906  12.318  34.434  0.00  0.00     0.133 H 
ATOM      8  H13 MLR d   1      12.761  11.110  33.515  0.00  0.00     0.094 H 
ATOM      9  H14 MLR d   1      13.884  10.770  36.325  0.00  0.00     0.091 H 
ATOM     10  H15 MLR d   1      15.003  12.543  34.108  0.00  0.00     0.091 H 
ATOM     11  H16 MLR d   1      13.614  13.416  36.687  0.00  0.00     0.090 H 
ENDROOT
BRANCH   1  12
ATOM     12  O4A MLR d   1      11.409  12.056  36.392  0.00  0.00    -0.348 OA
BRANCH  12  13
ATOM     13  C4A MLR d   1      10.028  12.308  36.687  0.00  0.00     0.096 C 
ATOM     14  C3A MLR d   1       9.396  11.005  37.152  0.00  0.00     0.092 C 
ATOM     15  C2A MLR d   1       7.968  11.273  37.596  0.00  0.00     0.110 C 
ATOM     16  H3  MLR d   1       9.978  10.593  37.990  0.00  0.00     0.091 H 
ATOM     17  C1A MLR d   1       7.958  12.337  38.678  0.00  0.00     0.156 C 
ATOM     18  H2  MLR d   1       7.410  11.661  36.731  0.00  0.00     0.094 H 
ATOM     19  O5A MLR d   1       8.564  13.525  38.169  0.00  0.00    -0.349 OA
ATOM     20  H1  MLR d   1       6.915  12.564  38.942  0.00  0.00     0.133 H 
ATOM     21  C5A MLR d   1       9.940  13.366  37.776  0.00  0.00     0.089 C 
ATOM     22  H5  MLR d   1      10.544  13.045  38.637  0.00  0.00     0.090 H 
ATOM     23  H4  MLR d   1       9.511  12.667  35.785  0.00  0.00     0.091 H 
BRANCH  14  24
ATOM     24  O3A MLR d   1       9.361  10.069  36.090  0.00  0.00    -0.390 OA
ATOM     25  H10 MLR d   1      10.246   9.896  35.793  0.00  0.00     0.210 HD
ENDBRANCH  14  24
BRANCH  15  26
ATOM     26  O2A MLR d   1       7.317  10.080  38.032  0.00  0.00    -0.388 OA
ATOM     27  H9  MLR d   1       7.794   9.710  38.766  0.00  0.00     0.210 HD
ENDBRANCH  15  26
BRANCH  17  28
ATOM     28  O1X MLR d   1       8.602  11.871  39.816  0.00  0.00    -0.369 OA
ATOM     29  H8  MLR d   1       8.567  12.536  40.493  0.00  0.00     0.212 HD
ENDBRANCH  17  28
BRANCH  21  30
ATOM     30  C6A MLR d   1      10.418  14.715  37.302  0.00  0.00     0.043 C 
ATOM     31  H6  MLR d   1       9.732  15.087  36.527  0.00  0.00     0.078 H 
ATOM     32  H7  MLR d   1      11.428  14.610  36.878  0.00  0.00     0.078 H 
BRANCH  30  33
ATOM     33  O6A MLR d   1      10.459  15.643  38.364  0.00  0.00    -0.398 OA
ATOM     34  H11 MLR d   1      10.763  16.482  38.038  0.00  0.00     0.209 HD
ENDBRANCH  30  33
ENDBRANCH  21  30
ENDBRANCH  12  13
ENDBRANCH   1  12
BRANCH   2  35
ATOM     35  O2B MLR d   1      11.913   9.866  34.924  0.00  0.00    -0.388 OA
ATOM     36  H19 MLR d   1      11.810   9.803  35.866  0.00  0.00     0.210 HD
ENDBRANCH   2  35
BRANCH   3  37
ATOM     37  O3B MLR d   1      14.793  10.024  34.622  0.00  0.00    -0.390 OA
ATOM     38  H20 MLR d   1      15.643   9.977  35.044  0.00  0.00     0.210 HD
ENDBRANCH   3  37
BRANCH   5  39
ATOM     39  C6B MLR d   1      14.419  14.858  35.309  0.00  0.00     0.043 C 
ATOM     40  H17 MLR d   1      14.479  14.982  34.218  0.00  0.00     0.078 H 
ATOM     41  H18 MLR d   1      15.432  14.876  35.736  0.00  0.00     0.078 H 
BRANCH  39  42
ATOM     42  O6B MLR d   1      13.683  15.948  35.848  0.00  0.00    -0.398 OA
ATOM     43  H21 MLR d   1      12.807  15.950  35.480  0.00  0.00     0.209 HD
ENDBRANCH  39  42
ENDBRANCH   5  39
BRANCH   4  44
ATOM     44  O4B MLR d   1      15.854  12.352  36.005  0.00  0.00    -0.348 OA
BRANCH  44  45
ATOM     45  C1C MLR d   1      17.112  12.240  35.378  0.00  0.00     0.159 C 
ATOM     46  C2C MLR d   1      17.924  11.135  36.045  0.00  0.00     0.110 C 
ATOM     47  C3C MLR d   1      18.298  11.517  37.473  0.00  0.00     0.092 C 
ATOM     48  H23 MLR d   1      18.853  10.984  35.476  0.00  0.00     0.094 H 
ATOM     49  C4C MLR d   1      19.031  12.848  37.433  0.00  0.00     0.090 C 
ATOM     50  H24 MLR d   1      17.377  11.632  38.064  0.00  0.00     0.091 H 
ATOM     51  C5C MLR d   1      18.153  13.896  36.766  0.00  0.00     0.089 C 
ATOM     52  H25 MLR d   1      19.961  12.733  36.857  0.00  0.00     0.091 H 
ATOM     53  O5C MLR d   1      17.812  13.470  35.434  0.00  0.00    -0.348 OA
ATOM     54  H26 MLR d   1      17.240  14.030  37.365  0.00  0.00     0.090 H 
ATOM     55  H22 MLR d   1      16.956  11.975  34.322  0.00  0.00     0.133 H 
BRANCH  46  56
ATOM     56  O2C MLR d   1      17.165   9.935  36.004  0.00  0.00    -0.388 OA
ATOM     57  H29 MLR d   1      17.674   9.227  36.380  0.00  0.00     0.210 HD
ENDBRANCH  46  56
BRANCH  47  58
ATOM     58  O3C MLR d   1      19.106  10.515  38.087  0.00  0.00    -0.390 OA
ATOM     59  H30 MLR d   1      19.909  10.409  37.590  0.00  0.00     0.210 HD
ENDBRANCH  47  58
BRANCH  49  60
ATOM     60  O4C MLR d   1      19.349  13.264  38.769  0.00  0.00    -0.390 OA
ATOM     61  H31 MLR d   1      18.547  13.367  39.267  0.00  0.00     0.210 HD
ENDBRANCH  49  60
BRANCH  51  62
ATOM     62  C6C MLR d   1      18.859  15.220  36.618  0.00  0.00     0.043 C 
ATOM     63  H27 MLR d   1      19.658  15.113  35.870  0.00  0.00     0.078 H 
ATOM     64  H28 MLR d   1      19.299  15.497  37.587  0.00  0.00     0.078 H 
BRANCH  62  65
ATOM     65  O6C MLR d   1      17.984  16.251  36.205  0.00  0.00    -0.398 OA
ATOM     66  H32 MLR d   1      17.293  16.355  36.849  0.00  0.00     0.209 HD
ENDBRANCH  62  65
ENDBRANCH  51  62
ENDBRANCH  44  45
ENDBRANCH   4  44
TORSDOF 18
