REMARK  10 active torsions:
REMARK  status: ('A' for Active; 'I' for Inactive)
REMARK    1  A    between atoms: O1_20  and  C1_1 
REMARK    2  A    between atoms: C2_2  and  O2_7 
REMARK    3  A    between atoms: C3_3  and  O3_8 
REMARK    4  A    between atoms: C4_4  and  O4_9 
REMARK    5  A    between atoms: C5_5  and  C6_6 
REMARK    6  A    between atoms: C6_6  and  O6_11 
REMARK    7  A    between atoms: C2_13  and  C5_15 
REMARK    8  A    between atoms: C3_14  and  O2_19 
REMARK    9  A    between atoms: C5_15  and  O3_17 
REMARK   10  A    between atoms: C4_16  and  O1_20 
ROOT
ATOM      1  C1  MAN d   1       3.327  21.718   6.590  0.00  0.00     0.159 C 
ATOM      2  C2  MAN d   1       2.372  21.547   7.768  0.00  0.00     0.110 C 
ATOM      3  C3  MAN d   1       2.865  22.329   8.985  0.00  0.00     0.092 C 
ATOM      4  C4  MAN d   1       4.311  21.964   9.323  0.00  0.00     0.090 C 
ATOM      5  C5  MAN d   1       5.162  22.178   8.067  0.00  0.00     0.089 C 
ATOM      6  O5  MAN d   1       4.654  21.412   6.964  0.00  0.00    -0.348 OA
ATOM      7  H1  MAN d   1       3.036  21.020   5.791  0.00  0.00     0.133 H 
ATOM      8  H2  MAN d   1       1.375  21.915   7.484  0.00  0.00     0.094 H 
ATOM      9  H3  MAN d   1       2.824  23.404   8.753  0.00  0.00     0.091 H 
ATOM     10  H4  MAN d   1       4.367  20.910   9.634  0.00  0.00     0.091 H 
ATOM     11  H5  MAN d   1       5.154  23.247   7.809  0.00  0.00     0.090 H 
ENDROOT
BRANCH   1  12
ATOM     12  O1  DGO d   1       3.167  23.046   6.106  0.00  0.00    -0.347 OA
BRANCH  12  13
ATOM     13  C4  DGO d   1       3.515  23.200   4.705  0.00  0.00     0.087 C 
ATOM     14  C3  DGO d   1       2.781  24.399   4.126  0.00  0.00     0.091 C 
ATOM     15  C2  DGO d   1       3.338  24.710   2.756  0.00  0.00     0.091 C 
ATOM     16  H14 MAN d   1       2.898  25.272   4.785  0.00  0.00     0.091 H 
ATOM     17  O   DGO d   1       4.740  25.045   2.861  0.00  0.00    -0.353 OA
ATOM     18  H13 MAN d   1       3.213  23.811   2.134  0.00  0.00     0.091 H 
ATOM     19  C1  DGO d   1       5.529  24.213   3.670  0.00  0.00     0.012 C 
ATOM     20  C   DGO d   1       5.001  23.360   4.529  0.00  0.00    -0.052 C 
ATOM     21  H12 MAN d   1       6.613  24.273   3.587  0.00  0.00     0.122 H 
ATOM     22  H20 MAN d   1       5.668  22.748   5.134  0.00  0.00     0.083 H 
ATOM     23  H17 MAN d   1       3.197  22.297   4.164  0.00  0.00     0.094 H 
BRANCH  14  24
ATOM     24  O2  DGO d   1       1.395  24.049   4.008  0.00  0.00    -0.390 OA
ATOM     25  H19 MAN d   1       0.913  24.784   3.647  0.00  0.00     0.210 HD
ENDBRANCH  14  24
BRANCH  15  26
ATOM     26  C5  DGO d   1       2.711  25.894   2.031  0.00  0.00     0.044 C 
ATOM     27  H15 MAN d   1       1.634  25.713   1.903  0.00  0.00     0.078 H 
ATOM     28  H16 MAN d   1       3.183  26.007   1.044  0.00  0.00     0.078 H 
BRANCH  26  29
ATOM     29  O3  DGO d   1       2.902  27.096   2.788  0.00  0.00    -0.398 OA
ATOM     30  H18 MAN d   1       3.832  27.255   2.898  0.00  0.00     0.209 HD
ENDBRANCH  26  29
ENDBRANCH  15  26
ENDBRANCH  12  13
ENDBRANCH   1  12
BRANCH   2  31
ATOM     31  O2  MAN d   1       2.295  20.158   8.092  0.00  0.00    -0.388 OA
ATOM     32  H8  MAN d   1       3.156  19.844   8.343  0.00  0.00     0.210 HD
ENDBRANCH   2  31
BRANCH   3  33
ATOM     33  O3  MAN d   1       2.001  22.066  10.093  0.00  0.00    -0.390 OA
ATOM     34  H9  MAN d   1       2.041  21.142  10.312  0.00  0.00     0.210 HD
ENDBRANCH   3  33
BRANCH   5  35
ATOM     35  C6  MAN d   1       6.582  21.723   8.306  0.00  0.00     0.043 C 
ATOM     36  H6  MAN d   1       6.596  20.623   8.331  0.00  0.00     0.078 H 
ATOM     37  H7  MAN d   1       6.915  22.116   9.278  0.00  0.00     0.078 H 
BRANCH  35  38
ATOM     38  O6  MAN d   1       7.492  22.161   7.308  0.00  0.00    -0.398 OA
ATOM     39  H11 MAN d   1       7.497  23.111   7.281  0.00  0.00     0.209 HD
ENDBRANCH  35  38
ENDBRANCH   5  35
BRANCH   4  40
ATOM     40  O4  MAN d   1       4.779  22.798  10.384  0.00  0.00    -0.390 OA
ATOM     41  H10 MAN d   1       5.683  22.582  10.580  0.00  0.00     0.210 HD
ENDBRANCH   4  40
TORSDOF 10
