REMARK  16 active torsions:
REMARK  status: ('A' for Active; 'I' for Inactive)
REMARK    1  A    between atoms: C12_2  and  O17_1 
REMARK    2  A    between atoms: C11_3  and  O16_4 
REMARK    3  A    between atoms: C10_5  and  O15_6 
REMARK    4  A    between atoms: C13_8  and  C9_7 
REMARK    5  A    between atoms: S1_32  and  C13_8 
REMARK    6  A    between atoms: C7_10  and  S1_11 
REMARK    7  A    between atoms: S1_11  and  C6_12 
REMARK    8  A    between atoms: C6_12  and  C5_13 
REMARK    9  A    between atoms: C3_17  and  O3_18 
REMARK   10  A    between atoms: C4_19  and  O4_20 
REMARK   11  A    between atoms: C7_21  and  S1_32 
REMARK   12  A    between atoms: C9_22  and  C13_24 
REMARK   13  A    between atoms: C12_23  and  O17_25 
REMARK   14  A    between atoms: C13_24  and  O14_30 
REMARK   15  A    between atoms: C11_26  and  O16_27 
REMARK   16  A    between atoms: C10_28  and  O15_29 
ROOT
ATOM      1  C12 7K2 d   1       3.153 -32.104  -5.839  0.00  0.00     0.096 C 
ATOM      2  C11 7K2 d   1       2.373 -31.110  -4.940  0.00  0.00     0.090 C 
ATOM      3  C10 7K2 d   1       3.361 -30.191  -4.277  0.00  0.00     0.088 C 
ATOM      4  C9  7K2 d   1       4.327 -29.519  -5.291  0.00  0.00     0.075 C 
ATOM      5  O8  7K2 d   1       4.907 -30.433  -6.241  0.00  0.00    -0.364 OA
ATOM      6  C7  7K2 d   1       3.972 -31.318  -6.873  0.00  0.00     0.110 C 
ATOM      7  H2  7K2 d   1       2.465 -32.805  -6.334  0.00  0.00     0.092 H 
ATOM      8  H3  7K2 d   1       1.685 -30.522  -5.565  0.00  0.00     0.091 H 
ATOM      9  H5  7K2 d   1       3.929 -30.750  -3.519  0.00  0.00     0.091 H 
ATOM     10  H7  7K2 d   1       3.720 -28.791  -5.848  0.00  0.00     0.088 H 
ATOM     11  H10 7K2 d   1       4.567 -32.037  -7.455  0.00  0.00     0.104 H 
ENDROOT
BRANCH   4  12
ATOM     12  C13 7K2 d   1       5.535 -28.751  -4.675  0.00  0.00     0.006 C 
ATOM     13  H8  7K2 d   1       5.183 -28.006  -3.946  0.00  0.00     0.053 H 
ATOM     14  H9  7K2 d   1       6.111 -28.247  -5.465  0.00  0.00     0.053 H 
BRANCH  12  15
ATOM     15  S1  7K3 d   1       6.541 -29.987  -3.865  0.00  0.00    -0.132 SA
BRANCH  15  16
ATOM     16  C7  7K3 d   1       7.330 -28.988  -2.596  0.00  0.00     0.110 C 
ATOM     17  C12 7K3 d   1       8.341 -29.760  -1.752  0.00  0.00     0.096 C 
ATOM     18  C11 7K3 d   1       7.630 -30.788  -0.844  0.00  0.00     0.090 C 
ATOM     19  H26 7K2 d   1       9.029 -30.303  -2.417  0.00  0.00     0.092 H 
ATOM     20  C10 7K3 d   1       6.575 -30.091   0.028  0.00  0.00     0.089 C 
ATOM     21  H30 7K2 d   1       7.153 -31.573  -1.450  0.00  0.00     0.091 H 
ATOM     22  C9  7K3 d   1       5.652 -29.237  -0.857  0.00  0.00     0.087 C 
ATOM     23  H32 7K2 d   1       7.103 -29.424   0.725  0.00  0.00     0.091 H 
ATOM     24  O8  7K3 d   1       6.384 -28.340  -1.729  0.00  0.00    -0.363 OA
ATOM     25  H25 7K2 d   1       5.048 -29.919  -1.474  0.00  0.00     0.090 H 
ATOM     26  H24 7K2 d   1       7.885 -28.198  -3.123  0.00  0.00     0.104 H 
BRANCH  17  27
ATOM     27  O17 7K3 d   1       9.108 -28.772  -0.970  0.00  0.00    -0.389 OA
ATOM     28  H29 7K2 d   1       8.515 -28.281  -0.413  0.00  0.00     0.210 HD
ENDBRANCH  17  27
BRANCH  18  29
ATOM     29  O16 7K3 d   1       8.637 -31.336  -0.023  0.00  0.00    -0.390 OA
ATOM     30  H31 7K2 d   1       8.253 -31.980   0.560  0.00  0.00     0.210 HD
ENDBRANCH  18  29
BRANCH  20  31
ATOM     31  O15 7K3 d   1       5.792 -31.008   0.808  0.00  0.00    -0.390 OA
ATOM     32  H33 7K2 d   1       6.364 -31.499   1.386  0.00  0.00     0.210 HD
ENDBRANCH  20  31
BRANCH  22  33
ATOM     33  C13 7K3 d   1       4.721 -28.364  -0.017  0.00  0.00     0.043 C 
ATOM     34  H27 7K2 d   1       4.088 -29.013   0.607  0.00  0.00     0.078 H 
ATOM     35  H28 7K2 d   1       4.085 -27.769  -0.689  0.00  0.00     0.078 H 
BRANCH  33  36
ATOM     36  O14 7K3 d   1       5.469 -27.464   0.845  0.00  0.00    -0.398 OA
ATOM     37  H34 7K2 d   1       4.863 -26.937   1.352  0.00  0.00     0.209 HD
ENDBRANCH  33  36
ENDBRANCH  22  33
ENDBRANCH  15  16
ENDBRANCH  12  15
ENDBRANCH   4  12
BRANCH   3  38
ATOM     38  O15 7K2 d   1       2.636 -29.059  -3.670  0.00  0.00    -0.390 OA
ATOM     39  H6  7K2 d   1       2.022 -29.388  -3.024  0.00  0.00     0.210 HD
ENDBRANCH   3  38
BRANCH   2  40
ATOM     40  O16 7K2 d   1       1.635 -31.779  -3.955  0.00  0.00    -0.390 OA
ATOM     41  H4  7K2 d   1       1.170 -31.144  -3.423  0.00  0.00     0.210 HD
ENDBRANCH   2  40
BRANCH   6  42
ATOM     42  S1  7K2 d   1       2.807 -30.537  -8.015  0.00  0.00    -0.134 SA
BRANCH  42  43
ATOM     43  C6  7K2 d   1       3.914 -29.973  -9.301  0.00  0.00    -0.014 C 
ATOM     44  H11 7K2 d   1       4.917 -29.872  -8.861  0.00  0.00     0.049 H 
ATOM     45  H12 7K2 d   1       3.561 -28.988  -9.640  0.00  0.00     0.049 H 
BRANCH  43  46
ATOM     46  C5  7K2 d   1       4.030 -30.860 -10.510  0.00  0.00     0.005 C 
ATOM     47  C1  7K2 d   1       2.704 -30.772 -11.328  0.00  0.00     0.088 C 
ATOM     48  N   7K2 d   1       2.755 -31.606 -12.567  0.00  0.00    -0.072 N 
ATOM     49  H14 7K2 d   1       2.531 -29.724 -11.612  0.00  0.00     0.076 H 
ATOM     50  H15 7K2 d   1       1.874 -31.123 -10.698  0.00  0.00     0.076 H 
ATOM     51  C2  7K2 d   1       3.931 -31.268 -13.421  0.00  0.00     0.107 C 
ATOM     52  H16 7K2 d   1       1.912 -31.452 -13.098  0.00  0.00     0.277 HD
ATOM     53  H17 7K2 d   1       2.813 -32.577 -12.303  0.00  0.00     0.277 HD
ATOM     54  C3  7K2 d   1       5.224 -31.321 -12.660  0.00  0.00     0.084 C 
ATOM     55  H18 7K2 d   1       3.797 -30.252 -13.820  0.00  0.00     0.079 H 
ATOM     56  H19 7K2 d   1       3.981 -31.985 -14.253  0.00  0.00     0.079 H 
ATOM     57  C4  7K2 d   1       5.189 -30.449 -11.433  0.00  0.00     0.067 C 
ATOM     58  H20 7K2 d   1       5.423 -32.357 -12.350  0.00  0.00     0.089 H 
ATOM     59  H22 7K2 d   1       5.030 -29.409 -11.753  0.00  0.00     0.087 H 
ATOM     60  H13 7K2 d   1       4.191 -31.895 -10.175  0.00  0.00     0.047 H 
BRANCH  54  61
ATOM     61  O3  7K2 d   1       6.269 -30.873 -13.574  0.00  0.00    -0.391 OA
ATOM     62  H21 7K2 d   1       6.297 -31.450 -14.328  0.00  0.00     0.210 HD
ENDBRANCH  54  61
BRANCH  57  63
ATOM     63  O4  7K2 d   1       6.400 -30.517 -10.732  0.00  0.00    -0.393 OA
ATOM     64  H23 7K2 d   1       6.352 -29.959  -9.964  0.00  0.00     0.210 HD
ENDBRANCH  57  63
ENDBRANCH  43  46
ENDBRANCH  42  43
ENDBRANCH   6  42
BRANCH   1  65
ATOM     65  O17 7K2 d   1       4.105 -32.809  -4.992  0.00  0.00    -0.389 OA
ATOM     66  H1  7K2 d   1       4.598 -33.427  -5.519  0.00  0.00     0.210 HD
ENDBRANCH   1  65
TORSDOF 16
