REMARK  6 active torsions:
REMARK  status: ('A' for Active; 'I' for Inactive)
REMARK    1  A    between atoms: C3_3  and  O3_10 
REMARK    2  A    between atoms: C4_4  and  O4_11 
REMARK    3  A    between atoms: C5_5  and  C6_6 
REMARK    4  A    between atoms: C6_6  and  O6_14 
REMARK    5  A    between atoms: C9_16  and  C10_8 
REMARK    6  A    between atoms: N1_13  and  C9_16 
ROOT
ATOM      1  C1  NHT d   1     -16.216   3.795  38.188  0.00  0.00     0.112 C 
ATOM      2  C2  NHT d   1     -16.243   2.654  37.170  0.00  0.00     0.073 C 
ATOM      3  C3  NHT d   1     -15.204   1.558  37.411  0.00  0.00     0.085 C 
ATOM      4  C4  NHT d   1     -13.833   2.208  37.633  0.00  0.00     0.089 C 
ATOM      5  C5  NHT d   1     -13.931   3.181  38.805  0.00  0.00     0.087 C 
ATOM      6  C7  NHT d   1     -18.095   2.213  38.441  0.00  0.00     0.160 C 
ATOM      7  N2  NHT d   1     -17.633   2.150  37.228  0.00  0.00    -0.359 N 
ATOM      8  O5  NHT d   1     -14.901   4.212  38.513  0.00  0.00    -0.363 OA
ATOM      9  N1  NHT d   1     -19.271   1.621  38.751  0.00  0.00    -0.267 NA
ATOM     10  S1  NHT d   1     -17.156   3.138  39.610  0.00  0.00    -0.058 SA
ATOM     11  H1  NHT d   1     -16.746   4.666  37.775  0.00  0.00     0.104 H 
ATOM     12  H2  NHT d   1     -16.050   3.068  36.169  0.00  0.00     0.082 H 
ATOM     13  H3  NHT d   1     -15.480   0.984  38.308  0.00  0.00     0.090 H 
ATOM     14  H4  NHT d   1     -13.541   2.756  36.725  0.00  0.00     0.091 H 
ATOM     15  H5  NHT d   1     -14.254   2.616  39.692  0.00  0.00     0.090 H 
ATOM     16  H11 NHT d   1     -18.162   1.797  36.418  0.00  0.00     0.162 HD
ENDROOT
BRANCH   9  17
ATOM     17  C9  NHT d   1     -20.058   1.894  39.944  0.00  0.00     0.014 C 
ATOM     18  H15 NHT d   1     -19.827   2.910  40.295  0.00  0.00     0.066 H 
ATOM     19  H16 NHT d   1     -21.125   1.829  39.686  0.00  0.00     0.066 H 
BRANCH  17  20
ATOM     20  C10 NHT d   1     -19.770   0.926  41.049  0.00  0.00    -0.059 C 
ATOM     21  H8  NHT d   1     -20.388   1.175  41.925  0.00  0.00     0.029 H 
ATOM     22  H9  NHT d   1     -18.706   0.987  41.322  0.00  0.00     0.029 H 
ATOM     23  H10 NHT d   1     -20.005  -0.095  40.713  0.00  0.00     0.029 H 
ENDBRANCH  17  20
ENDBRANCH   9  17
BRANCH   3  24
ATOM     24  O3  NHT d   1     -15.173   0.673  36.279  0.00  0.00    -0.391 OA
ATOM     25  H12 NHT d   1     -14.531  -0.011  36.430  0.00  0.00     0.210 HD
ENDBRANCH   3  24
BRANCH   4  26
ATOM     26  O4  NHT d   1     -12.841   1.215  37.920  0.00  0.00    -0.390 OA
ATOM     27  H13 NHT d   1     -12.001   1.638  38.053  0.00  0.00     0.210 HD
ENDBRANCH   4  26
BRANCH   5  28
ATOM     28  C6  NHT d   1     -12.626   3.877  39.123  0.00  0.00     0.043 C 
ATOM     29  H6  NHT d   1     -11.877   3.125  39.412  0.00  0.00     0.078 H 
ATOM     30  H7  NHT d   1     -12.784   4.577  39.957  0.00  0.00     0.078 H 
BRANCH  28  31
ATOM     31  O6  NHT d   1     -12.149   4.602  37.984  0.00  0.00    -0.398 OA
ATOM     32  H14 NHT d   1     -12.009   4.000  37.263  0.00  0.00     0.209 HD
ENDBRANCH  28  31
ENDBRANCH   5  28
TORSDOF 6
