REMARK  12 active torsions:
REMARK  status: ('A' for Active; 'I' for Inactive)
REMARK    1  A    between atoms: C3_14  and  C4_1 
REMARK    2  A    between atoms: C5_3  and  O2_18 
REMARK    3  A    between atoms: C6_4  and  O3_19 
REMARK    4  A    between atoms: C10_9  and  C11_5 
REMARK    5  A    between atoms: C11_5  and  C12_10 
REMARK    6  A    between atoms: C7_6  and  C8_7 
REMARK    7  A    between atoms: C8_7  and  O4_20 
REMARK    8  A    between atoms: C9_8  and  C10_9 
REMARK    9  A    between atoms: N2_13  and  C9_8 
REMARK   10  A    between atoms: N1_12  and  C1_15 
REMARK       I    between atoms: C2_16  and  N1_12 
REMARK   11  A    between atoms: C3_14  and  C2_16 
REMARK   12  A    between atoms: C16_22  and  C17_23 
ROOT
ATOM      1  C4  XHA d   1     -15.995   3.197  37.309  0.00  0.00     0.139 C 
ATOM      2  C5  XHA d   1     -15.146   1.920  37.400  0.00  0.00     0.090 C 
ATOM      3  C6  XHA d   1     -13.780   2.442  37.866  0.00  0.00     0.092 C 
ATOM      4  C7  XHA d   1     -14.176   3.501  38.893  0.00  0.00     0.151 C 
ATOM      5  N2  XHA d   1     -15.331   4.154  38.234  0.00  0.00    -0.055 N 
ATOM      6  H1  XHA d   1     -15.934   3.589  36.283  0.00  0.00     0.089 H 
ATOM      7  H3  XHA d   1     -15.059   1.444  36.412  0.00  0.00     0.090 H 
ATOM      8  H4  XHA d   1     -13.239   2.903  37.026  0.00  0.00     0.090 H 
ATOM      9  H7  XHA d   1     -14.496   3.017  39.827  0.00  0.00     0.092 H 
ATOM     10  H16 XHA d   1     -15.997   4.376  38.958  0.00  0.00     0.281 HD
ENDROOT
BRANCH   5  11
ATOM     11  C9  XHA d   1     -14.983   5.423  37.587  0.00  0.00     0.085 C 
ATOM     12  H10 XHA d   1     -14.938   6.208  38.356  0.00  0.00     0.076 H 
ATOM     13  H11 XHA d   1     -13.996   5.316  37.113  0.00  0.00     0.076 H 
BRANCH  11  14
ATOM     14  C10 XHA d   1     -15.985   5.841  36.528  0.00  0.00    -0.039 C 
ATOM     15  H12 XHA d   1     -15.826   5.216  35.637  0.00  0.00     0.035 H 
ATOM     16  H13 XHA d   1     -16.997   5.667  36.923  0.00  0.00     0.035 H 
BRANCH  14  17
ATOM     17  C11 XHA d   1     -15.881   7.287  36.115  0.00  0.00    -0.040 C 
ATOM     18  H5  XHA d   1     -15.185   7.797  36.797  0.00  0.00     0.040 H 
ATOM     19  H6  XHA d   1     -16.877   7.747  36.196  0.00  0.00     0.040 H 
BRANCH  17  20
ATOM     20  C12 XHA d   1     -15.383   7.463  34.700  0.00  0.00    -0.057 A 
ATOM     21  C13 XHA d   1     -14.093   7.914  34.450  0.00  0.00    -0.077 A 
ATOM     22  C14 XHA d   1     -13.637   8.074  33.154  0.00  0.00    -0.082 A 
ATOM     23  H14 XHA d   1     -13.436   8.143  35.281  0.00  0.00     0.084 H 
ATOM     24  C15 XHA d   1     -14.454   7.780  32.078  0.00  0.00    -0.068 A 
ATOM     25  H2  XHA d   1     -12.629   8.433  32.980  0.00  0.00     0.083 H 
ATOM     26  C16 XHA d   1     -15.739   7.324  32.311  0.00  0.00     0.048 A 
ATOM     27  H25 XHA d   1     -14.092   7.905  31.064  0.00  0.00     0.084 H 
ATOM     28  C18 XHA d   1     -16.195   7.170  33.610  0.00  0.00    -0.062 A 
ATOM     29  H26 XHA d   1     -17.205   6.814  33.780  0.00  0.00     0.085 H 
BRANCH  26  30
ATOM     30  C17 XHA d   1     -16.638   7.011  31.154  0.00  0.00     0.417 C 
ATOM     31  F1  XHA d   1     -16.446   7.834  30.124  0.00  0.00    -0.166 F 
ATOM     32  F2  XHA d   1     -16.458   5.780  30.679  0.00  0.00    -0.166 F 
ATOM     33  F3  XHA d   1     -17.933   7.101  31.459  0.00  0.00    -0.166 F 
ENDBRANCH  26  30
ENDBRANCH  17  20
ENDBRANCH  14  17
ENDBRANCH  11  14
ENDBRANCH   5  11
BRANCH   1  34
ATOM     34  C3  XHA d   1     -17.480   2.991  37.626  0.00  0.00     0.038 C 
ATOM     35  H17 XHA d   1     -17.846   2.134  37.041  0.00  0.00     0.050 H 
ATOM     36  H18 XHA d   1     -18.029   3.898  37.331  0.00  0.00     0.050 H 
BRANCH  34  37
ATOM     37  C2  XHA d   1     -17.751   2.722  39.091  0.00  0.00     0.219 C 
ATOM     38  N1  XHA d   1     -18.889   2.088  39.355  0.00  0.00    -0.365 N 
ATOM     39  H15 XHA d   1     -19.470   1.806  38.591  0.00  0.00     0.161 HD
ATOM     40  O1  XHA d   1     -16.966   3.085  39.968  0.00  0.00    -0.274 OA
BRANCH  38  41
ATOM     41  C1  XHA d   1     -19.322   1.788  40.707  0.00  0.00    -0.018 C 
ATOM     42  H19 XHA d   1     -20.288   1.262  40.675  0.00  0.00     0.056 H 
ATOM     43  H20 XHA d   1     -19.434   2.725  41.273  0.00  0.00     0.056 H 
ATOM     44  H21 XHA d   1     -18.573   1.150  41.199  0.00  0.00     0.056 H 
ENDBRANCH  38  41
ENDBRANCH  34  37
ENDBRANCH   1  34
BRANCH   4  45
ATOM     45  C8  XHA d   1     -13.058   4.477  39.232  0.00  0.00     0.046 C 
ATOM     46  H8  XHA d   1     -12.328   3.967  39.879  0.00  0.00     0.077 H 
ATOM     47  H9  XHA d   1     -13.489   5.334  39.770  0.00  0.00     0.077 H 
BRANCH  45  48
ATOM     48  O4  XHA d   1     -12.387   4.955  38.077  0.00  0.00    -0.399 OA
ATOM     49  H24 XHA d   1     -12.005   4.222  37.608  0.00  0.00     0.209 HD
ENDBRANCH  45  48
ENDBRANCH   4  45
BRANCH   2  50
ATOM     50  O2  XHA d   1     -15.697   0.980  38.313  0.00  0.00    -0.391 OA
ATOM     51  H22 XHA d   1     -15.108   0.239  38.397  0.00  0.00     0.210 HD
ENDBRANCH   2  50
BRANCH   3  52
ATOM     52  O3  XHA d   1     -12.959   1.425  38.422  0.00  0.00    -0.391 OA
ATOM     53  H23 XHA d   1     -12.740   0.793  37.748  0.00  0.00     0.210 HD
ENDBRANCH   3  52
TORSDOF 12
