REMARK  14 active torsions:
REMARK  status: ('A' for Active; 'I' for Inactive)
REMARK    1  A    between atoms: N1_7  and  C2_1 
REMARK    2  A    between atoms: C2_1  and  C5_8 
REMARK    3  A    between atoms: C9_2  and  C10_3 
REMARK    4  A    between atoms: C9_2  and  C14_4 
REMARK    5  A    between atoms: N7_10  and  C9_2 
REMARK    6  A    between atoms: C14_4  and  C17_13 
REMARK    7  A    between atoms: C17_13  and  C19_5 
REMARK    8  A    between atoms: C31_6  and  P28_15 
REMARK    9  A    between atoms: N34_25  and  C31_6 
REMARK   10  A    between atoms: P28_15  and  N1_7 
REMARK       I    between atoms: C5_8  and  N7_10 
REMARK   11  A    between atoms: C17_13  and  C23_14 
REMARK   12  A    between atoms: C39_18  and  C42_19 
REMARK   13  A    between atoms: O38_28  and  C39_18 
REMARK       I    between atoms: C36_26  and  N34_25 
REMARK   14  A    between atoms: C36_26  and  O38_28 
ROOT
ATOM      1  N1  7GR d   1      57.563  41.215   4.315  0.00  0.00    -0.339 N 
ATOM      2  H11 7GR d   1      58.214  40.579   3.900  0.00  0.00     0.164 HD
ENDROOT
BRANCH   1   3
ATOM      3  C2  7GR d   1      56.484  41.732   3.515  0.00  0.00     0.070 C 
ATOM      4  H1  7GR d   1      56.809  41.742   2.464  0.00  0.00     0.078 H 
ATOM      5  H2  7GR d   1      56.274  42.761   3.844  0.00  0.00     0.078 H 
BRANCH   3   6
ATOM      6  C5  7GR d   1      55.202  40.936   3.606  0.00  0.00     0.236 C 
ATOM      7  O6  7GR d   1      54.104  41.412   3.361  0.00  0.00    -0.272 OA
ATOM      8  N7  7GR d   1      55.352  39.624   4.014  0.00  0.00    -0.345 N 
ATOM      9  H12 7GR d   1      56.272  39.288   4.215  0.00  0.00     0.163 HD
BRANCH   8  10
ATOM     10  C9  7GR d   1      54.250  38.725   4.162  0.00  0.00     0.096 C 
ATOM     11  H3  7GR d   1      53.418  39.320   4.567  0.00  0.00     0.089 H 
BRANCH  10  12
ATOM     12  C10 7GR d   1      54.580  37.710   5.214  0.00  0.00     0.196 C 
ATOM     13  O11 7GR d   1      55.726  37.670   5.725  0.00  0.00    -0.646 OA
ATOM     14  O12 7GR d   1      53.647  36.943   5.557  0.00  0.00    -0.646 OA
ENDBRANCH  10  12
BRANCH  10  15
ATOM     15  C14 7GR d   1      53.734  38.170   2.848  0.00  0.00    -0.034 C 
ATOM     16  H4  7GR d   1      53.418  39.014   2.217  0.00  0.00     0.037 H 
ATOM     17  H5  7GR d   1      52.867  37.527   3.061  0.00  0.00     0.037 H 
BRANCH  15  18
ATOM     18  C17 7GR d   1      54.764  37.348   2.072  0.00  0.00    -0.059 C 
ATOM     19  H13 7GR d   1      55.433  36.854   2.792  0.00  0.00     0.038 H 
BRANCH  18  20
ATOM     20  C19 7GR d   1      55.604  38.212   1.127  0.00  0.00    -0.073 C 
ATOM     21  H6  7GR d   1      56.327  37.577   0.594  0.00  0.00     0.028 H 
ATOM     22  H7  7GR d   1      56.144  38.973   1.709  0.00  0.00     0.028 H 
ATOM     23  H8  7GR d   1      54.944  38.707   0.399  0.00  0.00     0.028 H 
ENDBRANCH  18  20
BRANCH  18  24
ATOM     24  C23 7GR d   1      54.044  36.281   1.228  0.00  0.00    -0.073 C 
ATOM     25  H14 7GR d   1      53.432  35.645   1.885  0.00  0.00     0.028 H 
ATOM     26  H15 7GR d   1      54.789  35.661   0.708  0.00  0.00     0.028 H 
ATOM     27  H16 7GR d   1      53.397  36.774   0.488  0.00  0.00     0.028 H 
ENDBRANCH  18  24
ENDBRANCH  15  18
ENDBRANCH  10  15
ENDBRANCH   8  10
ENDBRANCH   3   6
ENDBRANCH   1   3
BRANCH   1  28
ATOM     28  P28 7GR d   1      57.759  41.642   5.905  0.00  0.00     0.223 P 
ATOM     29  O29 7GR d   1      58.812  42.670   6.125  0.00  0.00    -0.651 OA
ATOM     30  O30 7GR d   1      56.389  42.106   6.441  0.00  0.00    -0.651 OA
BRANCH  28  31
ATOM     31  C31 7GR d   1      58.244  40.077   6.671  0.00  0.00     0.086 C 
ATOM     32  H9  7GR d   1      58.880  39.511   5.975  0.00  0.00     0.083 H 
ATOM     33  H10 7GR d   1      57.344  39.490   6.906  0.00  0.00     0.083 H 
BRANCH  31  34
ATOM     34  N34 7GR d   1      58.983  40.339   7.896  0.00  0.00    -0.325 N 
ATOM     35  C36 7GR d   1      58.927  39.429   8.951  0.00  0.00     0.361 C 
ATOM     36  O37 7GR d   1      58.389  38.365   8.903  0.00  0.00    -0.238 OA
ATOM     37  H24 7GR d   1      59.531  41.171   7.982  0.00  0.00     0.165 HD
BRANCH  35  38
ATOM     38  O38 7GR d   1      59.590  39.839  10.083  0.00  0.00    -0.299 OA
BRANCH  38  39
ATOM     39  C39 7GR d   1      59.979  38.738  10.934  0.00  0.00     0.054 C 
ATOM     40  H17 7GR d   1      59.301  38.651  11.796  0.00  0.00     0.082 H 
ATOM     41  H18 7GR d   1      59.983  37.792  10.373  0.00  0.00     0.082 H 
BRANCH  39  42
ATOM     42  C42 7GR d   1      61.395  39.110  11.388  0.00  0.00    -0.034 A 
ATOM     43  C43 7GR d   1      62.487  38.852  10.580  0.00  0.00    -0.075 A 
ATOM     44  C45 7GR d   1      63.768  39.147  11.030  0.00  0.00    -0.082 A 
ATOM     45  H19 7GR d   1      62.344  38.420   9.596  0.00  0.00     0.084 H 
ATOM     46  C47 7GR d   1      63.964  39.761  12.256  0.00  0.00    -0.083 A 
ATOM     47  H20 7GR d   1      64.624  38.894  10.415  0.00  0.00     0.083 H 
ATOM     48  C49 7GR d   1      62.847  40.015  13.041  0.00  0.00    -0.082 A 
ATOM     49  H21 7GR d   1      64.958  40.035  12.592  0.00  0.00     0.083 H 
ATOM     50  C51 7GR d   1      61.574  39.679  12.620  0.00  0.00    -0.075 A 
ATOM     51  H22 7GR d   1      62.977  40.488  14.008  0.00  0.00     0.083 H 
ATOM     52  H23 7GR d   1      60.721  39.865  13.263  0.00  0.00     0.084 H 
ENDBRANCH  39  42
ENDBRANCH  38  39
ENDBRANCH  35  38
ENDBRANCH  31  34
ENDBRANCH  28  31
ENDBRANCH   1  28
TORSDOF 14
