REMARK  16 active torsions:
REMARK  status: ('A' for Active; 'I' for Inactive)
REMARK    1  A    between atoms: C2_2  and  C1_1 
REMARK    2  A    between atoms: O3_26  and  C2_2 
REMARK    3  A    between atoms: C20_8  and  C21_9 
REMARK    4  A    between atoms: N19_20  and  C20_8 
REMARK    5  A    between atoms: C20_8  and  C28_23 
REMARK    6  A    between atoms: C21_9  and  C22_10 
REMARK    7  A    between atoms: C22_10  and  C24_11 
REMARK    8  A    between atoms: C22_10  and  C23_21 
REMARK    9  A    between atoms: C25_30  and  N26_12 
REMARK   10  A    between atoms: C6_13  and  P13_14 
REMARK   11  A    between atoms: N5_28  and  C6_13 
REMARK   12  A    between atoms: P13_14  and  N16_17 
REMARK   13  A    between atoms: N16_17  and  C17_18 
REMARK   14  A    between atoms: C17_18  and  C18_19 
REMARK   15  A    between atoms: C17_18  and  C25_30 
REMARK       I    between atoms: C18_19  and  N19_20 
REMARK   16  A    between atoms: C4_27  and  O3_26 
REMARK       I    between atoms: C4_27  and  N5_28 
ROOT
ATOM      1  C17 7K0 d   1      10.029  38.516  -3.506  0.00  0.00     0.113 C 
ATOM      2  H21 7K0 d   1       9.790  37.495  -3.840  0.00  0.00     0.090 H 
ENDROOT
BRANCH   1   3
ATOM      3  N16 7K0 d   1      11.259  39.044  -4.196  0.00  0.00    -0.333 N 
ATOM      4  H20 7K0 d   1      11.944  39.589  -3.714  0.00  0.00     0.164 HD
BRANCH   3   5
ATOM      5  P13 7K0 d   1      11.416  38.648  -5.884  0.00  0.00     0.224 P 
ATOM      6  O14 7K0 d   1      12.476  37.616  -6.111  0.00  0.00    -0.651 OA
ATOM      7  O15 7K0 d   1      10.056  38.172  -6.447  0.00  0.00    -0.651 OA
BRANCH   5   8
ATOM      8  C6  7K0 d   1      11.890  40.278  -6.552  0.00  0.00     0.086 C 
ATOM      9  H18 7K0 d   1      12.575  40.790  -5.861  0.00  0.00     0.083 H 
ATOM     10  H19 7K0 d   1      10.997  40.900  -6.712  0.00  0.00     0.083 H 
BRANCH   8  11
ATOM     11  N5  7K0 d   1      12.563  40.009  -7.835  0.00  0.00    -0.325 N 
ATOM     12  C4  7K0 d   1      12.517  40.865  -8.887  0.00  0.00     0.361 C 
ATOM     13  O7  7K0 d   1      11.889  41.910  -8.913  0.00  0.00    -0.238 OA
ATOM     14  H26 7K0 d   1      13.077  39.157  -7.935  0.00  0.00     0.165 HD
BRANCH  12  15
ATOM     15  O3  7K0 d   1      13.245  40.535  -9.975  0.00  0.00    -0.299 OA
BRANCH  15  16
ATOM     16  C2  7K0 d   1      13.613  41.521 -10.972  0.00  0.00     0.054 C 
ATOM     17  H1  7K0 d   1      12.906  41.488 -11.814  0.00  0.00     0.082 H 
ATOM     18  H2  7K0 d   1      13.607  42.527 -10.527  0.00  0.00     0.082 H 
BRANCH  16  19
ATOM     19  C1  7K0 d   1      14.998  41.177 -11.449  0.00  0.00    -0.034 A 
ATOM     20  C8  7K0 d   1      16.130  41.336 -10.614  0.00  0.00    -0.075 A 
ATOM     21  C9  7K0 d   1      17.412  41.018 -11.085  0.00  0.00    -0.082 A 
ATOM     22  H3  7K0 d   1      16.005  41.706  -9.603  0.00  0.00     0.084 H 
ATOM     23  C10 7K0 d   1      17.584  40.493 -12.365  0.00  0.00    -0.083 A 
ATOM     24  H4  7K0 d   1      18.275  41.181 -10.450  0.00  0.00     0.083 H 
ATOM     25  C11 7K0 d   1      16.465  40.338 -13.189  0.00  0.00    -0.082 A 
ATOM     26  H5  7K0 d   1      18.570  40.209 -12.716  0.00  0.00     0.083 H 
ATOM     27  C12 7K0 d   1      15.179  40.669 -12.743  0.00  0.00    -0.075 A 
ATOM     28  H6  7K0 d   1      16.595  39.954 -14.194  0.00  0.00     0.083 H 
ATOM     29  H7  7K0 d   1      14.325  40.533 -13.397  0.00  0.00     0.084 H 
ENDBRANCH  16  19
ENDBRANCH  15  16
ENDBRANCH  12  15
ENDBRANCH   8  11
ENDBRANCH   5   8
ENDBRANCH   3   5
ENDBRANCH   1   3
BRANCH   1  30
ATOM     30  C18 7K0 d   1       8.824  39.413  -3.714  0.00  0.00     0.242 C 
ATOM     31  N19 7K0 d   1       9.031  40.721  -4.021  0.00  0.00    -0.345 N 
ATOM     32  H22 7K0 d   1       9.962  41.082  -4.083  0.00  0.00     0.163 HD
ATOM     33  O27 7K0 d   1       7.699  38.953  -3.587  0.00  0.00    -0.271 OA
BRANCH  31  34
ATOM     34  C20 7K0 d   1       7.876  41.605  -4.262  0.00  0.00     0.096 C 
ATOM     35  H8  7K0 d   1       7.072  40.986  -4.688  0.00  0.00     0.089 H 
BRANCH  34  36
ATOM     36  C21 7K0 d   1       7.314  42.190  -2.959  0.00  0.00    -0.034 C 
ATOM     37  H9  7K0 d   1       7.033  41.350  -2.306  0.00  0.00     0.037 H 
ATOM     38  H10 7K0 d   1       6.417  42.774  -3.212  0.00  0.00     0.037 H 
BRANCH  36  39
ATOM     39  C22 7K0 d   1       8.248  43.090  -2.180  0.00  0.00    -0.059 C 
ATOM     40  H11 7K0 d   1       8.904  43.597  -2.903  0.00  0.00     0.038 H 
BRANCH  39  41
ATOM     41  C24 7K0 d   1       7.530  44.167  -1.358  0.00  0.00    -0.073 C 
ATOM     42  H12 7K0 d   1       8.273  44.777  -0.824  0.00  0.00     0.028 H 
ATOM     43  H13 7K0 d   1       6.859  43.687  -0.631  0.00  0.00     0.028 H 
ATOM     44  H14 7K0 d   1       6.943  44.810  -2.030  0.00  0.00     0.028 H 
ENDBRANCH  39  41
BRANCH  39  45
ATOM     45  C23 7K0 d   1       9.107  42.256  -1.242  0.00  0.00    -0.073 C 
ATOM     46  H23 7K0 d   1       9.629  41.478  -1.818  0.00  0.00     0.028 H 
ATOM     47  H24 7K0 d   1       8.467  41.783  -0.482  0.00  0.00     0.028 H 
ATOM     48  H25 7K0 d   1       9.846  42.904  -0.748  0.00  0.00     0.028 H 
ENDBRANCH  39  45
ENDBRANCH  36  39
ENDBRANCH  34  36
BRANCH  34  49
ATOM     49  C28 7K0 d   1       8.263  42.644  -5.353  0.00  0.00     0.196 C 
ATOM     50  O29 7K0 d   1       9.464  42.680  -5.731  0.00  0.00    -0.646 OA
ATOM     51  O30 7K0 d   1       7.291  43.300  -5.800  0.00  0.00    -0.646 OA
ENDBRANCH  34  49
ENDBRANCH  31  34
ENDBRANCH   1  30
BRANCH   1  52
ATOM     52  C25 7K0 d   1      10.469  38.544  -2.036  0.00  0.00     0.106 C 
ATOM     53  H27 7K0 d   1      11.384  37.945  -1.918  0.00  0.00     0.079 H 
ATOM     54  H28 7K0 d   1      10.669  39.583  -1.736  0.00  0.00     0.079 H 
BRANCH  52  55
ATOM     55  N26 7K0 d   1       9.409  37.986  -1.183  0.00  0.00    -0.077 N 
ATOM     56  H15 7K0 d   1       9.706  38.008  -0.220  0.00  0.00     0.274 HD
ATOM     57  H16 7K0 d   1       9.225  37.033  -1.456  0.00  0.00     0.274 HD
ATOM     58  H17 7K0 d   1       8.570  38.534  -1.288  0.00  0.00     0.274 HD
ENDBRANCH  52  55
ENDBRANCH   1  52
TORSDOF 16
