REMARK  1 active torsions:
REMARK  status: ('A' for Active; 'I' for Inactive)
REMARK    1  A    between atoms: CA_2  and  C_3 
ROOT
ATOM      1  N   PRO d   1      18.530  43.183  78.635  0.00  0.00    -0.061 N 
ATOM      2  CA  PRO d   1      19.366  44.391  78.644  0.00  0.00     0.184 C 
ATOM      3  CB  PRO d   1      18.419  45.482  79.152  0.00  0.00    -0.027 C 
ATOM      4  CG  PRO d   1      17.062  44.941  78.905  0.00  0.00    -0.040 C 
ATOM      5  CD  PRO d   1      17.115  43.486  78.908  0.00  0.00     0.083 C 
ATOM      6  H1  PRO d   1      18.869  42.548  79.341  0.00  0.00     0.278 HD
ATOM      7  H2  PRO d   1      18.600  42.746  77.729  0.00  0.00     0.278 HD
ATOM      8  H3  PRO d   1      19.721  44.619  77.628  0.00  0.00     0.101 H 
ATOM      9  H4  PRO d   1      18.571  46.419  78.596  0.00  0.00     0.036 H 
ATOM     10  H5  PRO d   1      18.576  45.664  80.226  0.00  0.00     0.036 H 
ATOM     11  H6  PRO d   1      16.698  45.293  77.928  0.00  0.00     0.035 H 
ATOM     12  H7  PRO d   1      16.380  45.285  79.696  0.00  0.00     0.035 H 
ATOM     13  H8  PRO d   1      16.811  43.085  79.886  0.00  0.00     0.075 H 
ATOM     14  H9  PRO d   1      16.467  43.069  78.123  0.00  0.00     0.075 H 
ENDROOT
BRANCH   2  15
ATOM     15  C   PRO d   1      20.554  44.269  79.570  0.00  0.00     0.204 C 
ATOM     16  O   PRO d   1      21.432  45.142  79.568  0.00  0.00    -0.646 OA
ATOM     17  OXT PRO d   1      20.614  43.289  80.320  0.00  0.00    -0.646 OA
ENDBRANCH   2  15
TORSDOF 1
