REMARK  5 active torsions:
REMARK  status: ('A' for Active; 'I' for Inactive)
REMARK    1  A    between atoms: C4_1  and  O4_2 
REMARK    2  A    between atoms: C3_3  and  O3_4 
REMARK    3  A    between atoms: C2_5  and  O2_6 
REMARK    4  A    between atoms: C5_9  and  C6_10 
REMARK    5  A    between atoms: C6_10  and  O6_11 
ROOT
ATOM      1  C4  DMJ d   1      23.916  18.761  48.219  0.00  0.00     0.092 C 
ATOM      2  C3  DMJ d   1      24.879  17.579  48.526  0.00  0.00     0.088 C 
ATOM      3  C2  DMJ d   1      25.651  17.170  47.225  0.00  0.00     0.086 C 
ATOM      4  C1  DMJ d   1      26.019  18.367  46.290  0.00  0.00     0.108 C 
ATOM      5  N5  DMJ d   1      26.060  19.592  47.174  0.00  0.00    -0.064 N 
ATOM      6  C5  DMJ d   1      24.707  20.028  47.769  0.00  0.00     0.149 C 
ATOM      7  H1  DMJ d   1      23.374  19.009  49.144  0.00  0.00     0.090 H 
ATOM      8  H3  DMJ d   1      24.291  16.718  48.876  0.00  0.00     0.091 H 
ATOM      9  H5  DMJ d   1      25.012  16.481  46.653  0.00  0.00     0.089 H 
ATOM     10  H7  DMJ d   1      25.257  18.487  45.506  0.00  0.00     0.079 H 
ATOM     11  H8  DMJ d   1      27.001  18.200  45.824  0.00  0.00     0.079 H 
ATOM     12  H9  DMJ d   1      26.419  20.358  46.626  0.00  0.00     0.277 HD
ATOM     13  H10 DMJ d   1      26.689  19.402  47.939  0.00  0.00     0.277 HD
ATOM     14  H11 DMJ d   1      24.117  20.558  47.007  0.00  0.00     0.091 H 
ENDROOT
BRANCH   6  15
ATOM     15  C6  DMJ d   1      25.015  20.990  48.920  0.00  0.00     0.046 C 
ATOM     16  H12 DMJ d   1      25.534  20.448  49.725  0.00  0.00     0.077 H 
ATOM     17  H13 DMJ d   1      24.077  21.413  49.308  0.00  0.00     0.077 H 
BRANCH  15  18
ATOM     18  O6  DMJ d   1      25.855  22.049  48.434  0.00  0.00    -0.399 OA
ATOM     19  H14 DMJ d   1      26.664  21.681  48.098  0.00  0.00     0.209 HD
ENDBRANCH  15  18
ENDBRANCH   6  15
BRANCH   1  20
ATOM     20  O4  DMJ d   1      22.940  18.375  47.213  0.00  0.00    -0.391 OA
ATOM     21  H2  DMJ d   1      22.433  17.638  47.532  0.00  0.00     0.210 HD
ENDBRANCH   1  20
BRANCH   2  22
ATOM     22  O3  DMJ d   1      25.801  17.968  49.563  0.00  0.00    -0.390 OA
ATOM     23  H4  DMJ d   1      25.316  18.194  50.348  0.00  0.00     0.210 HD
ENDBRANCH   2  22
BRANCH   3  24
ATOM     24  O2  DMJ d   1      26.870  16.472  47.615  0.00  0.00    -0.391 OA
ATOM     25  H6  DMJ d   1      27.350  16.217  46.836  0.00  0.00     0.210 HD
ENDBRANCH   3  24
TORSDOF 5
