REMARK  7 active torsions:
REMARK  status: ('A' for Active; 'I' for Inactive)
REMARK    1  A    between atoms: O3'_14  and  P1_1 
REMARK    2  A    between atoms: O5'_9  and  P2_5 
REMARK    3  A    between atoms: C5'_10  and  O5'_9 
REMARK    4  A    between atoms: C4'_11  and  C5'_10 
REMARK    5  A    between atoms: C3'_13  and  O3'_14 
REMARK    6  A    between atoms: C2'_15  and  O2'_16 
REMARK    7  A    between atoms: C1'_17  and  N9_18 
ROOT
ATOM      1  C4' A3P d   1      32.542  31.603  24.541  0.00  0.00     0.090 C 
ATOM      2  O4' A3P d   1      32.578  32.986  25.034  0.00  0.00    -0.353 OA
ATOM      3  C3' A3P d   1      34.024  31.276  24.133  0.00  0.00     0.107 C 
ATOM      4  C2' A3P d   1      34.714  32.109  25.247  0.00  0.00     0.106 C 
ATOM      5  C1' A3P d   1      33.936  33.443  25.169  0.00  0.00     0.140 C 
ATOM      6  H3  A3P d   1      31.917  31.576  23.637  0.00  0.00     0.090 H 
ATOM      7  H4  A3P d   1      34.276  30.206  24.173  0.00  0.00     0.092 H 
ATOM      8  H5  A3P d   1      34.570  31.625  26.224  0.00  0.00     0.093 H 
ATOM      9  H7  A3P d   1      34.267  34.032  24.301  0.00  0.00     0.122 H 
ENDROOT
BRANCH   5  10
ATOM     10  N9  A3P d   1      33.987  34.283  26.388  0.00  0.00    -0.294 N 
ATOM     11  C8  A3P d   1      34.148  33.843  27.646  0.00  0.00     0.071 A 
ATOM     12  N7  A3P d   1      34.183  34.832  28.554  0.00  0.00    -0.236 NA
ATOM     13  H8  A3P d   1      34.241  32.789  27.904  0.00  0.00     0.144 H 
ATOM     14  C5  A3P d   1      33.963  35.923  27.804  0.00  0.00     0.149 A 
ATOM     15  C6  A3P d   1      33.843  37.338  28.098  0.00  0.00     0.155 A 
ATOM     16  C4  A3P d   1      33.848  35.600  26.394  0.00  0.00     0.167 A 
ATOM     17  N6  A3P d   1      33.914  37.703  29.368  0.00  0.00    -0.382 N 
ATOM     18  N1  A3P d   1      33.621  38.173  27.101  0.00  0.00    -0.222 NA
ATOM     19  H9  A3P d   1      33.834  38.698  29.623  0.00  0.00     0.157 HD
ATOM     20  H10 A3P d   1      34.050  36.992  30.101  0.00  0.00     0.157 HD
ATOM     21  C2  A3P d   1      33.530  37.789  25.823  0.00  0.00     0.091 A 
ATOM     22  N3  A3P d   1      33.639  36.540  25.438  0.00  0.00    -0.222 NA
ATOM     23  H11 A3P d   1      33.358  38.548  25.068  0.00  0.00     0.146 H 
ENDBRANCH   5  10
BRANCH   4  24
ATOM     24  O2' A3P d   1      36.134  32.332  25.053  0.00  0.00    -0.388 OA
ATOM     25  H6  A3P d   1      36.272  32.799  24.237  0.00  0.00     0.210 HD
ENDBRANCH   4  24
BRANCH   1  26
ATOM     26  C5' A3P d   1      31.941  30.584  25.521  0.00  0.00     0.059 C 
ATOM     27  H1  A3P d   1      32.133  29.562  25.162  0.00  0.00     0.079 H 
ATOM     28  H2  A3P d   1      32.390  30.713  26.517  0.00  0.00     0.079 H 
BRANCH  26  29
ATOM     29  O5' A3P d   1      30.538  30.816  25.590  0.00  0.00    -0.280 OA
BRANCH  29  30
ATOM     30  P2  A3P d   1      29.848  30.131  26.775  0.00  0.00     0.422 P 
ATOM     31  O4P A3P d   1      28.280  30.270  26.328  0.00  0.00    -0.617 OA
ATOM     32  O5P A3P d   1      30.238  28.682  27.040  0.00  0.00    -0.617 OA
ATOM     33  O6P A3P d   1      30.162  30.972  27.998  0.00  0.00    -0.617 OA
ENDBRANCH  29  30
ENDBRANCH  26  29
ENDBRANCH   1  26
BRANCH   3  34
ATOM     34  O3' A3P d   1      34.256  31.807  22.833  0.00  0.00    -0.272 OA
BRANCH  34  35
ATOM     35  P1  A3P d   1      35.535  31.292  21.914  0.00  0.00     0.422 P 
ATOM     36  O1P A3P d   1      35.205  31.801  20.562  0.00  0.00    -0.617 OA
ATOM     37  O2P A3P d   1      35.540  29.740  22.058  0.00  0.00    -0.617 OA
ATOM     38  O3P A3P d   1      36.790  31.922  22.549  0.00  0.00    -0.617 OA
ENDBRANCH  34  35
ENDBRANCH   3  34
TORSDOF 7
