REMARK  8 active torsions:
REMARK  status: ('A' for Active; 'I' for Inactive)
REMARK    1  A    between atoms: C22_17  and  C19_14 
REMARK    2  A    between atoms: C23_49  and  C22_17 
REMARK    3  A    between atoms: C27_19  and  C29_54 
REMARK    4  A    between atoms: C30_20  and  C31_21 
REMARK    5  A    between atoms: C29_54  and  C30_20 
REMARK    6  A    between atoms: C37_33  and  C38_32 
REMARK    7  A    between atoms: C4_34  and  C37_33 
REMARK    8  A    between atoms: N_47  and  C_48 
ROOT
ATOM      1  C1  7LT d   1     -10.610   0.051 -28.232  0.00  0.00    -0.001 C 
ATOM      2  C2  7LT d   1      -9.639   1.174 -27.883  0.00  0.00    -0.028 C 
ATOM      3  C3  7LT d   1      -8.471   0.752 -27.018  0.00  0.00     0.084 C 
ATOM      4  C7  7LT d   1     -11.169  -4.461 -23.796  0.00  0.00     0.090 C 
ATOM      5  C8  7LT d   1     -11.773  -5.045 -22.513  0.00  0.00    -0.034 C 
ATOM      6  C9  7LT d   1     -12.003  -6.561 -22.596  0.00  0.00    -0.037 C 
ATOM      7  C10 7LT d   1     -11.146  -7.277 -23.618  0.00  0.00    -0.031 A 
ATOM      8  C11 7LT d   1     -10.322  -8.285 -23.119  0.00  0.00    -0.075 A 
ATOM      9  C12 7LT d   1      -9.506  -9.021 -23.964  0.00  0.00    -0.082 A 
ATOM     10  C13 7LT d   1      -9.492  -8.757 -25.321  0.00  0.00    -0.081 A 
ATOM     11  C14 7LT d   1     -10.297  -7.758 -25.847  0.00  0.00    -0.056 A 
ATOM     12  C15 7LT d   1     -11.134  -7.026 -25.000  0.00  0.00     0.044 A 
ATOM     13  C16 7LT d   1     -12.063  -4.740 -25.018  0.00  0.00     0.247 C 
ATOM     14  C19 7LT d   1     -10.645  -3.927 -28.902  0.00  0.00     0.024 C 
ATOM     15  C20 7LT d   1     -11.390  -2.592 -28.926  0.00  0.00     0.028 C 
ATOM     16  C21 7LT d   1     -10.971  -1.614 -30.007  0.00  0.00     0.221 C 
ATOM     17  C4  7LT d   1      -8.634  -0.566 -24.944  0.00  0.00     0.113 C 
ATOM     18  N1  7LT d   1      -8.651   0.773 -25.563  0.00  0.00    -0.070 N 
ATOM     19  C5  7LT d   1      -9.968  -0.887 -24.270  0.00  0.00     0.036 C 
ATOM     20  C6  7LT d   1     -10.298  -2.325 -24.607  0.00  0.00     0.220 C 
ATOM     21  O   7LT d   1     -10.069  -2.787 -25.724  0.00  0.00    -0.274 OA
ATOM     22  N2  7LT d   1     -10.843  -3.052 -23.625  0.00  0.00    -0.348 N 
ATOM     23  O1  7LT d   1     -12.798  -3.891 -25.501  0.00  0.00    -0.271 OA
ATOM     24  N3  7LT d   1     -11.957  -5.992 -25.557  0.00  0.00    -0.307 N 
ATOM     25  C17 7LT d   1     -12.755  -6.291 -26.745  0.00  0.00     0.076 C 
ATOM     26  C18 7LT d   1     -12.283  -5.537 -27.980  0.00  0.00     0.236 C 
ATOM     27  O2  7LT d   1     -12.916  -5.610 -29.031  0.00  0.00    -0.272 OA
ATOM     28  N4  7LT d   1     -11.175  -4.791 -27.848  0.00  0.00    -0.354 N 
ATOM     29  O3  7LT d   1     -10.985  -1.958 -31.185  0.00  0.00    -0.273 OA
ATOM     30  N   7LT d   1     -10.601  -0.367 -29.640  0.00  0.00    -0.356 N 
ATOM     31  H1  7LT d   1     -11.627   0.390 -27.984  0.00  0.00     0.064 H 
ATOM     32  H2  7LT d   1     -10.355  -0.824 -27.616  0.00  0.00     0.064 H 
ATOM     33  H3  7LT d   1     -10.197   1.956 -27.348  0.00  0.00     0.037 H 
ATOM     34  H4  7LT d   1      -9.239   1.586 -28.821  0.00  0.00     0.037 H 
ATOM     35  H5  7LT d   1      -7.630   1.421 -27.254  0.00  0.00     0.075 H 
ATOM     36  H6  7LT d   1      -8.210  -0.278 -27.301  0.00  0.00     0.075 H 
ATOM     37  H7  7LT d   1     -10.219  -4.986 -23.975  0.00  0.00     0.087 H 
ATOM     38  H8  7LT d   1     -12.739  -4.553 -22.325  0.00  0.00     0.037 H 
ATOM     39  H9  7LT d   1     -11.088  -4.839 -21.677  0.00  0.00     0.037 H 
ATOM     40  H10 7LT d   1     -13.059  -6.734 -22.853  0.00  0.00     0.040 H 
ATOM     41  H11 7LT d   1     -11.791  -6.994 -21.607  0.00  0.00     0.040 H 
ATOM     42  H12 7LT d   1     -10.319  -8.496 -22.056  0.00  0.00     0.084 H 
ATOM     43  H13 7LT d   1      -8.877  -9.806 -23.560  0.00  0.00     0.083 H 
ATOM     44  H14 7LT d   1      -8.849  -9.333 -25.976  0.00  0.00     0.083 H 
ATOM     45  H15 7LT d   1     -10.277  -7.546 -26.910  0.00  0.00     0.086 H 
ATOM     46  H16 7LT d   1     -10.800  -4.427 -29.869  0.00  0.00     0.073 H 
ATOM     47  H17 7LT d   1     -11.236  -2.103 -27.953  0.00  0.00     0.050 H 
ATOM     48  H18 7LT d   1     -12.460  -2.807 -29.063  0.00  0.00     0.050 H 
ATOM     49  H34 7LT d   1      -8.510  -1.294 -25.760  0.00  0.00     0.085 H 
ATOM     50  H35 7LT d   1      -9.537   1.207 -25.358  0.00  0.00     0.277 HD
ATOM     51  H36 7LT d   1      -7.907   1.320 -25.158  0.00  0.00     0.277 HD
ATOM     52  H37 7LT d   1     -10.755  -0.219 -24.651  0.00  0.00     0.050 H 
ATOM     53  H38 7LT d   1      -9.880  -0.765 -23.180  0.00  0.00     0.050 H 
ATOM     54  H39 7LT d   1     -11.032  -2.614 -22.746  0.00  0.00     0.163 HD
ATOM     55  H40 7LT d   1     -13.801  -6.016 -26.544  0.00  0.00     0.079 H 
ATOM     56  H41 7LT d   1     -12.693  -7.370 -26.948  0.00  0.00     0.079 H 
ATOM     57  H42 7LT d   1     -10.683  -4.828 -26.978  0.00  0.00     0.162 HD
ENDROOT
BRANCH  14  58
ATOM     58  C22 7LT d   1      -9.135  -3.702 -28.712  0.00  0.00    -0.022 C 
ATOM     59  H19 7LT d   1      -8.988  -3.109 -27.797  0.00  0.00     0.043 H 
ATOM     60  H20 7LT d   1      -8.759  -3.139 -29.579  0.00  0.00     0.043 H 
BRANCH  58  61
ATOM     61  C23 7LT d   1      -8.326  -4.970 -28.587  0.00  0.00    -0.056 A 
ATOM     62  C24 7LT d   1      -7.950  -5.464 -27.344  0.00  0.00    -0.075 A 
ATOM     63  C25 7LT d   1      -7.227  -6.639 -27.242  0.00  0.00    -0.061 A 
ATOM     64  H21 7LT d   1      -8.226  -4.924 -26.446  0.00  0.00     0.084 H 
ATOM     65  C26 7LT d   1      -6.877  -7.327 -28.392  0.00  0.00     0.040 A 
ATOM     66  H47 7LT d   1      -6.936  -7.019 -26.269  0.00  0.00     0.086 H 
ATOM     67  C27 7LT d   1      -7.191  -6.850 -29.664  0.00  0.00    -0.036 A 
ATOM     68 CL   7LT d   1      -5.951  -8.782 -28.224  0.00  0.00    -0.084 Cl
ATOM     69  C28 7LT d   1      -7.961  -5.685 -29.726  0.00  0.00    -0.069 A 
ATOM     70  H46 7LT d   1      -8.286  -5.325 -30.695  0.00  0.00     0.085 H 
BRANCH  67  71
ATOM     71  C29 7LT d   1      -6.923  -7.586 -30.959  0.00  0.00    -0.036 C 
ATOM     72  H48 7LT d   1      -7.664  -7.256 -31.702  0.00  0.00     0.040 H 
ATOM     73  H49 7LT d   1      -7.044  -8.664 -30.774  0.00  0.00     0.040 H 
BRANCH  71  74
ATOM     74  C30 7LT d   1      -5.485  -7.347 -31.556  0.00  0.00    -0.037 C 
ATOM     75  H22 7LT d   1      -5.501  -6.437 -32.173  0.00  0.00     0.040 H 
ATOM     76  H23 7LT d   1      -4.772  -7.216 -30.729  0.00  0.00     0.040 H 
BRANCH  74  77
ATOM     77  C31 7LT d   1      -5.039  -8.512 -32.410  0.00  0.00    -0.058 A 
ATOM     78  C32 7LT d   1      -5.578  -8.716 -33.677  0.00  0.00    -0.077 A 
ATOM     79  C33 7LT d   1      -5.213  -9.821 -34.435  0.00  0.00    -0.082 A 
ATOM     80  H24 7LT d   1      -6.291  -8.004 -34.077  0.00  0.00     0.084 H 
ATOM     81  C34 7LT d   1      -4.307 -10.737 -33.936  0.00  0.00    -0.083 A 
ATOM     82  H25 7LT d   1      -5.640  -9.965 -35.421  0.00  0.00     0.083 H 
ATOM     83  C35 7LT d   1      -3.779 -10.557 -32.672  0.00  0.00    -0.082 A 
ATOM     84  H26 7LT d   1      -4.012 -11.592 -34.533  0.00  0.00     0.083 H 
ATOM     85  C36 7LT d   1      -4.142  -9.453 -31.914  0.00  0.00    -0.077 A 
ATOM     86  H27 7LT d   1      -3.079 -11.281 -32.271  0.00  0.00     0.083 H 
ATOM     87  H50 7LT d   1      -3.722  -9.322 -30.923  0.00  0.00     0.084 H 
ENDBRANCH  74  77
ENDBRANCH  71  74
ENDBRANCH  67  71
ENDBRANCH  58  61
ENDBRANCH  14  58
BRANCH  30  88
ATOM     88  C   7LT d   1     -10.194   0.626 -30.629  0.00  0.00    -0.016 C 
ATOM     89  H43 7LT d   1     -10.233   0.180 -31.634  0.00  0.00     0.056 H 
ATOM     90  H44 7LT d   1      -9.167   0.957 -30.415  0.00  0.00     0.056 H 
ATOM     91  H45 7LT d   1     -10.875   1.489 -30.584  0.00  0.00     0.056 H 
ENDBRANCH  30  88
BRANCH  17  92
ATOM     92  C37 7LT d   1      -7.429  -0.747 -24.009  0.00  0.00    -0.014 C 
ATOM     93  H32 7LT d   1      -6.551  -0.277 -24.477  0.00  0.00     0.043 H 
ATOM     94  H33 7LT d   1      -7.649  -0.245 -23.055  0.00  0.00     0.043 H 
BRANCH  92  95
ATOM     95  C38 7LT d   1      -7.104  -2.194 -23.725  0.00  0.00    -0.056 A 
ATOM     96  C39 7LT d   1      -6.515  -2.995 -24.697  0.00  0.00    -0.075 A 
ATOM     97  C40 7LT d   1      -6.260  -4.336 -24.462  0.00  0.00    -0.061 A 
ATOM     98  H29 7LT d   1      -6.251  -2.562 -25.655  0.00  0.00     0.084 H 
ATOM     99  C41 7LT d   1      -6.596  -4.878 -23.239  0.00  0.00     0.034 A 
ATOM    100  H28 7LT d   1      -5.803  -4.951 -25.229  0.00  0.00     0.086 H 
ATOM    101 CL1  7LT d   1      -6.256  -6.559 -22.929  0.00  0.00    -0.084 Cl
ATOM    102  C42 7LT d   1      -7.193  -4.115 -22.258  0.00  0.00    -0.061 A 
ATOM    103  C43 7LT d   1      -7.450  -2.777 -22.509  0.00  0.00    -0.075 A 
ATOM    104  H30 7LT d   1      -7.458  -4.556 -21.304  0.00  0.00     0.086 H 
ATOM    105  H31 7LT d   1      -7.928  -2.174 -21.746  0.00  0.00     0.084 H 
ENDBRANCH  92  95
ENDBRANCH  17  92
TORSDOF 8
