REMARK  8 active torsions:
REMARK  status: ('A' for Active; 'I' for Inactive)
REMARK    1  A    between atoms: C8_5  and  C9_6 
REMARK    2  A    between atoms: C7_24  and  C8_5 
REMARK    3  A    between atoms: C9_6  and  O_25 
REMARK    4  A    between atoms: N_21  and  C14_11 
REMARK    5  A    between atoms: C15_12  and  C23_32 
REMARK    6  A    between atoms: N2_31  and  C21_18 
REMARK    7  A    between atoms: C6_23  and  C7_24 
REMARK    8  A    between atoms: N1_28  and  C22_29 
ROOT
ATOM      1  C1  7M8 d   1      23.014  68.598  17.401  0.00  0.00    -0.081 A 
ATOM      2  C2  7M8 d   1      22.310  69.676  16.888  0.00  0.00    -0.067 A 
ATOM      3  C3  7M8 d   1      21.044  69.958  17.345  0.00  0.00     0.045 A 
ATOM      4  C4  7M8 d   1      20.453  69.151  18.347  0.00  0.00     0.006 A 
ATOM      5  C10 7M8 d   1      19.170  69.452  18.860  0.00  0.00     0.045 A 
ATOM      6  C11 7M8 d   1      18.594  68.630  19.801  0.00  0.00    -0.066 A 
ATOM      7  C12 7M8 d   1      19.264  67.512  20.269  0.00  0.00    -0.075 A 
ATOM      8  C13 7M8 d   1      18.429  70.630  18.363  0.00  0.00     0.266 A 
ATOM      9  C24 7M8 d   1      20.297  71.103  16.780  0.00  0.00     0.266 A 
ATOM     10  O3  7M8 d   1      20.727  71.796  15.871  0.00  0.00    -0.267 OA
ATOM     11  N   7M8 d   1      19.027  71.350  17.319  0.00  0.00    -0.243 N 
ATOM     12  O2  7M8 d   1      17.381  71.018  18.860  0.00  0.00    -0.267 OA
ATOM     13  C6  7M8 d   1      20.527  67.193  19.827  0.00  0.00    -0.047 A 
ATOM     14  C5  7M8 d   1      21.154  68.026  18.846  0.00  0.00    -0.018 A 
ATOM     15  C   7M8 d   1      22.459  67.782  18.349  0.00  0.00    -0.072 A 
ATOM     16  H1  7M8 d   1      24.019  68.398  17.046  0.00  0.00     0.083 H 
ATOM     17  H2  7M8 d   1      22.759  70.299  16.123  0.00  0.00     0.085 H 
ATOM     18  H7  7M8 d   1      17.605  68.860  20.180  0.00  0.00     0.085 H 
ATOM     19  H8  7M8 d   1      18.782  66.874  21.000  0.00  0.00     0.084 H 
ATOM     20  H17 7M8 d   1      23.025  66.937  18.725  0.00  0.00     0.084 H 
ENDROOT
BRANCH  11  21
ATOM     21  C14 7M8 d   1      18.217  72.339  16.665  0.00  0.00     0.054 A 
ATOM     22  C15 7M8 d   1      18.200  73.645  17.161  0.00  0.00    -0.032 A 
ATOM     23  C16 7M8 d   1      17.439  74.597  16.478  0.00  0.00    -0.047 A 
ATOM     24  C17 7M8 d   1      16.711  74.219  15.354  0.00  0.00     0.066 A 
ATOM     25  H9  7M8 d   1      17.416  75.625  16.822  0.00  0.00     0.088 H 
ATOM     26  C18 7M8 d   1      16.731  72.910  14.899  0.00  0.00     0.067 A 
ATOM     27  N2  7M8 d   1      15.863  74.935  14.503  0.00  0.00    -0.302 N 
ATOM     28  C19 7M8 d   1      17.486  71.950  15.543  0.00  0.00    -0.028 A 
ATOM     29  N1  7M8 d   1      15.901  72.844  13.775  0.00  0.00    -0.302 N 
ATOM     30  H10 7M8 d   1      17.510  70.926  15.188  0.00  0.00     0.090 H 
ATOM     31  C20 7M8 d   1      15.353  74.089  13.524  0.00  0.00     0.329 A 
ATOM     32  O1  7M8 d   1      14.563  74.383  12.645  0.00  0.00    -0.246 OA
BRANCH  22  33
ATOM     33  C23 7M8 d   1      18.930  74.027  18.424  0.00  0.00    -0.049 C 
ATOM     34  H21 7M8 d   1      19.470  73.152  18.814  0.00  0.00     0.033 H 
ATOM     35  H22 7M8 d   1      18.206  74.376  19.175  0.00  0.00     0.033 H 
ATOM     36  H23 7M8 d   1      19.647  74.832  18.204  0.00  0.00     0.033 H 
ENDBRANCH  22  33
BRANCH  29  37
ATOM     37  C22 7M8 d   1      15.664  71.655  12.963  0.00  0.00    -0.009 C 
ATOM     38  H18 7M8 d   1      16.220  70.805  13.386  0.00  0.00     0.057 H 
ATOM     39  H19 7M8 d   1      16.005  71.840  11.934  0.00  0.00     0.057 H 
ATOM     40  H20 7M8 d   1      14.589  71.423  12.957  0.00  0.00     0.057 H 
ENDBRANCH  29  37
BRANCH  27  41
ATOM     41  C21 7M8 d   1      15.542  76.356  14.601  0.00  0.00    -0.009 C 
ATOM     42  H11 7M8 d   1      16.073  76.794  15.459  0.00  0.00     0.057 H 
ATOM     43  H12 7M8 d   1      14.458  76.478  14.740  0.00  0.00     0.057 H 
ATOM     44  H13 7M8 d   1      15.853  76.867  13.678  0.00  0.00     0.057 H 
ENDBRANCH  27  41
ENDBRANCH  11  21
BRANCH  13  45
ATOM     45  C7  7M8 d   1      21.229  65.973  20.385  0.00  0.00    -0.038 C 
ATOM     46  H14 7M8 d   1      21.587  65.366  19.541  0.00  0.00     0.040 H 
ATOM     47  H15 7M8 d   1      22.088  66.313  20.982  0.00  0.00     0.040 H 
BRANCH  45  48
ATOM     48  C8  7M8 d   1      20.341  65.082  21.279  0.00  0.00    -0.042 C 
ATOM     49  H3  7M8 d   1      20.205  65.574  22.254  0.00  0.00     0.036 H 
ATOM     50  H4  7M8 d   1      19.362  64.951  20.795  0.00  0.00     0.036 H 
BRANCH  48  51
ATOM     51  C9  7M8 d   1      20.967  63.731  21.494  0.00  0.00     0.017 C 
ATOM     52  H5  7M8 d   1      20.999  63.171  20.548  0.00  0.00     0.073 H 
ATOM     53  H6  7M8 d   1      20.395  63.160  22.240  0.00  0.00     0.073 H 
BRANCH  51  54
ATOM     54  O   7M8 d   1      22.267  63.972  21.960  0.00  0.00    -0.401 OA
ATOM     55  H16 7M8 d   1      22.706  63.144  22.112  0.00  0.00     0.209 HD
ENDBRANCH  51  54
ENDBRANCH  48  51
ENDBRANCH  45  48
ENDBRANCH  13  45
TORSDOF 8
