REMARK  5 active torsions:
REMARK  status: ('A' for Active; 'I' for Inactive)
REMARK    1  A    between atoms: C01_1  and  C02_2 
REMARK    2  A    between atoms: C02_2  and  O03_3 
REMARK    3  A    between atoms: O03_3  and  C04_4 
REMARK    4  A    between atoms: C04_4  and  C06_6 
REMARK    5  A    between atoms: N08_8  and  C09_9 
ROOT
ATOM      1  C06 7MX d   1     -27.196  -8.864   0.240  0.00  0.00     0.053 A 
ATOM      2  C07 7MX d   1     -26.242 -10.022   0.386  0.00  0.00     0.028 A 
ATOM      3  N08 7MX d   1     -24.843  -9.775   0.708  0.00  0.00    -0.352 N 
ATOM      4  C10 7MX d   1     -24.354  -8.417   0.886  0.00  0.00     0.224 A 
ATOM      5  O11 7MX d   1     -23.183  -8.238   1.149  0.00  0.00    -0.273 OA
ATOM      6  C12 7MX d   1     -25.291  -7.240   0.735  0.00  0.00     0.044 A 
ATOM      7  C13 7MX d   1     -26.703  -7.484   0.412  0.00  0.00     0.034 A 
ATOM      8 CL   7MX d   1     -27.772  -6.116   0.249  0.00  0.00    -0.088 Cl
ATOM      9  H6  7MX d   1     -26.257 -10.568  -0.569  0.00  0.00     0.072 H 
ATOM     10  H7  7MX d   1     -26.643 -10.665   1.183  0.00  0.00     0.072 H 
ATOM     11  H11 7MX d   1     -24.883  -6.606  -0.066  0.00  0.00     0.055 H 
ATOM     12  H12 7MX d   1     -25.270  -6.688   1.687  0.00  0.00     0.055 H 
ENDROOT
BRANCH   1  13
ATOM     13  C04 7MX d   1     -28.635  -9.184  -0.115  0.00  0.00     0.292 C 
ATOM     14  O05 7MX d   1     -29.388  -8.346  -0.575  0.00  0.00    -0.259 OA
BRANCH  13  15
ATOM     15  O03 7MX d   1     -29.079 -10.503   0.028  0.00  0.00    -0.318 OA
BRANCH  15  16
ATOM     16  C02 7MX d   1     -30.326 -10.649   0.663  0.00  0.00     0.026 C 
ATOM     17  H4  7MX d   1     -30.181 -10.751   1.749  0.00  0.00     0.074 H 
ATOM     18  H5  7MX d   1     -30.953  -9.769   0.458  0.00  0.00     0.074 H 
BRANCH  16  19
ATOM     19  C01 7MX d   1     -30.993 -11.892   0.116  0.00  0.00    -0.056 C 
ATOM     20  H1  7MX d   1     -31.972 -12.026   0.600  0.00  0.00     0.030 H 
ATOM     21  H2  7MX d   1     -30.360 -12.768   0.321  0.00  0.00     0.030 H 
ATOM     22  H3  7MX d   1     -31.132 -11.786  -0.970  0.00  0.00     0.030 H 
ENDBRANCH  16  19
ENDBRANCH  15  16
ENDBRANCH  13  15
ENDBRANCH   1  13
BRANCH   3  23
ATOM     23  C09 7MX d   1     -23.942 -10.872   0.846  0.00  0.00    -0.016 C 
ATOM     24  H8  7MX d   1     -22.938 -10.494   1.088  0.00  0.00     0.056 H 
ATOM     25  H9  7MX d   1     -23.904 -11.436  -0.098  0.00  0.00     0.056 H 
ATOM     26  H10 7MX d   1     -24.290 -11.533   1.654  0.00  0.00     0.056 H 
ENDBRANCH   3  23
TORSDOF 5
