REMARK  5 active torsions:
REMARK  status: ('A' for Active; 'I' for Inactive)
REMARK    1  A    between atoms: C14_7  and  C13_8 
REMARK    2  A    between atoms: C13_8  and  S12_9 
REMARK    3  A    between atoms: S12_9  and  C10_10 
REMARK    4  A    between atoms: C7_14  and  S1_15 
REMARK    5  A    between atoms: S1_15  and  N4_18 
ROOT
ATOM      1  S12 7O8 d   1      -4.830   5.681  13.720  0.00  0.00    -0.119 SA
ENDROOT
BRANCH   1   2
ATOM      2  C13 7O8 d   1      -2.947   5.788  13.621  0.00  0.00     0.006 C 
ATOM      3  H5  7O8 d   1      -2.527   5.277  14.500  0.00  0.00     0.056 H 
ATOM      4  H6  7O8 d   1      -2.621   5.272  12.706  0.00  0.00     0.056 H 
BRANCH   2   5
ATOM      5  C14 7O8 d   1      -2.412   7.168  13.589  0.00  0.00    -0.049 C 
ATOM      6  C15 7O8 d   1      -2.790   7.911  12.333  0.00  0.00    -0.074 C 
ATOM      7  C16 7O8 d   1      -2.425   9.297  12.315  0.00  0.00    -0.061 C 
ATOM      8  H2  7O8 d   1      -3.300   7.433  11.505  0.00  0.00     0.084 H 
ATOM      9  C17 7O8 d   1      -1.843   9.798  13.521  0.00  0.00     0.034 C 
ATOM     10  H1  7O8 d   1      -2.580   9.924  11.444  0.00  0.00     0.086 H 
ATOM     11 CL   7O8 d   1      -1.299  11.444  13.946  0.00  0.00    -0.084 Cl
ATOM     12  C18 7O8 d   1      -1.578   9.090  14.692  0.00  0.00    -0.061 C 
ATOM     13  C19 7O8 d   1      -2.010   7.814  14.718  0.00  0.00    -0.074 C 
ATOM     14  H3  7O8 d   1      -1.057   9.538  15.530  0.00  0.00     0.086 H 
ATOM     15  H4  7O8 d   1      -2.038   7.287  15.665  0.00  0.00     0.084 H 
ENDBRANCH   2   5
ENDBRANCH   1   2
BRANCH   1  16
ATOM     16  C10 7O8 d   1      -4.813   4.242  14.677  0.00  0.00     0.035 C 
ATOM     17  C9  7O8 d   1      -3.711   3.414  14.760  0.00  0.00    -0.078 C 
ATOM     18  C8  7O8 d   1      -3.883   2.321  15.581  0.00  0.00    -0.015 C 
ATOM     19  H7  7O8 d   1      -2.784   3.608  14.222  0.00  0.00     0.079 H 
ATOM     20  C7  7O8 d   1      -5.350   2.176  15.812  0.00  0.00     0.171 C 
ATOM     21  H8  7O8 d   1      -3.364   2.482  16.538  0.00  0.00     0.043 H 
ATOM     22  H9  7O8 d   1      -3.486   1.417  15.095  0.00  0.00     0.043 H 
ATOM     23  S11 7O8 d   1      -6.153   3.535  15.439  0.00  0.00    -0.092 SA
BRANCH  20  24
ATOM     24  S1  7O8 d   1      -6.066   0.929  16.858  0.00  0.00     0.246 S 
ATOM     25  O2  7O8 d   1      -5.465   1.086  18.117  0.00  0.00    -0.204 OA
ATOM     26  O3  7O8 d   1      -7.447   1.081  16.712  0.00  0.00    -0.204 OA
BRANCH  24  27
ATOM     27  N4  7O8 d   1      -5.657  -0.498  16.147  0.00  0.00    -0.327 N 
ATOM     28  H10 7O8 d   1      -5.950  -1.362  16.556  0.00  0.00     0.168 HD
ATOM     29  H11 7O8 d   1      -5.116  -0.501  15.306  0.00  0.00     0.168 HD
ENDBRANCH  24  27
ENDBRANCH  20  24
ENDBRANCH   1  16
TORSDOF 5
