REMARK  13 active torsions:
REMARK  status: ('A' for Active; 'I' for Inactive)
REMARK    1  A    between atoms: C_1  and  N_12 
REMARK    2  A    between atoms: N1_18  and  C3_4 
REMARK    3  A    between atoms: C4_5  and  O_13 
REMARK    4  A    between atoms: C5_6  and  O1_25 
REMARK    5  A    between atoms: C6_7  and  C7_8 
REMARK    6  A    between atoms: C7_8  and  C8_9 
REMARK    7  A    between atoms: C8_9  and  C9_10 
REMARK    8  A    between atoms: C9_10  and  O2_14 
REMARK    9  A    between atoms: O2_14  and  C10_11 
REMARK   10  A    between atoms: C10_11  and  C11_17 
REMARK   11  A    between atoms: C14_22  and  N2_20 
REMARK   12  A    between atoms: N2_20  and  C13_24 
REMARK   13  A    between atoms: C14_22  and  C15_23 
ROOT
ATOM      1  C3  TI8 d   1      -8.810  32.560 -13.549  0.00  0.00     0.156 C 
ATOM      2  C4  TI8 d   1      -7.873  32.381 -12.365  0.00  0.00     0.105 C 
ATOM      3  C5  TI8 d   1      -6.687  31.757 -13.089  0.00  0.00     0.089 C 
ATOM      4  C6  TI8 d   1      -7.382  30.802 -14.068  0.00  0.00     0.068 C 
ATOM      5  O4  TI8 d   1      -8.695  31.364 -14.295  0.00  0.00    -0.355 OA
ATOM      6  H1  TI8 d   1      -8.459  33.413 -14.148  0.00  0.00     0.123 H 
ATOM      7  H2  TI8 d   1      -8.290  31.704 -11.604  0.00  0.00     0.093 H 
ATOM      8  H3  TI8 d   1      -6.020  31.216 -12.401  0.00  0.00     0.091 H 
ATOM      9  H4  TI8 d   1      -6.822  30.817 -15.015  0.00  0.00     0.087 H 
ENDROOT
BRANCH   1  10
ATOM     10  N1  TI8 d   1     -10.205  32.786 -13.231  0.00  0.00    -0.132 N 
ATOM     11  C2  TI8 d   1     -10.875  33.989 -13.319  0.00  0.00     0.182 A 
ATOM     12  C1  TI8 d   1     -12.126  33.761 -12.767  0.00  0.00     0.168 A 
ATOM     13  N4  TI8 d   1     -10.422  35.149 -13.820  0.00  0.00    -0.221 NA
ATOM     14  C   TI8 d   1     -13.013  34.859 -12.724  0.00  0.00     0.156 A 
ATOM     15  N3  TI8 d   1     -12.256  32.444 -12.355  0.00  0.00    -0.057 NA
ATOM     16  N5  TI8 d   1     -12.585  36.044 -13.230  0.00  0.00    -0.222 NA
ATOM     17  C21 TI8 d   1     -11.345  36.116 -13.735  0.00  0.00     0.091 A 
ATOM     18  H16 TI8 d   1     -11.051  37.084 -14.126  0.00  0.00     0.146 H 
ATOM     19  C13 TI8 d   1     -11.096  31.903 -12.655  0.00  0.00     0.707 A 
BRANCH  14  20
ATOM     20  N   TI8 d   1     -14.246  34.798 -12.225  0.00  0.00    -0.382 N 
ATOM     21  H11 TI8 d   1     -14.843  35.637 -12.224  0.00  0.00     0.157 HD
ATOM     22  H12 TI8 d   1     -14.603  33.912 -11.840  0.00  0.00     0.157 HD
ENDBRANCH  14  20
BRANCH  19  23
ATOM     23  N2  TI8 d   1     -10.852  30.612 -12.429  0.00  0.00    -0.220 N 
ATOM     24  H19 TI8 d   1      -9.943  30.214 -12.705  0.00  0.00     0.178 HD
BRANCH  23  25
ATOM     25  C14 TI8 d   1     -11.846  29.753 -11.800  0.00  0.00     0.033 C 
ATOM     26  H20 TI8 d   1     -11.698  28.723 -12.155  0.00  0.00     0.072 H 
ATOM     27  H21 TI8 d   1     -12.848  30.101 -12.091  0.00  0.00     0.072 H 
BRANCH  25  28
ATOM     28  C15 TI8 d   1     -11.748  29.765 -10.295  0.00  0.00    -0.040 A 
ATOM     29  C16 TI8 d   1     -12.871  29.571  -9.504  0.00  0.00    -0.074 A 
ATOM     30  C17 TI8 d   1     -12.785  29.585  -8.125  0.00  0.00    -0.061 A 
ATOM     31  H18 TI8 d   1     -13.833  29.405  -9.976  0.00  0.00     0.084 H 
ATOM     32  C18 TI8 d   1     -11.560  29.790  -7.533  0.00  0.00     0.034 A 
ATOM     33  H24 TI8 d   1     -13.671  29.436  -7.518  0.00  0.00     0.086 H 
ATOM     34  C19 TI8 d   1     -10.428  29.981  -8.289  0.00  0.00    -0.061 A 
ATOM     35 CL   TI8 d   1     -11.440  29.802  -5.792  0.00  0.00    -0.084 Cl
ATOM     36  C20 TI8 d   1     -10.530  29.968  -9.667  0.00  0.00    -0.074 A 
ATOM     37  H25 TI8 d   1      -9.468  30.140  -7.811  0.00  0.00     0.086 H 
ATOM     38  H23 TI8 d   1      -9.640  30.119 -10.268  0.00  0.00     0.084 H 
ENDBRANCH  25  28
ENDBRANCH  23  25
ENDBRANCH  19  23
ENDBRANCH   1  10
BRANCH   2  39
ATOM     39  O   TI8 d   1      -7.558  33.629 -11.766  0.00  0.00    -0.388 OA
ATOM     40  H13 TI8 d   1      -6.861  33.508 -11.132  0.00  0.00     0.210 HD
ENDBRANCH   2  39
BRANCH   3  41
ATOM     41  O1  TI8 d   1      -5.967  32.774 -13.769  0.00  0.00    -0.390 OA
ATOM     42  H22 TI8 d   1      -5.551  33.345 -13.134  0.00  0.00     0.210 HD
ENDBRANCH   3  41
BRANCH   4  43
ATOM     43  C7  TI8 d   1      -7.453  29.355 -13.623  0.00  0.00    -0.036 C 
ATOM     44  H5  TI8 d   1      -7.679  29.337 -12.547  0.00  0.00     0.036 H 
ATOM     45  H6  TI8 d   1      -6.471  28.892 -13.800  0.00  0.00     0.036 H 
BRANCH  43  46
ATOM     46  C8  TI8 d   1      -8.505  28.528 -14.344  0.00  0.00    -0.042 C 
ATOM     47  H7  TI8 d   1      -8.291  28.549 -15.423  0.00  0.00     0.036 H 
ATOM     48  H8  TI8 d   1      -9.493  28.975 -14.158  0.00  0.00     0.036 H 
BRANCH  46  49
ATOM     49  C9  TI8 d   1      -8.530  27.091 -13.884  0.00  0.00     0.029 C 
ATOM     50  H9  TI8 d   1      -7.541  26.636 -14.043  0.00  0.00     0.075 H 
ATOM     51  H10 TI8 d   1      -9.286  26.534 -14.457  0.00  0.00     0.075 H 
BRANCH  49  52
ATOM     52  O2  TI8 d   1      -8.863  27.051 -12.470  0.00  0.00    -0.318 OA
BRANCH  52  53
ATOM     53  C10 TI8 d   1      -9.478  25.949 -11.998  0.00  0.00     0.282 C 
ATOM     54  O3  TI8 d   1      -9.697  24.982 -12.679  0.00  0.00    -0.260 OA
BRANCH  53  55
ATOM     55  C11 TI8 d   1      -9.858  26.076 -10.576  0.00  0.00    -0.019 C 
ATOM     56  C12 TI8 d   1      -9.626  27.123  -9.884  0.00  0.00    -0.116 C 
ATOM     57  H14 TI8 d   1      -9.928  27.163  -8.838  0.00  0.00     0.067 H 
ATOM     58  H15 TI8 d   1      -9.126  27.977 -10.339  0.00  0.00     0.067 H 
ATOM     59  H17 TI8 d   1     -10.360  25.237 -10.096  0.00  0.00     0.091 H 
ENDBRANCH  53  55
ENDBRANCH  52  53
ENDBRANCH  49  52
ENDBRANCH  46  49
ENDBRANCH  43  46
ENDBRANCH   4  43
TORSDOF 13
