REMARK  12 active torsions:
REMARK  status: ('A' for Active; 'I' for Inactive)
REMARK    1  A    between atoms: C_1  and  N_12 
REMARK    2  A    between atoms: N1_16  and  C3_4 
REMARK    3  A    between atoms: C4_5  and  O_13 
REMARK    4  A    between atoms: C5_6  and  O1_22 
REMARK    5  A    between atoms: C6_7  and  C7_8 
REMARK    6  A    between atoms: C7_8  and  C8_9 
REMARK    7  A    between atoms: C8_9  and  C9_10 
REMARK    8  A    between atoms: C9_10  and  O2_14 
REMARK    9  A    between atoms: O2_14  and  C10_11 
REMARK   10  A    between atoms: C14_19  and  N2_18 
REMARK   11  A    between atoms: N2_18  and  C13_21 
REMARK   12  A    between atoms: C14_19  and  C15_20 
ROOT
ATOM      1  C   TI8 d   1     -20.508  -9.263  12.558  0.00  0.00     0.156 A 
ATOM      2  C1  TI8 d   1     -19.513  -9.125  11.565  0.00  0.00     0.168 A 
ATOM      3  C2  TI8 d   1     -18.328  -8.520  11.947  0.00  0.00     0.182 A 
ATOM      4  C21 TI8 d   1     -19.044  -8.219  14.024  0.00  0.00     0.091 A 
ATOM      5  N1  TI8 d   1     -17.527  -8.525  10.825  0.00  0.00    -0.132 N 
ATOM      6  C13 TI8 d   1     -18.286  -9.109   9.829  0.00  0.00     0.707 A 
ATOM      7  N3  TI8 d   1     -19.478  -9.493  10.230  0.00  0.00    -0.057 NA
ATOM      8  N4  TI8 d   1     -18.031  -8.041  13.166  0.00  0.00    -0.221 NA
ATOM      9  N5  TI8 d   1     -20.237  -8.788  13.800  0.00  0.00    -0.222 NA
ATOM     10  H17 TI8 d   1     -18.877  -7.855  15.031  0.00  0.00     0.146 H 
ENDROOT
BRANCH   5  11
ATOM     11  C3  TI8 d   1     -16.135  -8.126  10.787  0.00  0.00     0.156 C 
ATOM     12  C4  TI8 d   1     -15.150  -9.265  10.602  0.00  0.00     0.105 C 
ATOM     13  C5  TI8 d   1     -13.935  -8.485  10.111  0.00  0.00     0.089 C 
ATOM     14  H2  TI8 d   1     -15.492  -9.984   9.843  0.00  0.00     0.093 H 
ATOM     15  C6  TI8 d   1     -14.571  -7.409   9.226  0.00  0.00     0.068 C 
ATOM     16  H3  TI8 d   1     -13.256  -9.127   9.531  0.00  0.00     0.091 H 
ATOM     17  O4  TI8 d   1     -15.937  -7.273   9.681  0.00  0.00    -0.355 OA
ATOM     18  H4  TI8 d   1     -14.037  -6.465   9.409  0.00  0.00     0.087 H 
ATOM     19  H1  TI8 d   1     -15.900  -7.597  11.723  0.00  0.00     0.123 H 
BRANCH  12  20
ATOM     20  O   TI8 d   1     -14.946  -9.949  11.829  0.00  0.00    -0.388 OA
ATOM     21  H16 TI8 d   1     -14.236 -10.572  11.729  0.00  0.00     0.210 HD
ENDBRANCH  12  20
BRANCH  13  22
ATOM     22  O1  TI8 d   1     -13.228  -7.905  11.197  0.00  0.00    -0.390 OA
ATOM     23  H22 TI8 d   1     -12.845  -8.594  11.728  0.00  0.00     0.210 HD
ENDBRANCH  13  22
BRANCH  15  24
ATOM     24  C7  TI8 d   1     -14.534  -7.655   7.732  0.00  0.00    -0.036 C 
ATOM     25  H5  TI8 d   1     -14.766  -6.710   7.219  0.00  0.00     0.036 H 
ATOM     26  H6  TI8 d   1     -15.300  -8.405   7.484  0.00  0.00     0.036 H 
BRANCH  24  27
ATOM     27  C8  TI8 d   1     -13.186  -8.159   7.226  0.00  0.00    -0.043 C 
ATOM     28  H7  TI8 d   1     -12.843  -8.971   7.884  0.00  0.00     0.036 H 
ATOM     29  H8  TI8 d   1     -12.464  -7.330   7.260  0.00  0.00     0.036 H 
BRANCH  27  30
ATOM     30  C9  TI8 d   1     -13.257  -8.679   5.815  0.00  0.00     0.019 C 
ATOM     31  H9  TI8 d   1     -13.535  -7.861   5.134  0.00  0.00     0.074 H 
ATOM     32  H10 TI8 d   1     -14.010  -9.479   5.754  0.00  0.00     0.074 H 
BRANCH  30  33
ATOM     33  O2  TI8 d   1     -11.958  -9.204   5.440  0.00  0.00    -0.396 OA
BRANCH  33  34
ATOM     34  C10 TI8 d   1     -11.907  -9.953   4.331  0.00  0.00     0.004 C 
ATOM     35  H11 TI8 d   1     -10.873 -10.286   4.161  0.00  0.00     0.066 H 
ATOM     36  H12 TI8 d   1     -12.247  -9.358   3.471  0.00  0.00     0.066 H 
ATOM     37  H13 TI8 d   1     -12.559 -10.831   4.451  0.00  0.00     0.066 H 
ENDBRANCH  33  34
ENDBRANCH  30  33
ENDBRANCH  27  30
ENDBRANCH  24  27
ENDBRANCH  15  24
ENDBRANCH   5  11
BRANCH   6  38
ATOM     38  N2  TI8 d   1     -17.933  -9.252   8.548  0.00  0.00    -0.220 N 
ATOM     39  H19 TI8 d   1     -17.029  -8.877   8.228  0.00  0.00     0.178 HD
BRANCH  38  40
ATOM     40  C14 TI8 d   1     -18.803  -9.927   7.598  0.00  0.00     0.033 C 
ATOM     41  H20 TI8 d   1     -18.615  -9.531   6.589  0.00  0.00     0.072 H 
ATOM     42  H21 TI8 d   1     -19.852  -9.744   7.874  0.00  0.00     0.072 H 
BRANCH  40  43
ATOM     43  C15 TI8 d   1     -18.538 -11.411   7.607  0.00  0.00    -0.040 A 
ATOM     44  C16 TI8 d   1     -19.569 -12.334   7.523  0.00  0.00    -0.074 A 
ATOM     45  C17 TI8 d   1     -19.314 -13.693   7.535  0.00  0.00    -0.061 A 
ATOM     46  H18 TI8 d   1     -20.592 -11.985   7.447  0.00  0.00     0.084 H 
ATOM     47  C18 TI8 d   1     -18.012 -14.127   7.632  0.00  0.00     0.034 A 
ATOM     48  H24 TI8 d   1     -20.128 -14.406   7.469  0.00  0.00     0.086 H 
ATOM     49  C19 TI8 d   1     -16.971 -13.236   7.727  0.00  0.00    -0.061 A 
ATOM     50 CL   TI8 d   1     -17.671 -15.833   7.593  0.00  0.00    -0.084 Cl
ATOM     51  C20 TI8 d   1     -17.241 -11.883   7.711  0.00  0.00    -0.074 A 
ATOM     52  H25 TI8 d   1     -15.950 -13.591   7.813  0.00  0.00     0.086 H 
ATOM     53  H23 TI8 d   1     -16.422 -11.176   7.781  0.00  0.00     0.084 H 
ENDBRANCH  40  43
ENDBRANCH  38  40
ENDBRANCH   6  38
BRANCH   1  54
ATOM     54  N   TI8 d   1     -21.689  -9.843  12.348  0.00  0.00    -0.382 N 
ATOM     55  H14 TI8 d   1     -22.372  -9.912  13.115  0.00  0.00     0.157 HD
ATOM     56  H15 TI8 d   1     -21.919 -10.222  11.418  0.00  0.00     0.157 HD
ENDBRANCH   1  54
TORSDOF 12
