REMARK  4 active torsions:
REMARK  status: ('A' for Active; 'I' for Inactive)
REMARK    1  A    between atoms: N05_7  and  C01_6 
REMARK    2  A    between atoms: C09_9  and  N30_14 
REMARK    3  A    between atoms: C14_11  and  C19_13 
REMARK    4  A    between atoms: N36_18  and  C37_19 
ROOT
ATOM      1  N05 9ST d   1     -15.765  -8.006  15.413  0.00  0.00    -0.072 N 
ATOM      2  C06 9ST d   1     -16.432  -7.772  14.130  0.00  0.00     0.103 C 
ATOM      3  C09 9ST d   1     -16.238  -6.329  13.700  0.00  0.00     0.057 C 
ATOM      4  C11 9ST d   1     -14.744  -6.059  13.519  0.00  0.00    -0.034 C 
ATOM      5  C14 9ST d   1     -13.999  -6.329  14.832  0.00  0.00    -0.003 C 
ATOM      6  C16 9ST d   1     -14.312  -7.741  15.333  0.00  0.00     0.090 C 
ATOM      7  H9  9ST d   1     -16.159  -7.369  16.087  0.00  0.00     0.279 HD
ATOM      8  H10 9ST d   1     -17.507  -7.979  14.235  0.00  0.00     0.079 H 
ATOM      9  H11 9ST d   1     -16.002  -8.440  13.369  0.00  0.00     0.079 H 
ATOM     10  H12 9ST d   1     -16.619  -5.665  14.489  0.00  0.00     0.078 H 
ATOM     11  H13 9ST d   1     -14.597  -5.009  13.226  0.00  0.00     0.037 H 
ATOM     12  H14 9ST d   1     -14.347  -6.718  12.733  0.00  0.00     0.037 H 
ATOM     13  H15 9ST d   1     -14.407  -5.627  15.574  0.00  0.00     0.050 H 
ATOM     14  H16 9ST d   1     -13.858  -8.468  14.643  0.00  0.00     0.077 H 
ATOM     15  H17 9ST d   1     -13.876  -7.864  16.335  0.00  0.00     0.077 H 
ENDROOT
BRANCH   3  16
ATOM     16  N30 9ST d   1     -17.001  -6.076  12.474  0.00  0.00    -0.284 NA
ATOM     17  C32 9ST d   1     -18.228  -5.533  12.415  0.00  0.00     0.072 A 
ATOM     18  C33 9ST d   1     -18.821  -4.951  13.582  0.00  0.00     0.047 A 
ATOM     19  C43 9ST d   1     -18.972  -5.492  11.293  0.00  0.00     0.122 A 
ATOM     20  N35 9ST d   1     -19.989  -4.403  13.620  0.00  0.00    -0.180 NA
ATOM     21  H18 9ST d   1     -18.244  -4.973  14.505  0.00  0.00     0.120 H 
ATOM     22  N36 9ST d   1     -20.707  -4.392  12.460  0.00  0.00    -0.242 N 
ATOM     23  C41 9ST d   1     -20.287  -4.904  11.254  0.00  0.00     0.260 A 
ATOM     24  O42 9ST d   1     -21.001  -4.850  10.258  0.00  0.00    -0.270 OA
ATOM     25 BR   9ST d   1     -18.372  -6.201   9.656  0.00  0.00    -0.074 Br
ATOM     26  H22 9ST d   1     -18.519  -4.520  11.050  0.00  0.00     0.082 H 
BRANCH  22  27
ATOM     27  C37 9ST d   1     -22.022  -3.766  12.559  0.00  0.00     0.005 C 
ATOM     28  H19 9ST d   1     -22.521  -3.805  11.580  0.00  0.00     0.059 H 
ATOM     29  H20 9ST d   1     -21.906  -2.717  12.870  0.00  0.00     0.059 H 
ATOM     30  H21 9ST d   1     -22.629  -4.304  13.302  0.00  0.00     0.059 H 
ENDBRANCH  22  27
ENDBRANCH   3  16
BRANCH   1  31
ATOM     31  C01 9ST d   1     -16.011  -9.372  15.878  0.00  0.00     0.066 C 
ATOM     32  H6  9ST d   1     -17.095  -9.552  15.931  0.00  0.00     0.068 H 
ATOM     33  H7  9ST d   1     -15.568  -9.505  16.876  0.00  0.00     0.068 H 
ATOM     34  H8  9ST d   1     -15.555 -10.086  15.176  0.00  0.00     0.068 H 
ENDBRANCH   1  31
BRANCH   5  35
ATOM     35  C19 9ST d   1     -12.508  -6.057  14.770  0.00  0.00    -0.052 A 
ATOM     36  C20 9ST d   1     -11.963  -4.950  15.410  0.00  0.00    -0.076 A 
ATOM     37  C22 9ST d   1     -10.600  -4.703  15.360  0.00  0.00    -0.082 A 
ATOM     38  H1  9ST d   1     -12.611  -4.272  15.954  0.00  0.00     0.084 H 
ATOM     39  C24 9ST d   1      -9.763  -5.563  14.682  0.00  0.00    -0.083 A 
ATOM     40  H2  9ST d   1     -10.191  -3.830  15.856  0.00  0.00     0.083 H 
ATOM     41  C26 9ST d   1     -10.288  -6.668  14.050  0.00  0.00    -0.082 A 
ATOM     42  H3  9ST d   1      -8.697  -5.370  14.646  0.00  0.00     0.083 H 
ATOM     43  C28 9ST d   1     -11.652  -6.918  14.096  0.00  0.00    -0.076 A 
ATOM     44  H4  9ST d   1      -9.633  -7.345  13.514  0.00  0.00     0.083 H 
ATOM     45  H5  9ST d   1     -12.054  -7.795  13.601  0.00  0.00     0.084 H 
ENDBRANCH   5  35
TORSDOF 4
