REMARK  13 active torsions:
REMARK  status: ('A' for Active; 'I' for Inactive)
REMARK    1  A    between atoms: CAN_11  and  CAA_1 
REMARK    2  A    between atoms: OAP_25  and  CAB_2 
REMARK    3  A    between atoms: OAQ_26  and  CAC_3 
REMARK    4  A    between atoms: CAS_12  and  CAD_4 
REMARK    5  A    between atoms: OAR_27  and  CAN_11 
REMARK    6  A    between atoms: CAW_16  and  CAS_12 
REMARK    7  A    between atoms: CAX_17  and  CAT_13 
REMARK    8  A    between atoms: CAT_13  and  OAP_25 
REMARK    9  A    between atoms: CAY_18  and  CAU_14 
REMARK   10  A    between atoms: CAU_14  and  OAQ_26 
REMARK   11  A    between atoms: NAO_21  and  CAV_15 
REMARK   12  A    between atoms: CAZ_19  and  NAO_21 
REMARK   13  A    between atoms: CBA_20  and  OAR_27 
ROOT
ATOM      1  NAO 8Q6 d   1      11.671 -13.865   6.713  0.00  0.00    -0.354 N 
ATOM      2  H21 8Q6 d   1      12.688 -13.753   6.832  0.00  0.00     0.166 HD
ENDROOT
BRANCH   1   3
ATOM      3  CAV 8Q6 d   1      10.913 -13.786   7.829  0.00  0.00     0.034 A 
ATOM      4  CAJ 8Q6 d   1      11.500 -13.203   8.967  0.00  0.00    -0.041 A 
ATOM      5  CAX 8Q6 d   1      10.788 -13.068  10.163  0.00  0.00     0.042 A 
ATOM      6  H15 8Q6 d   1      12.524 -12.852   8.916  0.00  0.00     0.088 H 
ATOM      7  CAL 8Q6 d   1       9.475 -13.535  10.209  0.00  0.00    -0.051 A 
ATOM      8  CAY 8Q6 d   1       8.885 -14.141   9.096  0.00  0.00     0.042 A 
ATOM      9  H17 8Q6 d   1       8.902 -13.426  11.123  0.00  0.00     0.086 H 
ATOM     10  CAK 8Q6 d   1       9.606 -14.262   7.906  0.00  0.00    -0.041 A 
ATOM     11  H16 8Q6 d   1       9.148 -14.727   7.041  0.00  0.00     0.088 H 
BRANCH   5  12
ATOM     12  CAT 8Q6 d   1      11.375 -12.472  11.297  0.00  0.00     0.293 C 
ATOM     13  OAF 8Q6 d   1      12.593 -12.294  11.389  0.00  0.00    -0.259 OA
BRANCH  12  14
ATOM     14  OAP 8Q6 d   1      10.483 -12.128  12.266  0.00  0.00    -0.323 OA
BRANCH  14  15
ATOM     15  CAB 8Q6 d   1      11.135 -11.525  13.396  0.00  0.00     0.013 C 
ATOM     16  H4  8Q6 d   1      10.384 -11.262  14.155  0.00  0.00     0.067 H 
ATOM     17  H5  8Q6 d   1      11.664 -10.616  13.072  0.00  0.00     0.067 H 
ATOM     18  H6  8Q6 d   1      11.857 -12.236  13.825  0.00  0.00     0.067 H 
ENDBRANCH  14  15
ENDBRANCH  12  14
ENDBRANCH   5  12
BRANCH   8  19
ATOM     19  CAU 8Q6 d   1       7.566 -14.592   9.171  0.00  0.00     0.293 C 
ATOM     20  OAG 8Q6 d   1       7.046 -15.293   8.289  0.00  0.00    -0.259 OA
BRANCH  19  21
ATOM     21  OAQ 8Q6 d   1       6.907 -14.156  10.282  0.00  0.00    -0.323 OA
BRANCH  21  22
ATOM     22  CAC 8Q6 d   1       5.574 -14.646  10.345  0.00  0.00     0.013 C 
ATOM     23  H7  8Q6 d   1       5.087 -14.268  11.256  0.00  0.00     0.067 H 
ATOM     24  H8  8Q6 d   1       5.588 -15.746  10.367  0.00  0.00     0.067 H 
ATOM     25  H9  8Q6 d   1       5.015 -14.304   9.461  0.00  0.00     0.067 H 
ENDBRANCH  21  22
ENDBRANCH  19  21
ENDBRANCH   8  19
ENDBRANCH   1   3
BRANCH   1  26
ATOM     26  CAZ 8Q6 d   1      11.218 -14.079   5.439  0.00  0.00     0.067 A 
ATOM     27  CAM 8Q6 d   1      11.233 -13.048   4.492  0.00  0.00    -0.041 A 
ATOM     28  CAW 8Q6 d   1      10.818 -13.271   3.171  0.00  0.00     0.012 A 
ATOM     29  H18 8Q6 d   1      11.571 -12.061   4.785  0.00  0.00     0.088 H 
ATOM     30  CAH 8Q6 d   1      10.404 -14.555   2.818  0.00  0.00    -0.067 A 
ATOM     31  CAI 8Q6 d   1      10.400 -15.595   3.741  0.00  0.00    -0.048 A 
ATOM     32  H13 8Q6 d   1      10.078 -14.746   1.802  0.00  0.00     0.085 H 
ATOM     33  CBA 8Q6 d   1      10.817 -15.362   5.044  0.00  0.00     0.095 A 
ATOM     34  H14 8Q6 d   1      10.072 -16.585   3.444  0.00  0.00     0.087 H 
BRANCH  28  35
ATOM     35  CAS 8Q6 d   1      10.793 -12.237   2.210  0.00  0.00     0.155 C 
ATOM     36  OAE 8Q6 d   1      10.569 -12.467   1.018  0.00  0.00    -0.293 OA
BRANCH  35  37
ATOM     37  CAD 8Q6 d   1      11.025 -10.795   2.684  0.00  0.00    -0.017 C 
ATOM     38  H10 8Q6 d   1      10.975 -10.113   1.822  0.00  0.00     0.038 H 
ATOM     39  H11 8Q6 d   1      12.016 -10.719   3.155  0.00  0.00     0.038 H 
ATOM     40  H12 8Q6 d   1      10.250 -10.520   3.414  0.00  0.00     0.038 H 
ENDBRANCH  35  37
ENDBRANCH  28  35
BRANCH  33  41
ATOM     41  OAR 8Q6 d   1      10.837 -16.335   5.994  0.00  0.00    -0.349 OA
BRANCH  41  42
ATOM     42  CAN 8Q6 d   1      10.299 -17.621   5.627  0.00  0.00     0.023 C 
ATOM     43  H19 8Q6 d   1       9.244 -17.517   5.335  0.00  0.00     0.074 H 
ATOM     44  H20 8Q6 d   1      10.872 -18.042   4.788  0.00  0.00     0.074 H 
BRANCH  42  45
ATOM     45  CAA 8Q6 d   1      10.415 -18.535   6.851  0.00  0.00    -0.056 C 
ATOM     46  H1  8Q6 d   1      10.012 -19.529   6.606  0.00  0.00     0.030 H 
ATOM     47  H2  8Q6 d   1       9.844 -18.104   7.686  0.00  0.00     0.030 H 
ATOM     48  H3  8Q6 d   1      11.472 -18.629   7.140  0.00  0.00     0.030 H 
ENDBRANCH  42  45
ENDBRANCH  41  42
ENDBRANCH  33  41
ENDBRANCH   1  26
TORSDOF 13
