REMARK  9 active torsions:
REMARK  status: ('A' for Active; 'I' for Inactive)
REMARK    1  A    between atoms: CAO_12  and  CAA_1 
REMARK    2  A    between atoms: CAR_13  and  CAB_2 
REMARK    3  A    between atoms: SAZ_26  and  CAC_3 
REMARK    4  A    between atoms: OAQ_25  and  CAO_12 
REMARK    5  A    between atoms: CAT_15  and  CAR_13 
REMARK    6  A    between atoms: CAS_14  and  NAP_20 
REMARK    7  A    between atoms: NAP_20  and  CAU_16 
REMARK    8  A    between atoms: CAV_17  and  OAQ_25 
REMARK    9  A    between atoms: NAY_21  and  SAZ_26 
ROOT
ATOM      1  CAG UT0 d   1      -4.993  -2.066  -4.604  0.00  0.00    -0.067 A 
ATOM      2  CAH UT0 d   1      -3.707  -2.041  -5.151  0.00  0.00    -0.048 A 
ATOM      3  CAM UT0 d   1      -4.038  -1.776  -2.422  0.00  0.00    -0.041 A 
ATOM      4  CAT UT0 d   1      -5.174  -1.930  -3.231  0.00  0.00     0.012 A 
ATOM      5  CAU UT0 d   1      -2.743  -1.777  -2.950  0.00  0.00     0.067 A 
ATOM      6  CAV UT0 d   1      -2.588  -1.893  -4.328  0.00  0.00     0.095 A 
ATOM      7  H10 UT0 d   1      -5.853  -2.192  -5.252  0.00  0.00     0.085 H 
ATOM      8  H11 UT0 d   1      -3.577  -2.137  -6.223  0.00  0.00     0.087 H 
ATOM      9  H16 UT0 d   1      -4.168  -1.652  -1.353  0.00  0.00     0.088 H 
ENDROOT
BRANCH   5  10
ATOM     10  NAP UT0 d   1      -1.631  -1.601  -2.168  0.00  0.00    -0.354 N 
ATOM     11  H20 UT0 d   1      -1.424  -0.655  -1.818  0.00  0.00     0.166 HD
BRANCH  10  12
ATOM     12  CAS UT0 d   1      -0.784  -2.616  -1.830  0.00  0.00     0.034 A 
ATOM     13  CAI UT0 d   1      -0.738  -3.833  -2.510  0.00  0.00    -0.056 A 
ATOM     14  CAJ UT0 d   1       0.166  -4.826  -2.101  0.00  0.00    -0.069 A 
ATOM     15  H12 UT0 d   1      -1.398  -4.011  -3.351  0.00  0.00     0.086 H 
ATOM     16  CAW UT0 d   1       0.989  -4.598  -1.061  0.00  0.00    -0.007 A 
ATOM     17  H13 UT0 d   1       0.201  -5.776  -2.623  0.00  0.00     0.085 H 
ATOM     18  CAK UT0 d   1       1.922  -5.367  -0.481  0.00  0.00    -0.055 A 
ATOM     19  CAX UT0 d   1       0.959  -3.427  -0.407  0.00  0.00     0.062 A 
ATOM     20  CAL UT0 d   1       2.486  -4.674   0.513  0.00  0.00    -0.003 A 
ATOM     21  H14 UT0 d   1       2.177  -6.385  -0.771  0.00  0.00     0.087 H 
ATOM     22  NAY UT0 d   1       1.866  -3.491   0.590  0.00  0.00    -0.251 N 
ATOM     23  H15 UT0 d   1       3.304  -5.012   1.147  0.00  0.00     0.113 H 
ATOM     24  CAN UT0 d   1       0.109  -2.451  -0.763  0.00  0.00    -0.029 A 
ATOM     25  H17 UT0 d   1       0.114  -1.516  -0.214  0.00  0.00     0.090 H 
BRANCH  22  26
ATOM     26  SAZ UT0 d   1       2.286  -2.268   1.619  0.00  0.00     0.233 S 
ATOM     27  OAE UT0 d   1       1.065  -1.453   2.000  0.00  0.00    -0.206 OA
ATOM     28  OAF UT0 d   1       3.033  -2.826   2.837  0.00  0.00    -0.206 OA
BRANCH  26  29
ATOM     29  CAC UT0 d   1       3.380  -1.228   0.683  0.00  0.00     0.033 C 
ATOM     30  H7  UT0 d   1       3.706  -0.383   1.307  0.00  0.00     0.051 H 
ATOM     31  H8  UT0 d   1       2.854  -0.847  -0.205  0.00  0.00     0.051 H 
ATOM     32  H9  UT0 d   1       4.258  -1.810   0.367  0.00  0.00     0.051 H 
ENDBRANCH  26  29
ENDBRANCH  22  26
ENDBRANCH  10  12
ENDBRANCH   5  10
BRANCH   6  33
ATOM     33  OAQ UT0 d   1      -1.298  -1.849  -4.780  0.00  0.00    -0.349 OA
BRANCH  33  34
ATOM     34  CAO UT0 d   1      -1.152  -2.070  -6.178  0.00  0.00     0.023 C 
ATOM     35  H18 UT0 d   1      -2.078  -1.778  -6.694  0.00  0.00     0.074 H 
ATOM     36  H19 UT0 d   1      -0.314  -1.468  -6.559  0.00  0.00     0.074 H 
BRANCH  34  37
ATOM     37  CAA UT0 d   1      -0.874  -3.546  -6.430  0.00  0.00    -0.056 C 
ATOM     38  H1  UT0 d   1      -0.761  -3.719  -7.511  0.00  0.00     0.030 H 
ATOM     39  H2  UT0 d   1      -1.712  -4.147  -6.048  0.00  0.00     0.030 H 
ATOM     40  H3  UT0 d   1       0.052  -3.838  -5.913  0.00  0.00     0.030 H 
ENDBRANCH  34  37
ENDBRANCH  33  34
ENDBRANCH   6  33
BRANCH   4  41
ATOM     41  CAR UT0 d   1      -6.492  -1.978  -2.728  0.00  0.00     0.155 C 
ATOM     42  OAD UT0 d   1      -7.478  -2.160  -3.465  0.00  0.00    -0.293 OA
BRANCH  41  43
ATOM     43  CAB UT0 d   1      -6.677  -1.946  -1.201  0.00  0.00    -0.017 C 
ATOM     44  H4  UT0 d   1      -7.750  -1.990  -0.961  0.00  0.00     0.038 H 
ATOM     45  H5  UT0 d   1      -6.249  -1.016  -0.799  0.00  0.00     0.038 H 
ATOM     46  H6  UT0 d   1      -6.165  -2.810  -0.751  0.00  0.00     0.038 H 
ENDBRANCH  41  43
ENDBRANCH   4  41
TORSDOF 9
