REMARK  1 active torsions:
REMARK  status: ('A' for Active; 'I' for Inactive)
REMARK    1  A    between atoms: C2_2  and  N_7 
ROOT
ATOM      1  N1  2AP d   1      -2.385 -14.149 -17.678  0.00  0.00    -0.244 NA
ATOM      2  C2  2AP d   1      -1.697 -15.246 -17.325  0.00  0.00     0.120 A 
ATOM      3  C3  2AP d   1      -1.155 -15.399 -16.040  0.00  0.00    -0.039 A 
ATOM      4  C4  2AP d   1      -1.336 -14.375 -15.130  0.00  0.00    -0.078 A 
ATOM      5  C5  2AP d   1      -2.038 -13.252 -15.494  0.00  0.00    -0.066 A 
ATOM      6  C6  2AP d   1      -2.533 -13.184 -16.761  0.00  0.00     0.004 A 
ATOM      7  H1  2AP d   1      -0.609 -16.296 -15.769  0.00  0.00     0.089 H 
ATOM      8  H2  2AP d   1      -0.925 -14.458 -14.130  0.00  0.00     0.083 H 
ATOM      9  H3  2AP d   1      -2.194 -12.441 -14.791  0.00  0.00     0.085 H 
ATOM     10  H4  2AP d   1      -3.081 -12.293 -17.045  0.00  0.00     0.114 H 
ENDROOT
BRANCH   2  11
ATOM     11  N   2AP d   1      -1.513 -16.165 -18.269  0.00  0.00    -0.384 N 
ATOM     12  H5  2AP d   1      -0.992 -17.027 -18.054  0.00  0.00     0.157 HD
ATOM     13  H6  2AP d   1      -1.891 -16.015 -19.215  0.00  0.00     0.157 HD
ENDBRANCH   2  11
TORSDOF 1
