REMARK  0 active torsions:
REMARK  status: ('A' for Active; 'I' for Inactive)
REMARK       I    between atoms: N4_4  and  C7_7 
REMARK       I    between atoms: C7_7  and  N8_8 
ROOT
ATOM      1  C1  MRZ d   1      -1.660 -13.479 -14.403  0.00  0.00    -0.062 C 
ATOM      2  C6  MRZ d   1      -2.449 -12.938 -15.564  0.00  0.00    -0.050 C 
ATOM      3  C5  MRZ d   1      -1.736 -13.196 -16.880  0.00  0.00     0.011 C 
ATOM      4  N4  MRZ d   1      -1.561 -14.647 -17.097  0.00  0.00    -0.219 N 
ATOM      5  C3  MRZ d   1      -0.668 -15.124 -16.006  0.00  0.00     0.011 C 
ATOM      6  C2  MRZ d   1      -1.298 -14.938 -14.637  0.00  0.00    -0.050 C 
ATOM      7  C7  MRZ d   1      -1.987 -15.370 -18.145  0.00  0.00     0.667 C 
ATOM      8  N8  MRZ d   1      -1.616 -16.627 -18.296  0.00  0.00    -0.235 N 
ATOM      9  N9  MRZ d   1      -2.718 -14.835 -19.098  0.00  0.00    -0.235 N 
ATOM     10  H1  MRZ d   1      -2.263 -13.398 -13.487  0.00  0.00     0.033 H 
ATOM     11  H2  MRZ d   1      -0.737 -12.891 -14.287  0.00  0.00     0.033 H 
ATOM     12  H3  MRZ d   1      -2.581 -11.854 -15.434  0.00  0.00     0.035 H 
ATOM     13  H4  MRZ d   1      -3.434 -13.427 -15.588  0.00  0.00     0.035 H 
ATOM     14  H5  MRZ d   1      -0.749 -12.711 -16.858  0.00  0.00     0.065 H 
ATOM     15  H6  MRZ d   1      -2.332 -12.776 -17.703  0.00  0.00     0.065 H 
ATOM     16  H7  MRZ d   1       0.274 -14.557 -16.044  0.00  0.00     0.065 H 
ATOM     17  H8  MRZ d   1      -0.459 -16.193 -16.159  0.00  0.00     0.065 H 
ATOM     18  H9  MRZ d   1      -2.209 -15.550 -14.573  0.00  0.00     0.035 H 
ATOM     19  H10 MRZ d   1      -0.584 -15.261 -13.865  0.00  0.00     0.035 H 
ATOM     20  H11 MRZ d   1      -1.951 -17.169 -19.105  0.00  0.00     0.174 HD
ATOM     21  H12 MRZ d   1      -0.991 -17.066 -17.605  0.00  0.00     0.174 HD
ATOM     22  H13 MRZ d   1      -3.029 -13.856 -19.020  0.00  0.00     0.174 HD
ATOM     23  H14 MRZ d   1      -2.979 -15.395 -19.922  0.00  0.00     0.174 HD
ENDROOT
TORSDOF 0
