REMARK  17 active torsions:
REMARK  status: ('A' for Active; 'I' for Inactive)
REMARK    1  A    between atoms: C07_19  and  C10_1 
REMARK    2  A    between atoms: P01_10  and  C11_2 
REMARK    3  A    between atoms: C11_2  and  N04_24 
REMARK       I    between atoms: N04_24  and  C12_3 
REMARK    4  A    between atoms: C12_3  and  O06_25 
REMARK    5  A    between atoms: C13_4  and  C14_5 
REMARK    6  A    between atoms: O06_25  and  C13_4 
REMARK    7  A    between atoms: N01_11  and  P01_10 
REMARK    8  A    between atoms: C01_12  and  N01_11 
REMARK    9  A    between atoms: C01_12  and  C02_13 
REMARK   10  A    between atoms: C06_17  and  C01_12 
REMARK   11  A    between atoms: C02_13  and  C03_14 
REMARK   12  A    between atoms: C03_14  and  C04_15 
REMARK   13  A    between atoms: C03_14  and  C05_16 
REMARK       I    between atoms: N02_18  and  C06_17 
REMARK   14  A    between atoms: N02_18  and  C07_19 
REMARK   15  A    between atoms: C07_19  and  C08_29 
REMARK   16  A    between atoms: C08_29  and  C09_30 
REMARK   17  A    between atoms: C09_30  and  N03_31 
ROOT
ATOM      1  C01 JC2 d   1      10.081  38.628  -3.612  0.00  0.00     0.091 C 
ATOM      2  H9  JC2 d   1       9.832  37.595  -3.895  0.00  0.00     0.087 H 
ENDROOT
BRANCH   1   3
ATOM      3  N01 JC2 d   1      11.235  39.062  -4.398  0.00  0.00    -0.334 N 
ATOM      4  H8  JC2 d   1      11.902  39.678  -3.979  0.00  0.00     0.164 HD
BRANCH   3   5
ATOM      5  P01 JC2 d   1      11.474  38.563  -5.968  0.00  0.00     0.224 P 
ATOM      6  O01 JC2 d   1      12.432  37.411  -6.104  0.00  0.00    -0.651 OA
ATOM      7  O05 JC2 d   1      10.110  38.209  -6.532  0.00  0.00    -0.651 OA
BRANCH   5   8
ATOM      8  C11 JC2 d   1      12.142  40.028  -6.823  0.00  0.00     0.086 C 
ATOM      9  H1  JC2 d   1      12.863  40.541  -6.170  0.00  0.00     0.083 H 
ATOM     10  H2  JC2 d   1      11.322  40.716  -7.075  0.00  0.00     0.083 H 
BRANCH   8  11
ATOM     11  N04 JC2 d   1      12.801  39.595  -8.029  0.00  0.00    -0.325 N 
ATOM     12  C12 JC2 d   1      12.824  40.366  -9.182  0.00  0.00     0.361 C 
ATOM     13  O07 JC2 d   1      12.368  41.454  -9.283  0.00  0.00    -0.238 OA
ATOM     14  H21 JC2 d   1      13.259  38.706  -8.035  0.00  0.00     0.165 HD
BRANCH  12  15
ATOM     15  O06 JC2 d   1      13.489  39.667 -10.163  0.00  0.00    -0.299 OA
BRANCH  15  16
ATOM     16  C13 JC2 d   1      13.788  40.336 -11.365  0.00  0.00     0.054 C 
ATOM     17  H3  JC2 d   1      13.402  39.755 -12.215  0.00  0.00     0.082 H 
ATOM     18  H4  JC2 d   1      13.319  41.331 -11.358  0.00  0.00     0.082 H 
BRANCH  16  19
ATOM     19  C14 JC2 d   1      15.305  40.486 -11.495  0.00  0.00    -0.034 A 
ATOM     20  C15 JC2 d   1      15.974  39.880 -12.551  0.00  0.00    -0.075 A 
ATOM     21  C16 JC2 d   1      17.360  40.001 -12.689  0.00  0.00    -0.082 A 
ATOM     22  H5  JC2 d   1      15.413  39.305 -13.279  0.00  0.00     0.084 H 
ATOM     23  C17 JC2 d   1      18.076  40.768 -11.781  0.00  0.00    -0.083 A 
ATOM     24  H6  JC2 d   1      17.873  39.498 -13.501  0.00  0.00     0.083 H 
ATOM     25  C18 JC2 d   1      17.408  41.368 -10.721  0.00  0.00    -0.082 A 
ATOM     26  H22 JC2 d   1      19.146  40.898 -11.898  0.00  0.00     0.083 H 
ATOM     27  C19 JC2 d   1      16.051  41.216 -10.583  0.00  0.00    -0.075 A 
ATOM     28  H23 JC2 d   1      17.961  41.959 -10.000  0.00  0.00     0.083 H 
ATOM     29  H7  JC2 d   1      15.550  41.678  -9.740  0.00  0.00     0.084 H 
ENDBRANCH  16  19
ENDBRANCH  15  16
ENDBRANCH  12  15
ENDBRANCH   8  11
ENDBRANCH   5   8
ENDBRANCH   3   5
ENDBRANCH   1   3
BRANCH   1  30
ATOM     30  C02 JC2 d   1      10.454  38.662  -2.134  0.00  0.00    -0.035 C 
ATOM     31  H10 JC2 d   1      10.659  39.706  -1.855  0.00  0.00     0.037 H 
ATOM     32  H11 JC2 d   1      11.364  38.060  -1.995  0.00  0.00     0.037 H 
BRANCH  30  33
ATOM     33  C03 JC2 d   1       9.379  38.122  -1.202  0.00  0.00    -0.059 C 
ATOM     34  H12 JC2 d   1       8.420  38.576  -1.492  0.00  0.00     0.038 H 
BRANCH  33  35
ATOM     35  C04 JC2 d   1       9.670  38.533   0.229  0.00  0.00    -0.073 C 
ATOM     36  H13 JC2 d   1       8.886  38.136   0.891  0.00  0.00     0.028 H 
ATOM     37  H14 JC2 d   1       9.688  39.631   0.299  0.00  0.00     0.028 H 
ATOM     38  H15 JC2 d   1      10.647  38.130   0.535  0.00  0.00     0.028 H 
ENDBRANCH  33  35
BRANCH  33  39
ATOM     39  C05 JC2 d   1       9.237  36.604  -1.354  0.00  0.00    -0.073 C 
ATOM     40  H16 JC2 d   1       9.027  36.359  -2.406  0.00  0.00     0.028 H 
ATOM     41  H17 JC2 d   1       8.409  36.248  -0.723  0.00  0.00     0.028 H 
ATOM     42  H18 JC2 d   1      10.172  36.115  -1.043  0.00  0.00     0.028 H 
ENDBRANCH  33  39
ENDBRANCH  30  33
ENDBRANCH   1  30
BRANCH   1  43
ATOM     43  C06 JC2 d   1       8.866  39.497  -3.862  0.00  0.00     0.241 C 
ATOM     44  N02 JC2 d   1       9.167  40.837  -4.059  0.00  0.00    -0.345 N 
ATOM     45  H19 JC2 d   1      10.122  41.134  -4.049  0.00  0.00     0.163 HD
ATOM     46  O04 JC2 d   1       7.744  39.068  -3.823  0.00  0.00    -0.271 OA
BRANCH  44  47
ATOM     47  C07 JC2 d   1       8.118  41.814  -4.279  0.00  0.00     0.098 C 
ATOM     48  H20 JC2 d   1       7.189  41.269  -4.504  0.00  0.00     0.089 H 
BRANCH  47  49
ATOM     49  C10 JC2 d   1       8.466  42.653  -5.498  0.00  0.00     0.196 C 
ATOM     50  O02 JC2 d   1       7.555  43.385  -5.967  0.00  0.00    -0.646 OA
ATOM     51  O03 JC2 d   1       9.618  42.593  -5.993  0.00  0.00    -0.646 OA
ENDBRANCH  47  49
BRANCH  47  52
ATOM     52  C08 JC2 d   1       7.859  42.646  -3.034  0.00  0.00    -0.015 C 
ATOM     53  H24 JC2 d   1       7.596  41.975  -2.203  0.00  0.00     0.039 H 
ATOM     54  H25 JC2 d   1       7.022  43.332  -3.230  0.00  0.00     0.039 H 
BRANCH  52  55
ATOM     55  C09 JC2 d   1       9.075  43.453  -2.648  0.00  0.00     0.082 C 
ATOM     56  H26 JC2 d   1       9.487  43.922  -3.553  0.00  0.00     0.075 H 
ATOM     57  H27 JC2 d   1       9.824  42.774  -2.213  0.00  0.00     0.075 H 
BRANCH  55  58
ATOM     58  N03 JC2 d   1       8.775  44.497  -1.678  0.00  0.00    -0.079 N 
ATOM     59  H28 JC2 d   1       9.619  45.002  -1.457  0.00  0.00     0.274 HD
ATOM     60  H29 JC2 d   1       8.404  44.080  -0.839  0.00  0.00     0.274 HD
ATOM     61  H30 JC2 d   1       8.095  45.132  -2.067  0.00  0.00     0.274 HD
ENDBRANCH  55  58
ENDBRANCH  52  55
ENDBRANCH  47  52
ENDBRANCH  44  47
ENDBRANCH   1  43
TORSDOF 17
