REMARK  11 active torsions:
REMARK  status: ('A' for Active; 'I' for Inactive)
REMARK    1  A    between atoms: C16_3  and  C19_4 
REMARK    2  A    between atoms: C13_13  and  C12_14 
REMARK    3  A    between atoms: C12_14  and  N2_15 
REMARK    4  A    between atoms: N2_15  and  C11_16 
REMARK    5  A    between atoms: C11_16  and  C10_17 
REMARK    6  A    between atoms: C10_17  and  C9_18 
REMARK    7  A    between atoms: C9_18  and  N1_19 
REMARK       I    between atoms: N1_19  and  C8_20 
REMARK    8  A    between atoms: C8_20  and  C7_22 
REMARK    9  A    between atoms: C7_22  and  C6_23 
REMARK       I    between atoms: C6_23  and  N_25 
REMARK   10  A    between atoms: N_25  and  C5_26 
REMARK   11  A    between atoms: C1_31  and  C_32 
ROOT
ATOM      1  C11 C98 d   1       5.983 133.792 355.480  0.00  0.00     0.083 C 
ATOM      2  H13 C98 d   1       7.009 133.993 355.139  0.00  0.00     0.075 H 
ATOM      3  H14 C98 d   1       5.473 133.146 354.750  0.00  0.00     0.075 H 
ENDROOT
BRANCH   1   4
ATOM      4  N2  C98 d   1       5.262 135.059 355.569  0.00  0.00    -0.071 N 
ATOM      5  H11 C98 d   1       4.546 134.973 356.274  0.00  0.00     0.277 HD
ATOM      6  H12 C98 d   1       5.912 135.781 355.837  0.00  0.00     0.277 HD
BRANCH   4   7
ATOM      7  C12 C98 d   1       4.632 135.442 354.308  0.00  0.00     0.105 C 
ATOM      8  H9  C98 d   1       5.197 134.984 353.483  0.00  0.00     0.083 H 
ATOM      9  H10 C98 d   1       3.601 135.059 354.303  0.00  0.00     0.083 H 
BRANCH   7  10
ATOM     10  C13 C98 d   1       4.589 136.934 354.089  0.00  0.00    -0.031 A 
ATOM     11  C14 C98 d   1       4.161 137.790 355.086  0.00  0.00    -0.074 A 
ATOM     12  C15 C98 d   1       4.058 139.151 354.866  0.00  0.00    -0.070 A 
ATOM     13  H7  C98 d   1       3.901 137.387 356.058  0.00  0.00     0.084 H 
ATOM     14  C16 C98 d   1       4.382 139.701 353.629  0.00  0.00    -0.004 A 
ATOM     15  H6  C98 d   1       3.720 139.798 355.667  0.00  0.00     0.084 H 
ATOM     16  C17 C98 d   1       4.860 138.841 352.652  0.00  0.00     0.045 A 
ATOM     17 CL   C98 d   1       5.422 139.470 351.136  0.00  0.00    -0.083 Cl
ATOM     18  C18 C98 d   1       4.949 137.480 352.865  0.00  0.00    -0.053 A 
ATOM     19  H8  C98 d   1       5.303 136.833 352.070  0.00  0.00     0.087 H 
BRANCH  14  20
ATOM     20  C19 C98 d   1       4.090 141.142 353.390  0.00  0.00    -0.024 A 
ATOM     21  C24 C98 d   1       2.870 141.696 353.771  0.00  0.00    -0.072 A 
ATOM     22  C23 C98 d   1       2.599 143.035 353.549  0.00  0.00    -0.082 A 
ATOM     23  H1  C98 d   1       2.124 141.071 354.247  0.00  0.00     0.084 H 
ATOM     24  C22 C98 d   1       3.535 143.841 352.945  0.00  0.00    -0.083 A 
ATOM     25  H2  C98 d   1       1.645 143.450 353.853  0.00  0.00     0.083 H 
ATOM     26  C21 C98 d   1       4.745 143.311 352.556  0.00  0.00    -0.082 A 
ATOM     27  H3  C98 d   1       3.321 144.890 352.776  0.00  0.00     0.083 H 
ATOM     28  C20 C98 d   1       5.023 141.972 352.773  0.00  0.00    -0.072 A 
ATOM     29  H4  C98 d   1       5.483 143.945 352.078  0.00  0.00     0.083 H 
ATOM     30  H5  C98 d   1       5.978 141.565 352.459  0.00  0.00     0.084 H 
ENDBRANCH  14  20
ENDBRANCH   7  10
ENDBRANCH   4   7
ENDBRANCH   1   4
BRANCH   1  31
ATOM     31  C10 C98 d   1       6.045 133.071 356.806  0.00  0.00    -0.028 C 
ATOM     32  H15 C98 d   1       5.034 132.733 357.078  0.00  0.00     0.037 H 
ATOM     33  H16 C98 d   1       6.419 133.764 357.574  0.00  0.00     0.037 H 
BRANCH  31  34
ATOM     34  C9  C98 d   1       6.962 131.874 356.733  0.00  0.00    -0.003 C 
ATOM     35  H17 C98 d   1       7.993 132.232 356.595  0.00  0.00     0.064 H 
ATOM     36  H18 C98 d   1       6.668 131.260 355.869  0.00  0.00     0.064 H 
BRANCH  34  37
ATOM     37  N1  C98 d   1       6.917 131.043 357.927  0.00  0.00    -0.361 N 
ATOM     38  C8  C98 d   1       8.009 130.505 358.458  0.00  0.00     0.226 C 
ATOM     39  O3  C98 d   1       9.142 130.830 358.117  0.00  0.00    -0.273 OA
ATOM     40  H19 C98 d   1       6.033 130.871 358.363  0.00  0.00     0.162 HD
BRANCH  38  41
ATOM     41  C7  C98 d   1       7.783 129.421 359.490  0.00  0.00     0.083 C 
ATOM     42  H20 C98 d   1       8.467 128.585 359.281  0.00  0.00     0.061 H 
ATOM     43  H21 C98 d   1       6.743 129.072 359.415  0.00  0.00     0.061 H 
BRANCH  41  44
ATOM     44  C6  C98 d   1       8.031 129.912 360.899  0.00  0.00     0.230 C 
ATOM     45  O2  C98 d   1       7.108 130.035 361.697  0.00  0.00    -0.273 OA
ATOM     46  N   C98 d   1       9.322 130.179 361.193  0.00  0.00    -0.327 N 
ATOM     47  H22 C98 d   1       9.990 129.987 360.474  0.00  0.00     0.169 HD
BRANCH  46  48
ATOM     48  C5  C98 d   1       9.835 130.699 362.403  0.00  0.00     0.035 A 
ATOM     49  C4  C98 d   1       8.969 130.980 363.451  0.00  0.00    -0.057 A 
ATOM     50  C3  C98 d   1       9.443 131.607 364.590  0.00  0.00    -0.080 A 
ATOM     51  H23 C98 d   1       7.922 130.708 363.377  0.00  0.00     0.086 H 
ATOM     52  C2  C98 d   1      10.779 131.949 364.693  0.00  0.00    -0.066 A 
ATOM     53  H24 C98 d   1       8.764 131.831 365.405  0.00  0.00     0.083 H 
ATOM     54  C1  C98 d   1      11.661 131.648 363.664  0.00  0.00     0.043 A 
ATOM     55  H25 C98 d   1      11.139 132.455 365.582  0.00  0.00     0.085 H 
ATOM     56  C25 C98 d   1      11.184 131.012 362.522  0.00  0.00    -0.041 A 
ATOM     57  H26 C98 d   1      11.868 130.759 361.720  0.00  0.00     0.088 H 
BRANCH  54  58
ATOM     58  C   C98 d   1      13.076 132.098 363.727  0.00  0.00     0.209 C 
ATOM     59  O1  C98 d   1      13.475 132.830 364.609  0.00  0.00    -0.644 OA
ATOM     60  O   C98 d   1      13.807 131.713 362.738  0.00  0.00    -0.644 OA
ENDBRANCH  54  58
ENDBRANCH  46  48
ENDBRANCH  41  44
ENDBRANCH  38  41
ENDBRANCH  34  37
ENDBRANCH  31  34
ENDBRANCH   1  31
TORSDOF 11
