REMARK  6 active torsions:
REMARK  status: ('A' for Active; 'I' for Inactive)
REMARK    1  A    between atoms: C6_4  and  C7_5 
REMARK    2  A    between atoms: C7_5  and  N_6 
REMARK    3  A    between atoms: C3_9  and  O_10 
REMARK    4  A    between atoms: O_10  and  C1_11 
REMARK    5  A    between atoms: C1_11  and  C2_12 
REMARK    6  A    between atoms: C1_11  and  C_13 
ROOT
ATOM      1 CL   86L d   1       6.171 142.815 353.266  0.00  0.00    -0.081 Cl
ATOM      2  C9  86L d   1       5.319 141.320 353.065  0.00  0.00     0.068 A 
ATOM      3  C8  86L d   1       5.885 140.153 353.530  0.00  0.00    -0.051 A 
ATOM      4  C6  86L d   1       5.216 138.945 353.396  0.00  0.00    -0.031 A 
ATOM      5  C5  86L d   1       3.966 138.946 352.796  0.00  0.00    -0.072 A 
ATOM      6  C4  86L d   1       3.394 140.117 352.325  0.00  0.00    -0.049 A 
ATOM      7  C3  86L d   1       4.075 141.316 352.448  0.00  0.00     0.091 A 
ATOM      8  H1  86L d   1       6.860 140.179 354.004  0.00  0.00     0.087 H 
ATOM      9  H7  86L d   1       3.425 138.012 352.693  0.00  0.00     0.084 H 
ATOM     10  H8  86L d   1       2.415 140.094 351.861  0.00  0.00     0.087 H 
ENDROOT
BRANCH   7  11
ATOM     11  O   86L d   1       3.646 142.524 351.959  0.00  0.00    -0.345 OA
BRANCH  11  12
ATOM     12  C1  86L d   1       3.138 143.535 352.869  0.00  0.00     0.038 C 
ATOM     13  H9  86L d   1       3.576 143.401 353.869  0.00  0.00     0.082 H 
BRANCH  12  14
ATOM     14  C2  86L d   1       3.526 144.884 352.341  0.00  0.00    -0.052 C 
ATOM     15  H10 86L d   1       3.149 145.665 353.018  0.00  0.00     0.030 H 
ATOM     16  H11 86L d   1       3.091 145.025 351.341  0.00  0.00     0.030 H 
ATOM     17  H12 86L d   1       4.622 144.951 352.277  0.00  0.00     0.030 H 
ENDBRANCH  12  14
BRANCH  12  18
ATOM     18  C   86L d   1       1.658 143.346 352.949  0.00  0.00    -0.052 C 
ATOM     19  H13 86L d   1       1.229 144.095 353.631  0.00  0.00     0.030 H 
ATOM     20  H14 86L d   1       1.437 142.337 353.327  0.00  0.00     0.030 H 
ATOM     21  H15 86L d   1       1.218 143.468 351.948  0.00  0.00     0.030 H 
ENDBRANCH  12  18
ENDBRANCH  11  12
ENDBRANCH   7  11
BRANCH   4  22
ATOM     22  C7  86L d   1       5.840 137.664 353.870  0.00  0.00     0.103 C 
ATOM     23  H2  86L d   1       6.838 137.874 354.282  0.00  0.00     0.082 H 
ATOM     24  H3  86L d   1       5.932 136.967 353.024  0.00  0.00     0.082 H 
BRANCH  22  25
ATOM     25  N   86L d   1       5.005 137.063 354.905  0.00  0.00    -0.075 N 
ATOM     26  H4  86L d   1       5.427 136.204 355.220  0.00  0.00     0.274 HD
ATOM     27  H5  86L d   1       4.090 136.869 354.528  0.00  0.00     0.274 HD
ATOM     28  H6  86L d   1       4.921 137.701 355.681  0.00  0.00     0.274 HD
ENDBRANCH  22  25
ENDBRANCH   4  22
TORSDOF 6
