REMARK  9 active torsions:
REMARK  status: ('A' for Active; 'I' for Inactive)
REMARK    1  A    between atoms: CAM_11  and  CAA_1 
REMARK    2  A    between atoms: CAV_12  and  CAB_2 
REMARK    3  A    between atoms: OAT_30  and  CAM_11 
REMARK    4  A    between atoms: CAX_14  and  CAV_12 
REMARK    5  A    between atoms: CAW_13  and  CAY_15 
REMARK       I    between atoms: NAR_26  and  CAW_13 
REMARK    6  A    between atoms: CAZ_16  and  CBB_18 
REMARK    7  A    between atoms: CBA_17  and  CBE_21 
REMARK    8  A    between atoms: CBC_19  and  NAR_26 
REMARK    9  A    between atoms: CBD_20  and  OAT_30 
ROOT
ATOM      1  CAW 0BC d   1      22.307 -20.199 -15.821  0.00  0.00     0.256 C 
ATOM      2  NAR 0BC d   1      23.178 -20.501 -14.831  0.00  0.00    -0.320 N 
ATOM      3  OAD 0BC d   1      21.085 -20.067 -15.641  0.00  0.00    -0.267 OA
ATOM      4  H18 0BC d   1      24.152 -20.588 -15.038  0.00  0.00     0.169 HD
ENDROOT
BRANCH   2   5
ATOM      5  CBC 0BC d   1      22.740 -20.687 -13.558  0.00  0.00     0.069 A 
ATOM      6  CAL 0BC d   1      21.902 -19.784 -12.886  0.00  0.00    -0.041 A 
ATOM      7  CAX 0BC d   1      21.510 -20.020 -11.561  0.00  0.00     0.012 A 
ATOM      8  H14 0BC d   1      21.554 -18.894 -13.397  0.00  0.00     0.088 H 
ATOM      9  CAE 0BC d   1      21.974 -21.163 -10.904  0.00  0.00    -0.067 A 
ATOM     10  CAF 0BC d   1      22.795 -22.070 -11.567  0.00  0.00    -0.048 A 
ATOM     11  H7  0BC d   1      21.693 -21.344  -9.873  0.00  0.00     0.085 H 
ATOM     12  CBD 0BC d   1      23.192 -21.823 -12.883  0.00  0.00     0.095 A 
ATOM     13  H8  0BC d   1      23.127 -22.970 -11.061  0.00  0.00     0.087 H 
BRANCH   7  14
ATOM     14  CAV 0BC d   1      20.691 -19.120 -10.871  0.00  0.00     0.155 C 
ATOM     15  OAC 0BC d   1      20.432 -19.243  -9.670  0.00  0.00    -0.293 OA
BRANCH  14  16
ATOM     16  CAB 0BC d   1      20.145 -17.922 -11.652  0.00  0.00    -0.017 C 
ATOM     17  H4  0BC d   1      19.522 -17.305 -10.988  0.00  0.00     0.038 H 
ATOM     18  H5  0BC d   1      19.537 -18.280 -12.496  0.00  0.00     0.038 H 
ATOM     19  H6  0BC d   1      20.983 -17.320 -12.033  0.00  0.00     0.038 H 
ENDBRANCH  14  16
ENDBRANCH   7  14
BRANCH  12  20
ATOM     20  OAT 0BC d   1      24.015 -22.678 -13.570  0.00  0.00    -0.349 OA
BRANCH  20  21
ATOM     21  CAM 0BC d   1      24.482 -23.755 -12.746  0.00  0.00     0.023 C 
ATOM     22  H15 0BC d   1      25.214 -23.368 -12.022  0.00  0.00     0.074 H 
ATOM     23  H16 0BC d   1      23.631 -24.197 -12.207  0.00  0.00     0.074 H 
BRANCH  21  24
ATOM     24  CAA 0BC d   1      25.145 -24.828 -13.613  0.00  0.00    -0.056 C 
ATOM     25  H1  0BC d   1      25.500 -25.649 -12.973  0.00  0.00     0.030 H 
ATOM     26  H2  0BC d   1      25.997 -24.389 -14.152  0.00  0.00     0.030 H 
ATOM     27  H3  0BC d   1      24.414 -25.217 -14.337  0.00  0.00     0.030 H 
ENDBRANCH  21  24
ENDBRANCH  20  21
ENDBRANCH  12  20
ENDBRANCH   2   5
BRANCH   1  28
ATOM     28  CAY 0BC d   1      22.858 -19.943 -17.104  0.00  0.00     0.034 A 
ATOM     29  CAI 0BC d   1      22.083 -20.192 -18.236  0.00  0.00    -0.056 A 
ATOM     30  CAZ 0BC d   1      22.549 -19.923 -19.517  0.00  0.00    -0.005 A 
ATOM     31  H11 0BC d   1      21.089 -20.607 -18.113  0.00  0.00     0.086 H 
ATOM     32  CAK 0BC d   1      23.814 -19.366 -19.678  0.00  0.00    -0.057 A 
ATOM     33  CBA 0BC d   1      24.599 -19.085 -18.567  0.00  0.00     0.015 A 
ATOM     34  H13 0BC d   1      24.188 -19.151 -20.673  0.00  0.00     0.086 H 
ATOM     35  CAJ 0BC d   1      24.117 -19.366 -17.276  0.00  0.00    -0.054 A 
ATOM     36  H12 0BC d   1      24.726 -19.133 -16.410  0.00  0.00     0.086 H 
BRANCH  30  37
ATOM     37  CBB 0BC d   1      21.793 -20.186 -20.594  0.00  0.00     0.073 A 
ATOM     38  CAH 0BC d   1      20.507 -20.567 -20.512  0.00  0.00    -0.015 A 
ATOM     39  SAU 0BC d   1      19.961 -20.755 -22.103  0.00  0.00    -0.092 SA
ATOM     40  H10 0BC d   1      19.930 -20.724 -19.602  0.00  0.00     0.098 H 
ATOM     41  CAG 0BC d   1      21.409 -20.340 -22.830  0.00  0.00     0.040 A 
ATOM     42  NAN 0BC d   1      22.279 -20.057 -21.847  0.00  0.00    -0.253 NA
ATOM     43  H9  0BC d   1      21.609 -20.306 -23.900  0.00  0.00     0.126 H 
ENDBRANCH  30  37
BRANCH  33  44
ATOM     44  CBE 0BC d   1      25.804 -18.544 -18.771  0.00  0.00     0.179 A 
ATOM     45  NAP 0BC d   1      26.637 -18.105 -17.832  0.00  0.00    -0.239 N 
ATOM     46  NAO 0BC d   1      27.659 -17.646 -18.444  0.00  0.00    -0.046 NA
ATOM     47  H17 0BC d   1      26.487 -18.130 -16.813  0.00  0.00     0.192 HD
ATOM     48  NAS 0BC d   1      27.481 -17.783 -19.759  0.00  0.00    -0.023 NA
ATOM     49  NAQ 0BC d   1      26.350 -18.318 -19.965  0.00  0.00    -0.108 NA
ENDBRANCH  33  44
ENDBRANCH   1  28
TORSDOF 9
