REMARK  7 active torsions:
REMARK  status: ('A' for Active; 'I' for Inactive)
REMARK    1  A    between atoms: CAK_10  and  CAA_1 
REMARK    2  A    between atoms: CAQ_11  and  CAB_2 
REMARK    3  A    between atoms: OAP_23  and  CAK_10 
REMARK    4  A    between atoms: CAR_12  and  CAQ_11 
REMARK    5  A    between atoms: CAV_16  and  CAS_13 
REMARK    6  A    between atoms: CAT_14  and  CAW_17 
REMARK    7  A    between atoms: CAU_15  and  OAP_23 
ROOT
ATOM      1  CAG YE5 d   1     -11.632 -11.604  -0.154  0.00  0.00    -0.067 A 
ATOM      2  CAH YE5 d   1     -12.594 -12.332  -0.855  0.00  0.00    -0.049 A 
ATOM      3  CAJ YE5 d   1     -11.147 -13.561   1.142  0.00  0.00    -0.056 A 
ATOM      4  CAR YE5 d   1     -10.894 -12.208   0.865  0.00  0.00     0.010 A 
ATOM      5  CAU YE5 d   1     -12.827 -13.676  -0.539  0.00  0.00     0.079 A 
ATOM      6  CAV YE5 d   1     -12.105 -14.327   0.458  0.00  0.00     0.008 A 
ATOM      7  H10 YE5 d   1     -11.457 -10.563  -0.402  0.00  0.00     0.085 H 
ATOM      8  H11 YE5 d   1     -13.162 -11.856  -1.646  0.00  0.00     0.087 H 
ATOM      9  H13 YE5 d   1     -10.572 -14.040   1.926  0.00  0.00     0.086 H 
ENDROOT
BRANCH   6  10
ATOM     10  CAS YE5 d   1     -12.289 -15.693   0.817  0.00  0.00    -0.022 A 
ATOM     11  CAE YE5 d   1     -11.207 -16.578   0.704  0.00  0.00    -0.072 A 
ATOM     12  CAD YE5 d   1     -11.327 -17.910   1.094  0.00  0.00    -0.081 A 
ATOM     13  H8  YE5 d   1     -10.264 -16.220   0.307  0.00  0.00     0.084 H 
ATOM     14  CAF YE5 d   1     -12.537 -18.370   1.602  0.00  0.00    -0.069 A 
ATOM     15  H7  YE5 d   1     -10.483 -18.584   1.002  0.00  0.00     0.083 H 
ATOM     16  CAT YE5 d   1     -13.648 -17.535   1.729  0.00  0.00     0.014 A 
ATOM     17  H9  YE5 d   1     -12.620 -19.407   1.908  0.00  0.00     0.085 H 
ATOM     18  CAI YE5 d   1     -13.503 -16.191   1.332  0.00  0.00    -0.058 A 
ATOM     19  H12 YE5 d   1     -14.350 -15.520   1.425  0.00  0.00     0.086 H 
BRANCH  16  20
ATOM     20  CAW YE5 d   1     -14.792 -18.048   2.270  0.00  0.00     0.179 A 
ATOM     21  NAM YE5 d   1     -15.828 -17.365   2.759  0.00  0.00    -0.239 N 
ATOM     22  NAL YE5 d   1     -16.696 -18.250   3.223  0.00  0.00    -0.046 NA
ATOM     23  H16 YE5 d   1     -15.933 -16.340   2.773  0.00  0.00     0.192 HD
ATOM     24  NAO YE5 d   1     -16.221 -19.417   3.052  0.00  0.00    -0.023 NA
ATOM     25  NAN YE5 d   1     -15.061 -19.336   2.483  0.00  0.00    -0.108 NA
ENDBRANCH  16  20
ENDBRANCH   6  10
BRANCH   5  26
ATOM     26  OAP YE5 d   1     -13.749 -14.446  -1.176  0.00  0.00    -0.351 OA
BRANCH  26  27
ATOM     27  CAK YE5 d   1     -14.672 -13.777  -2.044  0.00  0.00     0.023 C 
ATOM     28  H14 YE5 d   1     -15.145 -12.938  -1.513  0.00  0.00     0.074 H 
ATOM     29  H15 YE5 d   1     -14.145 -13.399  -2.932  0.00  0.00     0.074 H 
BRANCH  27  30
ATOM     30  CAA YE5 d   1     -15.734 -14.796  -2.462  0.00  0.00    -0.056 C 
ATOM     31  H1  YE5 d   1     -16.461 -14.314  -3.131  0.00  0.00     0.030 H 
ATOM     32  H2  YE5 d   1     -16.252 -15.173  -1.568  0.00  0.00     0.030 H 
ATOM     33  H3  YE5 d   1     -15.252 -15.634  -2.987  0.00  0.00     0.030 H 
ENDBRANCH  27  30
ENDBRANCH  26  27
ENDBRANCH   5  26
BRANCH   4  34
ATOM     34  CAQ YE5 d   1      -9.961 -11.438   1.595  0.00  0.00     0.155 C 
ATOM     35  OAC YE5 d   1      -9.728 -10.254   1.328  0.00  0.00    -0.293 OA
BRANCH  34  36
ATOM     36  CAB YE5 d   1      -9.379 -12.015   2.887  0.00  0.00    -0.017 C 
ATOM     37  H4  YE5 d   1      -8.675 -11.293   3.326  0.00  0.00     0.038 H 
ATOM     38  H5  YE5 d   1      -8.850 -12.954   2.664  0.00  0.00     0.038 H 
ATOM     39  H6  YE5 d   1     -10.193 -12.213   3.599  0.00  0.00     0.038 H 
ENDBRANCH  34  36
ENDBRANCH   4  34
TORSDOF 7
