REMARK  3 active torsions:
REMARK  status: ('A' for Active; 'I' for Inactive)
REMARK    1  A    between atoms: OAH_13  and  CAA_1 
REMARK    2  A    between atoms: CAK_6  and  CAJ_5 
REMARK    3  A    between atoms: CAJ_5  and  OAH_13 
ROOT
ATOM      1  CAD 4I8 d   1       2.209  22.533  74.980  0.00  0.00    -0.065 A 
ATOM      2  CAE 4I8 d   1       2.655  23.365  75.991  0.00  0.00    -0.053 A 
ATOM      3  CAF 4I8 d   1       0.021  22.649  75.928  0.00  0.00    -0.032 A 
ATOM      4  CAK 4I8 d   1       0.875  22.162  74.942  0.00  0.00     0.042 A 
ATOM      5  CAL 4I8 d   1       0.874  24.755  78.578  0.00  0.00     0.370 A 
ATOM      6  CAM 4I8 d   1       1.807  23.803  76.913  0.00  0.00     0.071 A 
ATOM      7  CAN 4I8 d   1       0.511  23.453  76.880  0.00  0.00     0.108 A 
ATOM      8  NAG 4I8 d   1       2.031  24.607  77.957  0.00  0.00    -0.300 N 
ATOM      9  OAC 4I8 d   1       0.711  25.433  79.590  0.00  0.00    -0.238 OA
ATOM     10  OAI 4I8 d   1      -0.096  24.048  77.931  0.00  0.00    -0.259 OA
ATOM     11  H4  4I8 d   1       2.898  22.174  74.224  0.00  0.00     0.085 H 
ATOM     12  H5  4I8 d   1       3.697  23.659  76.030  0.00  0.00     0.087 H 
ATOM     13  H6  4I8 d   1      -1.029  22.380  75.925  0.00  0.00     0.089 H 
ATOM     14  H7  4I8 d   1       2.905  25.017  78.218  0.00  0.00     0.171 HD
ENDROOT
BRANCH   4  15
ATOM     15  CAJ 4I8 d   1       0.456  21.337  73.895  0.00  0.00     0.293 C 
ATOM     16  OAB 4I8 d   1      -0.707  20.942  73.766  0.00  0.00    -0.259 OA
BRANCH  15  17
ATOM     17  OAH 4I8 d   1       1.445  21.129  72.978  0.00  0.00    -0.323 OA
BRANCH  17  18
ATOM     18  CAA 4I8 d   1       1.039  20.431  71.802  0.00  0.00     0.013 C 
ATOM     19  H1  4I8 d   1       1.901  20.314  71.129  0.00  0.00     0.067 H 
ATOM     20  H2  4I8 d   1       0.250  21.002  71.291  0.00  0.00     0.067 H 
ATOM     21  H3  4I8 d   1       0.653  19.439  72.079  0.00  0.00     0.067 H 
ENDBRANCH  17  18
ENDBRANCH  15  17
ENDBRANCH   4  15
TORSDOF 3
