REMARK  2 active torsions:
REMARK  status: ('A' for Active; 'I' for Inactive)
REMARK    1  A    between atoms: NAF_7  and  CAA_1 
REMARK    2  A    between atoms: CAH_4  and  CAJ_6 
REMARK       I    between atoms: CAH_4  and  NAF_7 
ROOT
ATOM      1  CAD PKU d   1     -18.452 -29.946 -14.761  0.00  0.00    -0.006 A 
ATOM      2  CAE PKU d   1     -17.807 -27.886 -14.326  0.00  0.00    -0.034 A 
ATOM      3  CAI PKU d   1     -17.419 -29.105 -14.764  0.00  0.00     0.028 A 
ATOM      4  CAJ PKU d   1     -19.131 -27.995 -14.063  0.00  0.00     0.101 A 
ATOM      5  NAG PKU d   1     -19.507 -29.261 -14.304  0.00  0.00    -0.360 N 
ATOM      6 BR   PKU d   1     -15.623 -29.662 -15.342  0.00  0.00    -0.050 Br
ATOM      7  H4  PKU d   1     -18.440 -30.990 -15.071  0.00  0.00     0.113 H 
ATOM      8  H5  PKU d   1     -17.184 -27.000 -14.209  0.00  0.00     0.089 H 
ATOM      9  H7  PKU d   1     -20.453 -29.643 -14.161  0.00  0.00     0.165 HD
ENDROOT
BRANCH   4  10
ATOM     10  CAH PKU d   1     -20.013 -27.072 -13.573  0.00  0.00     0.267 C 
ATOM     11  NAF PKU d   1     -19.501 -26.005 -12.938  0.00  0.00    -0.360 N 
ATOM     12  H6  PKU d   1     -18.514 -25.864 -12.864  0.00  0.00     0.162 HD
ATOM     13  OAB PKU d   1     -21.226 -27.254 -13.667  0.00  0.00    -0.266 OA
BRANCH  11  14
ATOM     14  CAA PKU d   1     -20.462 -25.052 -12.355  0.00  0.00    -0.018 C 
ATOM     15  H1  PKU d   1     -19.915 -24.231 -11.868  0.00  0.00     0.056 H 
ATOM     16  H2  PKU d   1     -21.086 -25.569 -11.611  0.00  0.00     0.056 H 
ATOM     17  H3  PKU d   1     -21.103 -24.644 -13.151  0.00  0.00     0.056 H 
ENDBRANCH  11  14
ENDBRANCH   4  10
TORSDOF 2
