REMARK  13 active torsions:
REMARK  status: ('A' for Active; 'I' for Inactive)
REMARK    1  A    between atoms: O1_1  and  C1_3 
REMARK    2  A    between atoms: C2_4  and  O1_1 
REMARK    3  A    between atoms: C4_6  and  N1_7 
REMARK    4  A    between atoms: N2_10  and  C7_11 
REMARK    5  A    between atoms: N3_17  and  C12_16 
REMARK    6  A    between atoms: C13_18  and  N3_17 
REMARK    7  A    between atoms: N5_26  and  C20_27 
REMARK    8  A    between atoms: C21_29  and  C22_30 
REMARK       I    between atoms: C22_30  and  N7_31 
REMARK    9  A    between atoms: N7_31  and  C23_32 
REMARK   10  A    between atoms: C24_33  and  C25_34 
REMARK   11  A    between atoms: C25_34  and  C26_35 
REMARK   12  A    between atoms: C30_39  and  C31_40 
REMARK   13  A    between atoms: C31_40  and  C32_41 
ROOT
ATOM      1  C13 C5N d   1      -1.004 -10.082 -18.616  0.00  0.00     0.727 A 
ATOM      2  N4  C5N d   1      -0.984  -9.988 -19.967  0.00  0.00    -0.074 NA
ATOM      3  C14 C5N d   1      -0.303 -10.906 -20.627  0.00  0.00     0.033 A 
ATOM      4  C15 C5N d   1       0.366 -11.995 -19.937  0.00  0.00     0.014 A 
ATOM      5  C16 C5N d   1       1.157 -13.060 -20.664  0.00  0.00    -0.068 C 
ATOM      6  C17 C5N d   1       1.547 -14.325 -19.903  0.00  0.00    -0.067 C 
ATOM      7  C18 C5N d   1       1.512 -14.167 -18.412  0.00  0.00     0.031 A 
ATOM      8  C19 C5N d   1       0.918 -13.082 -17.810  0.00  0.00     0.095 A 
ATOM      9  N5  C5N d   1       1.021 -13.259 -16.471  0.00  0.00    -0.270 N 
ATOM     10  N6  C5N d   1       1.681 -14.427 -16.216  0.00  0.00    -0.166 NA
ATOM     11  C21 C5N d   1       1.969 -14.966 -17.390  0.00  0.00     0.157 A 
ATOM     12  C33 C5N d   1       0.285 -12.009 -18.550  0.00  0.00     0.117 A 
ATOM     13  N8  C5N d   1      -0.406 -11.063 -17.891  0.00  0.00    -0.060 NA
ATOM     14  H20 C5N d   1      -0.242 -10.846 -21.708  0.00  0.00     0.117 H 
ATOM     15  H21 C5N d   1       1.441 -12.928 -21.702  0.00  0.00     0.085 H 
ATOM     16  H22 C5N d   1       1.823 -15.251 -20.395  0.00  0.00     0.085 H 
ENDROOT
BRANCH   1  17
ATOM     17  N3  C5N d   1      -1.686  -9.145 -17.903  0.00  0.00    -0.185 N 
ATOM     18  H19 C5N d   1      -2.213  -8.460 -18.464  0.00  0.00     0.184 HD
BRANCH  17  19
ATOM     19  C12 C5N d   1      -1.775  -8.977 -16.498  0.00  0.00     0.082 A 
ATOM     20  C2  C5N d   1      -1.619  -7.687 -15.966  0.00  0.00     0.097 A 
ATOM     21  C3  C5N d   1      -1.706  -7.509 -14.591  0.00  0.00    -0.023 A 
ATOM     22  C4  C5N d   1      -1.939  -8.588 -13.745  0.00  0.00     0.033 A 
ATOM     23  H4  C5N d   1      -1.591  -6.516 -14.172  0.00  0.00     0.091 H 
ATOM     24  C10 C5N d   1      -2.085  -9.866 -14.293  0.00  0.00    -0.055 A 
ATOM     25  C11 C5N d   1      -2.012 -10.060 -15.652  0.00  0.00    -0.052 A 
ATOM     26  H17 C5N d   1      -2.258 -10.713 -13.639  0.00  0.00     0.087 H 
ATOM     27  H18 C5N d   1      -2.139 -11.054 -16.066  0.00  0.00     0.087 H 
BRANCH  20  28
ATOM     28  O1  C5N d   1      -1.381  -6.679 -16.854  0.00  0.00    -0.354 OA
BRANCH  28  29
ATOM     29  C1  C5N d   1      -1.262  -5.346 -16.363  0.00  0.00     0.010 C 
ATOM     30  H1  C5N d   1      -1.073  -4.661 -17.203  0.00  0.00     0.066 H 
ATOM     31  H2  C5N d   1      -0.426  -5.291 -15.650  0.00  0.00     0.066 H 
ATOM     32  H3  C5N d   1      -2.195  -5.057 -15.858  0.00  0.00     0.066 H 
ENDBRANCH  28  29
ENDBRANCH  20  28
BRANCH  22  33
ATOM     33  N1  C5N d   1      -1.993  -8.382 -12.352  0.00  0.00    -0.378 N 
ATOM     34  C5  C5N d   1      -1.060  -7.439 -11.720  0.00  0.00     0.018 C 
ATOM     35  C6  C5N d   1      -0.611  -7.885 -10.347  0.00  0.00     0.098 C 
ATOM     36  H5  C5N d   1      -1.558  -6.463 -11.626  0.00  0.00     0.066 H 
ATOM     37  H6  C5N d   1      -0.173  -7.338 -12.363  0.00  0.00     0.066 H 
ATOM     38  N2  C5N d   1      -1.752  -8.276  -9.517  0.00  0.00    -0.072 N 
ATOM     39  H7  C5N d   1      -0.078  -7.057  -9.857  0.00  0.00     0.078 H 
ATOM     40  H8  C5N d   1       0.067  -8.745 -10.453  0.00  0.00     0.078 H 
ATOM     41  C8  C5N d   1      -2.427  -9.409 -10.153  0.00  0.00     0.098 C 
ATOM     42  H9  C5N d   1      -2.396  -7.502  -9.467  0.00  0.00     0.279 HD
ATOM     43  C9  C5N d   1      -3.000  -9.006 -11.490  0.00  0.00     0.018 C 
ATOM     44  H13 C5N d   1      -3.242  -9.756  -9.501  0.00  0.00     0.078 H 
ATOM     45  H14 C5N d   1      -1.703 -10.224 -10.301  0.00  0.00     0.078 H 
ATOM     46  H15 C5N d   1      -3.392  -9.902 -11.993  0.00  0.00     0.066 H 
ATOM     47  H16 C5N d   1      -3.819  -8.290 -11.325  0.00  0.00     0.066 H 
BRANCH  38  48
ATOM     48  C7  C5N d   1      -1.330  -8.609  -8.153  0.00  0.00     0.066 C 
ATOM     49  H10 C5N d   1      -2.209  -8.898  -7.558  0.00  0.00     0.068 H 
ATOM     50  H11 C5N d   1      -0.848  -7.733  -7.694  0.00  0.00     0.068 H 
ATOM     51  H12 C5N d   1      -0.617  -9.446  -8.184  0.00  0.00     0.068 H 
ENDBRANCH  38  48
ENDBRANCH  22  33
ENDBRANCH  17  19
ENDBRANCH   1  17
BRANCH   9  52
ATOM     52  C20 C5N d   1       0.567 -12.404 -15.387  0.00  0.00     0.003 C 
ATOM     53  H23 C5N d   1       0.822 -12.868 -14.423  0.00  0.00     0.059 H 
ATOM     54  H24 C5N d   1      -0.523 -12.274 -15.454  0.00  0.00     0.059 H 
ATOM     55  H25 C5N d   1       1.058 -11.423 -15.463  0.00  0.00     0.059 H 
ENDBRANCH   9  52
BRANCH  11  56
ATOM     56  C22 C5N d   1       2.686 -16.245 -17.464  0.00  0.00     0.277 C 
ATOM     57  O2  C5N d   1       3.143 -16.637 -18.537  0.00  0.00    -0.266 OA
ATOM     58  N7  C5N d   1       2.813 -16.924 -16.297  0.00  0.00    -0.321 N 
ATOM     59  H26 C5N d   1       2.370 -16.542 -15.486  0.00  0.00     0.169 HD
BRANCH  58  60
ATOM     60  C23 C5N d   1       3.536 -18.148 -16.146  0.00  0.00     0.047 A 
ATOM     61  C24 C5N d   1       2.862 -19.364 -16.304  0.00  0.00    -0.031 A 
ATOM     62  C27 C5N d   1       3.608 -20.539 -16.190  0.00  0.00    -0.075 A 
ATOM     63  C28 C5N d   1       4.964 -20.511 -15.948  0.00  0.00    -0.082 A 
ATOM     64  H32 C5N d   1       3.108 -21.495 -16.294  0.00  0.00     0.084 H 
ATOM     65  C29 C5N d   1       5.609 -19.302 -15.816  0.00  0.00    -0.075 A 
ATOM     66  H33 C5N d   1       5.521 -21.437 -15.862  0.00  0.00     0.083 H 
ATOM     67  C30 C5N d   1       4.917 -18.093 -15.927  0.00  0.00    -0.031 A 
ATOM     68  H34 C5N d   1       6.675 -19.288 -15.622  0.00  0.00     0.084 H 
BRANCH  61  69
ATOM     69  C25 C5N d   1       1.379 -19.440 -16.583  0.00  0.00    -0.042 C 
ATOM     70  H27 C5N d   1       1.168 -20.418 -17.041  0.00  0.00     0.039 H 
ATOM     71  H28 C5N d   1       1.124 -18.640 -17.293  0.00  0.00     0.039 H 
BRANCH  69  72
ATOM     72  C26 C5N d   1       0.494 -19.290 -15.374  0.00  0.00    -0.073 C 
ATOM     73  H29 C5N d   1      -0.560 -19.359 -15.680  0.00  0.00     0.028 H 
ATOM     74  H30 C5N d   1       0.676 -18.312 -14.905  0.00  0.00     0.028 H 
ATOM     75  H31 C5N d   1       0.720 -20.090 -14.653  0.00  0.00     0.028 H 
ENDBRANCH  69  72
ENDBRANCH  61  69
BRANCH  67  76
ATOM     76  C31 C5N d   1       5.661 -16.788 -15.779  0.00  0.00    -0.042 C 
ATOM     77  H35 C5N d   1       5.239 -16.068 -16.495  0.00  0.00     0.039 H 
ATOM     78  H36 C5N d   1       6.720 -16.966 -16.019  0.00  0.00     0.039 H 
BRANCH  76  79
ATOM     79  C32 C5N d   1       5.585 -16.184 -14.403  0.00  0.00    -0.073 C 
ATOM     80  H37 C5N d   1       6.151 -15.241 -14.385  0.00  0.00     0.028 H 
ATOM     81  H38 C5N d   1       6.015 -16.884 -13.671  0.00  0.00     0.028 H 
ATOM     82  H39 C5N d   1       4.534 -15.986 -14.147  0.00  0.00     0.028 H 
ENDBRANCH  76  79
ENDBRANCH  67  76
ENDBRANCH  58  60
ENDBRANCH  11  56
TORSDOF 13
