REMARK  3 active torsions:
REMARK  status: ('A' for Active; 'I' for Inactive)
REMARK    1  A    between atoms: C5_2  and  C6_3 
REMARK    2  A    between atoms: C8_5  and  C9_9 
REMARK    3  A    between atoms: C15_6  and  O16_18 
ROOT
ATOM      1  C4  Q9T d   1      13.833  30.172 -17.817  0.00  0.00    -0.051 A 
ATOM      2  C5  Q9T d   1      15.077  29.647 -17.421  0.00  0.00     0.036 A 
ATOM      3  C15 Q9T d   1      15.609  30.138 -16.204  0.00  0.00     0.096 A 
ATOM      4  C17 Q9T d   1      14.932  31.072 -15.412  0.00  0.00     0.046 A 
ATOM      5  C2  Q9T d   1      13.155  31.108 -17.039  0.00  0.00     0.013 A 
ATOM      6 BR3  Q9T d   1      11.508  31.775 -17.562  0.00  0.00    -0.051 Br
ATOM      7  C1  Q9T d   1      13.702  31.551 -15.843  0.00  0.00    -0.047 A 
ATOM      8 BR8  Q9T d   1      15.624  31.747 -13.765  0.00  0.00    -0.048 Br
ATOM      9  H1  Q9T d   1      13.392  29.840 -18.750  0.00  0.00     0.087 H 
ATOM     10  H3  Q9T d   1      13.165  32.276 -15.241  0.00  0.00     0.087 H 
ENDROOT
BRANCH   2  11
ATOM     11  C6  Q9T d   1      15.667  28.766 -18.267  0.00  0.00     0.116 A 
ATOM     12  C7  Q9T d   1      16.747  27.983 -18.126  0.00  0.00    -0.012 A 
ATOM     13  C8  Q9T d   1      16.893  27.339 -19.292  0.00  0.00     0.170 A 
ATOM     14  H2  Q9T d   1      17.377  27.890 -17.243  0.00  0.00     0.091 H 
ATOM     15  N13 Q9T d   1      15.960  27.695 -20.162  0.00  0.00    -0.123 NA
ATOM     16  O14 Q9T d   1      15.201  28.583 -19.552  0.00  0.00    -0.212 OA
BRANCH  13  17
ATOM     17  C9  Q9T d   1      17.972  26.322 -19.652  0.00  0.00     0.436 C 
ATOM     18  F12 Q9T d   1      19.070  26.584 -18.968  0.00  0.00    -0.164 F 
ATOM     19  F11 Q9T d   1      18.219  26.425 -20.993  0.00  0.00    -0.164 F 
ATOM     20  F10 Q9T d   1      17.555  25.089 -19.382  0.00  0.00    -0.164 F 
ENDBRANCH  13  17
ENDBRANCH   2  11
BRANCH   3  21
ATOM     21  O16 Q9T d   1      16.803  29.698 -15.740  0.00  0.00    -0.358 OA
ATOM     22  H4  Q9T d   1      17.396  30.434 -15.645  0.00  0.00     0.217 HD
ENDBRANCH   3  21
TORSDOF 3
