REMARK  2 active torsions:
REMARK  status: ('A' for Active; 'I' for Inactive)
REMARK    1  A    between atoms: C12_15  and  C6_3 
REMARK    2  A    between atoms: C13_6  and  C12_15 
ROOT
ATOM      1  C12 Q9P d   1       3.638  23.946 -18.239  0.00  0.00    -0.023 C 
ATOM      2  H5  Q9P d   1       4.192  24.265 -17.344  0.00  0.00     0.042 H 
ATOM      3  H6  Q9P d   1       2.583  23.780 -17.977  0.00  0.00     0.042 H 
ENDROOT
BRANCH   1   4
ATOM      4  C6  Q9P d   1       4.172  22.715 -18.653  0.00  0.00     0.083 A 
ATOM      5  C7  Q9P d   1       3.385  21.718 -19.282  0.00  0.00     0.272 A 
ATOM      6  O11 Q9P d   1       2.198  21.910 -19.564  0.00  0.00    -0.270 OA
ATOM      7  N8  Q9P d   1       3.976  20.548 -19.601  0.00  0.00    -0.024 N 
ATOM      8  C4  Q9P d   1       5.252  20.260 -19.340  0.00  0.00     0.754 A 
ATOM      9  N9  Q9P d   1       3.484  19.458 -20.212  0.00  0.00    -0.142 NA
ATOM     10  N3  Q9P d   1       6.012  21.169 -18.732  0.00  0.00    -0.052 NA
ATOM     11  N5  Q9P d   1       5.532  19.042 -19.776  0.00  0.00    -0.052 NA
ATOM     12  C2  Q9P d   1       5.512  22.363 -18.377  0.00  0.00     0.136 A 
ATOM     13 CL1  Q9P d   1       6.621  23.395 -17.616  0.00  0.00    -0.066 Cl
ATOM     14  C10 Q9P d   1       4.437  18.544 -20.311  0.00  0.00     0.126 A 
ATOM     15  H2  Q9P d   1       4.333  17.555 -20.756  0.00  0.00     0.150 H 
ATOM     16  H1  Q9P d   1       4.450  23.151 -19.624  0.00  0.00     0.066 H 
ENDBRANCH   1   4
BRANCH   1  17
ATOM     17  C13 Q9P d   1       3.686  25.016 -19.180  0.00  0.00    -0.057 A 
ATOM     18  C18 Q9P d   1       3.290  24.883 -20.519  0.00  0.00    -0.077 A 
ATOM     19  C17 Q9P d   1       3.336  25.964 -21.401  0.00  0.00    -0.082 A 
ATOM     20  H7  Q9P d   1       2.941  23.921 -20.876  0.00  0.00     0.084 H 
ATOM     21  C16 Q9P d   1       3.756  27.215 -20.966  0.00  0.00    -0.083 A 
ATOM     22  H4  Q9P d   1       3.041  25.826 -22.435  0.00  0.00     0.083 H 
ATOM     23  C15 Q9P d   1       4.129  27.371 -19.633  0.00  0.00    -0.082 A 
ATOM     24  H8  Q9P d   1       3.793  28.054 -21.651  0.00  0.00     0.083 H 
ATOM     25  C14 Q9P d   1       4.090  26.289 -18.756  0.00  0.00    -0.077 A 
ATOM     26  H3  Q9P d   1       4.452  28.342 -19.275  0.00  0.00     0.083 H 
ATOM     27  H9  Q9P d   1       4.379  26.435 -17.721  0.00  0.00     0.084 H 
ENDBRANCH   1  17
TORSDOF 2
