REMARK  2 active torsions:
REMARK  status: ('A' for Active; 'I' for Inactive)
REMARK    1  A    between atoms: C8_5  and  C9_14 
REMARK    2  A    between atoms: C9_14  and  C10_15 
ROOT
ATOM      1 CL17 6BC d   1       6.460  23.641 -17.395  0.00  0.00    -0.066 Cl
ATOM      2  C16 6BC d   1       5.490  22.617 -18.172  0.00  0.00     0.118 A 
ATOM      3  N18 6BC d   1       5.946  21.396 -18.462  0.00  0.00    -0.219 NA
ATOM      4  C4  6BC d   1       5.224  20.490 -19.105  0.00  0.00     0.176 A 
ATOM      5  C8  6BC d   1       4.197  22.960 -18.587  0.00  0.00     0.070 A 
ATOM      6  C6  6BC d   1       3.471  21.957 -19.233  0.00  0.00     0.191 A 
ATOM      7  O7  6BC d   1       2.250  22.248 -19.620  0.00  0.00    -0.174 OA
ATOM      8  N5  6BC d   1       4.005  20.781 -19.487  0.00  0.00    -0.192 N 
ATOM      9  N19 6BC d   1       3.496  19.772 -20.085  0.00  0.00    -0.175 NA
ATOM     10  C20 6BC d   1       4.378  18.809 -20.105  0.00  0.00     0.046 A 
ATOM     11  C1  6BC d   1       5.452  19.258 -19.496  0.00  0.00     0.111 A 
ATOM     12  C2  6BC d   1       6.660  18.485 -19.316  0.00  0.00     0.105 C 
ATOM     13  N3  6BC d   1       7.436  17.991 -19.205  0.00  0.00    -0.191 NA
ATOM     14  H1  6BC d   1       4.570  23.356 -19.543  0.00  0.00     0.064 H 
ATOM     15  H2  6BC d   1       4.248  17.821 -20.544  0.00  0.00     0.120 H 
ENDROOT
BRANCH   5  16
ATOM     16  C9  6BC d   1       3.624  24.207 -18.273  0.00  0.00    -0.025 C 
ATOM     17  H3  6BC d   1       4.098  24.553 -17.343  0.00  0.00     0.042 H 
ATOM     18  H4  6BC d   1       2.553  24.032 -18.095  0.00  0.00     0.042 H 
BRANCH  16  19
ATOM     19  C10 6BC d   1       3.718  25.239 -19.180  0.00  0.00    -0.057 A 
ATOM     20  C15 6BC d   1       3.282  25.131 -20.461  0.00  0.00    -0.077 A 
ATOM     21  C14 6BC d   1       3.391  26.203 -21.308  0.00  0.00    -0.082 A 
ATOM     22  H5  6BC d   1       2.850  24.201 -20.812  0.00  0.00     0.084 H 
ATOM     23  C13 6BC d   1       3.903  27.397 -20.910  0.00  0.00    -0.083 A 
ATOM     24  H6  6BC d   1       3.056  26.094 -22.333  0.00  0.00     0.083 H 
ATOM     25  C12 6BC d   1       4.329  27.521 -19.616  0.00  0.00    -0.082 A 
ATOM     26  H7  6BC d   1       3.972  28.230 -21.600  0.00  0.00     0.083 H 
ATOM     27  C11 6BC d   1       4.214  26.445 -18.785  0.00  0.00    -0.077 A 
ATOM     28  H8  6BC d   1       4.749  28.454 -19.259  0.00  0.00     0.083 H 
ATOM     29  H9  6BC d   1       4.534  26.555 -17.755  0.00  0.00     0.084 H 
ENDBRANCH  16  19
ENDBRANCH   5  16
TORSDOF 2
