REMARK  6 active torsions:
REMARK  status: ('A' for Active; 'I' for Inactive)
REMARK    1  A    between atoms: S15_2  and  C16_4 
REMARK    2  A    between atoms: S15_2  and  C1_7 
REMARK    3  A    between atoms: C16_4  and  C17_5 
REMARK    4  A    between atoms: C17_5  and  O18_6 
REMARK    5  A    between atoms: C4_12  and  S7_13 
REMARK    6  A    between atoms: S7_13  and  N10_15 
ROOT
ATOM      1  C1  V13 d   1      26.765   5.655  10.718  0.00  0.00     0.142 A 
ATOM      2  C6  V13 d   1      25.762   5.321  11.655  0.00  0.00     0.181 A 
ATOM      3  F11 V13 d   1      25.675   5.925  12.852  0.00  0.00    -0.201 F 
ATOM      4  C5  V13 d   1      24.759   4.380  11.399  0.00  0.00     0.182 A 
ATOM      5  F12 V13 d   1      23.889   4.124  12.375  0.00  0.00    -0.201 F 
ATOM      6  C4  V13 d   1      24.759   3.742  10.185  0.00  0.00     0.162 A 
ATOM      7  C3  V13 d   1      25.748   4.032   9.266  0.00  0.00     0.182 A 
ATOM      8  F13 V13 d   1      25.743   3.429   8.089  0.00  0.00    -0.201 F 
ATOM      9  C2  V13 d   1      26.694   5.022   9.492  0.00  0.00     0.181 A 
ATOM     10  F14 V13 d   1      27.557   5.251   8.468  0.00  0.00    -0.201 F 
ENDROOT
BRANCH   1  11
ATOM     11  S15 V13 d   1      28.176   6.782  10.900  0.00  0.00     0.183 S 
ATOM     12  O20 V13 d   1      29.506   5.951  10.633  0.00  0.00    -0.222 OA
ATOM     13  O19 V13 d   1      27.967   7.257  12.319  0.00  0.00    -0.222 OA
BRANCH  11  14
ATOM     14  C16 V13 d   1      28.271   8.136   9.794  0.00  0.00     0.053 C 
ATOM     15  H1  V13 d   1      27.660   8.955  10.201  0.00  0.00     0.059 H 
ATOM     16  H2  V13 d   1      27.859   7.817   8.825  0.00  0.00     0.059 H 
BRANCH  14  17
ATOM     17  C17 V13 d   1      29.675   8.663   9.561  0.00  0.00     0.029 C 
ATOM     18  H3  V13 d   1      29.765   9.034   8.529  0.00  0.00     0.075 H 
ATOM     19  H4  V13 d   1      30.405   7.857   9.726  0.00  0.00     0.075 H 
BRANCH  17  20
ATOM     20  O18 V13 d   1      29.915   9.698  10.451  0.00  0.00    -0.400 OA
ATOM     21  H5  V13 d   1      29.282  10.391  10.307  0.00  0.00     0.209 HD
ENDBRANCH  17  20
ENDBRANCH  14  17
ENDBRANCH  11  14
ENDBRANCH   1  11
BRANCH   6  22
ATOM     22  S7  V13 d   1      23.684   2.321   9.898  0.00  0.00     0.263 S 
ATOM     23  O9  V13 d   1      24.669   1.241   9.886  0.00  0.00    -0.201 OA
ATOM     24  O8  V13 d   1      23.039   2.576   8.621  0.00  0.00    -0.201 OA
BRANCH  22  25
ATOM     25  N10 V13 d   1      22.624   2.116  11.021  0.00  0.00    -0.324 N 
ATOM     26  H6  V13 d   1      21.975   1.357  10.964  0.00  0.00     0.169 HD
ATOM     27  H7  V13 d   1      22.592   2.743  11.799  0.00  0.00     0.169 HD
ENDBRANCH  22  25
ENDBRANCH   6  22
TORSDOF 6
