REMARK  10 active torsions:
REMARK  status: ('A' for Active; 'I' for Inactive)
REMARK    1  A    between atoms: CBD_24  and  CAA_1 
REMARK    2  A    between atoms: CBD_24  and  CAB_2 
REMARK    3  A    between atoms: NBF_27  and  CAC_3 
REMARK    4  A    between atoms: NBG_28  and  CAD_4 
REMARK    5  A    between atoms: CAV_16  and  CAS_15 
REMARK    6  A    between atoms: CAS_15  and  CBD_24 
REMARK    7  A    between atoms: NAT_25  and  CAW_17 
REMARK    8  A    between atoms: SBH_34  and  CAX_18 
REMARK    9  A    between atoms: CAY_19  and  NBE_26 
REMARK   10  A    between atoms: NAT_25  and  SBH_34 
ROOT
ATOM      1  CAM UWX d   1      22.133  -1.735   9.496  0.00  0.00    -0.026 A 
ATOM      2  CAN UWX d   1      20.861  -0.080   7.665  0.00  0.00    -0.027 A 
ATOM      3  CAW UWX d   1      22.816  -1.281   8.368  0.00  0.00     0.071 A 
ATOM      4  CAY UWX d   1      22.176  -0.462   7.443  0.00  0.00     0.060 A 
ATOM      5  CAZ UWX d   1      18.839  -1.375  10.991  0.00  0.00     0.316 A 
ATOM      6  CBA UWX d   1      18.218  -0.544  10.065  0.00  0.00     0.316 A 
ATOM      7  CBB UWX d   1      20.806  -1.344   9.716  0.00  0.00     0.066 A 
ATOM      8  CBC UWX d   1      20.174  -0.516   8.794  0.00  0.00     0.066 A 
ATOM      9  NBF UWX d   1      20.119  -1.757  10.804  0.00  0.00    -0.312 N 
ATOM     10  NBG UWX d   1      18.896  -0.130   8.990  0.00  0.00    -0.312 N 
ATOM     11  OAE UWX d   1      18.217  -1.758  11.985  0.00  0.00    -0.262 OA
ATOM     12  OAF UWX d   1      17.045  -0.176  10.204  0.00  0.00    -0.262 OA
ATOM     13  H17 UWX d   1      22.629  -2.390  10.203  0.00  0.00     0.090 H 
ATOM     14  H18 UWX d   1      20.363   0.566   6.951  0.00  0.00     0.090 H 
ENDROOT
BRANCH   3  15
ATOM     15  NAT UWX d   1      24.075  -1.610   8.056  0.00  0.00    -0.278 N 
ATOM     16  H30 UWX d   1      24.320  -1.751   7.097  0.00  0.00     0.179 HD
BRANCH  15  17
ATOM     17  SBH UWX d   1      25.237  -1.789   9.226  0.00  0.00     0.263 S 
ATOM     18  OAG UWX d   1      26.521  -2.256   8.539  0.00  0.00    -0.200 OA
ATOM     19  OAH UWX d   1      24.840  -2.808  10.296  0.00  0.00    -0.200 OA
BRANCH  17  20
ATOM     20  CAX UWX d   1      25.514  -0.272   9.955  0.00  0.00     0.079 A 
ATOM     21  CAK UWX d   1      25.897   0.810   9.169  0.00  0.00    -0.060 A 
ATOM     22  CAI UWX d   1      26.120   2.044   9.764  0.00  0.00    -0.075 A 
ATOM     23  H15 UWX d   1      26.020   0.690   8.099  0.00  0.00     0.085 H 
ATOM     24  CAV UWX d   1      25.972   2.206  11.140  0.00  0.00    -0.058 A 
ATOM     25  H13 UWX d   1      26.412   2.890   9.152  0.00  0.00     0.084 H 
ATOM     26  CAJ UWX d   1      25.595   1.116  11.924  0.00  0.00    -0.075 A 
ATOM     27  CAL UWX d   1      25.359  -0.119  11.325  0.00  0.00    -0.060 A 
ATOM     28  H14 UWX d   1      25.486   1.230  12.996  0.00  0.00     0.084 H 
ATOM     29  H16 UWX d   1      25.053  -0.964  11.931  0.00  0.00     0.085 H 
BRANCH  24  30
ATOM     30  CAS UWX d   1      26.222   3.449  11.737  0.00  0.00    -0.038 C 
ATOM     31  H27 UWX d   1      26.816   4.063  11.044  0.00  0.00     0.040 H 
ATOM     32  H28 UWX d   1      26.791   3.289  12.665  0.00  0.00     0.040 H 
BRANCH  30  33
ATOM     33  CBD UWX d   1      24.930   4.194  12.073  0.00  0.00    -0.057 C 
ATOM     34  H29 UWX d   1      24.190   3.484  12.472  0.00  0.00     0.039 H 
BRANCH  33  35
ATOM     35  CAA UWX d   1      24.373   4.862  10.813  0.00  0.00    -0.073 C 
ATOM     36  H1  UWX d   1      23.444   5.396  11.061  0.00  0.00     0.028 H 
ATOM     37  H2  UWX d   1      24.163   4.095  10.053  0.00  0.00     0.028 H 
ATOM     38  H3  UWX d   1      25.112   5.575  10.419  0.00  0.00     0.028 H 
ENDBRANCH  33  35
BRANCH  33  39
ATOM     39  CAB UWX d   1      25.224   5.272  13.117  0.00  0.00    -0.073 C 
ATOM     40  H4  UWX d   1      25.625   4.801  14.027  0.00  0.00     0.028 H 
ATOM     41  H5  UWX d   1      24.296   5.809  13.361  0.00  0.00     0.028 H 
ATOM     42  H6  UWX d   1      25.963   5.981  12.714  0.00  0.00     0.028 H 
ENDBRANCH  33  39
ENDBRANCH  30  33
ENDBRANCH  24  30
ENDBRANCH  17  20
ENDBRANCH  15  17
ENDBRANCH   3  15
BRANCH   4  43
ATOM     43  NBE UWX d   1      22.783   0.019   6.336  0.00  0.00    -0.375 N 
ATOM     44  CAQ UWX d   1      22.374  -0.476   5.013  0.00  0.00     0.015 C 
ATOM     45  CAO UWX d   1      23.297  -0.004   3.885  0.00  0.00     0.034 C 
ATOM     46  H23 UWX d   1      22.380  -1.576   5.033  0.00  0.00     0.067 H 
ATOM     47  H24 UWX d   1      21.355  -0.118   4.805  0.00  0.00     0.067 H 
ATOM     48  OAU UWX d   1      23.600   1.392   4.042  0.00  0.00    -0.388 OA
ATOM     49  H19 UWX d   1      22.798  -0.161   2.917  0.00  0.00     0.076 H 
ATOM     50  H20 UWX d   1      24.231  -0.584   3.914  0.00  0.00     0.076 H 
ATOM     51  CAP UWX d   1      24.438   1.493   5.186  0.00  0.00     0.034 C 
ATOM     52  CAR UWX d   1      23.608   1.235   6.449  0.00  0.00     0.015 C 
ATOM     53  H21 UWX d   1      25.244   0.747   5.118  0.00  0.00     0.076 H 
ATOM     54  H22 UWX d   1      24.875   2.502   5.233  0.00  0.00     0.076 H 
ATOM     55  H25 UWX d   1      22.946   2.097   6.620  0.00  0.00     0.067 H 
ATOM     56  H26 UWX d   1      24.291   1.121   7.304  0.00  0.00     0.067 H 
ENDBRANCH   4  43
BRANCH   9  57
ATOM     57  CAC UWX d   1      20.774  -2.641  11.800  0.00  0.00    -0.011 C 
ATOM     58  H7  UWX d   1      20.065  -2.870  12.609  0.00  0.00     0.057 H 
ATOM     59  H8  UWX d   1      21.655  -2.133  12.218  0.00  0.00     0.057 H 
ATOM     60  H9  UWX d   1      21.087  -3.575  11.311  0.00  0.00     0.057 H 
ENDBRANCH   9  57
BRANCH  10  61
ATOM     61  CAD UWX d   1      18.219   0.749   8.015  0.00  0.00    -0.011 C 
ATOM     62  H10 UWX d   1      17.191   0.947   8.352  0.00  0.00     0.057 H 
ATOM     63  H11 UWX d   1      18.194   0.256   7.032  0.00  0.00     0.057 H 
ATOM     64  H12 UWX d   1      18.768   1.699   7.934  0.00  0.00     0.057 H 
ENDBRANCH  10  61
TORSDOF 10
