REMARK  4 active torsions:
REMARK  status: ('A' for Active; 'I' for Inactive)
REMARK    1  A    between atoms: N2_16  and  C1_1 
REMARK       I    between atoms: C3_2  and  N2_16 
REMARK    2  A    between atoms: C5_17  and  C3_2 
REMARK    3  A    between atoms: C17_22  and  C19_11 
REMARK    4  A    between atoms: C6_18  and  C5_17 
REMARK       I    between atoms: N16_21  and  C17_22 
ROOT
ATOM      1  C7  ECV d   1       6.858  14.592  15.686  0.00  0.00     0.046 C 
ATOM      2  C9  ECV d   1       9.118  14.131  16.194  0.00  0.00     0.098 A 
ATOM      3  C10 ECV d   1      10.122  13.191  16.361  0.00  0.00    -0.011 A 
ATOM      4  C11 ECV d   1      11.329  13.620  16.869  0.00  0.00     0.119 A 
ATOM      5  C13 ECV d   1      11.546  14.945  17.194  0.00  0.00    -0.043 A 
ATOM      6  C14 ECV d   1      10.542  15.878  17.032  0.00  0.00    -0.051 A 
ATOM      7  C15 ECV d   1       9.311  15.466  16.542  0.00  0.00     0.071 A 
ATOM      8  C6  ECV d   1       7.300  15.980  15.290  0.00  0.00     0.049 C 
ATOM      9  O8  ECV d   1       7.925  13.641  15.639  0.00  0.00    -0.347 OA
ATOM     10  F12 ECV d   1      12.303  12.717  17.028  0.00  0.00    -0.206 F 
ATOM     11  N16 ECV d   1       8.257  16.394  16.318  0.00  0.00    -0.304 N 
ATOM     12  C17 ECV d   1       7.847  17.440  17.163  0.00  0.00     0.259 C 
ATOM     13  O18 ECV d   1       7.173  18.373  16.749  0.00  0.00    -0.267 OA
ATOM     14  H4  ECV d   1       6.064  14.265  14.998  0.00  0.00     0.078 H 
ATOM     15  H5  ECV d   1       6.463  14.627  16.712  0.00  0.00     0.078 H 
ATOM     16  H6  ECV d   1       9.963  12.151  16.100  0.00  0.00     0.092 H 
ATOM     17  H7  ECV d   1      12.511  15.254  17.579  0.00  0.00     0.088 H 
ATOM     18  H8  ECV d   1      10.713  16.918  17.284  0.00  0.00     0.087 H 
ATOM     19  H16 ECV d   1       6.438  16.662  15.337  0.00  0.00     0.077 H 
ENDROOT
BRANCH   8  20
ATOM     20  C5  ECV d   1       7.790  15.983  13.849  0.00  0.00     0.030 C 
ATOM     21  H14 ECV d   1       8.823  15.604  13.849  0.00  0.00     0.050 H 
ATOM     22  H15 ECV d   1       7.147  15.296  13.279  0.00  0.00     0.050 H 
BRANCH  20  23
ATOM     23  C3  ECV d   1       7.792  17.302  13.131  0.00  0.00     0.219 C 
ATOM     24  O4  ECV d   1       7.762  17.368  11.910  0.00  0.00    -0.274 OA
ATOM     25  N2  ECV d   1       7.900  18.372  13.950  0.00  0.00    -0.365 N 
ATOM     26  H13 ECV d   1       8.147  18.233  14.909  0.00  0.00     0.161 HD
BRANCH  25  27
ATOM     27  C1  ECV d   1       7.668  19.696  13.472  0.00  0.00    -0.018 C 
ATOM     28  H1  ECV d   1       7.808  20.413  14.295  0.00  0.00     0.056 H 
ATOM     29  H2  ECV d   1       6.639  19.773  13.089  0.00  0.00     0.056 H 
ATOM     30  H3  ECV d   1       8.378  19.924  12.663  0.00  0.00     0.056 H 
ENDBRANCH  25  27
ENDBRANCH  20  23
ENDBRANCH   8  20
BRANCH  12  31
ATOM     31  C19 ECV d   1       8.196  17.526  18.607  0.00  0.00     0.034 A 
ATOM     32  C20 ECV d   1       8.231  16.443  19.473  0.00  0.00    -0.065 A 
ATOM     33  C21 ECV d   1       8.575  16.637  20.807  0.00  0.00    -0.048 A 
ATOM     34  H9  ECV d   1       7.991  15.450  19.112  0.00  0.00     0.085 H 
ATOM     35  C22 ECV d   1       8.874  17.917  21.252  0.00  0.00     0.096 A 
ATOM     36  H10 ECV d   1       8.609  15.797  21.492  0.00  0.00     0.087 H 
ATOM     37  O23 ECV d   1       9.178  18.142  22.588  0.00  0.00    -0.340 OA
ATOM     38  C28 ECV d   1       8.808  18.991  20.390  0.00  0.00     0.069 A 
ATOM     39  C24 ECV d   1      10.070  19.254  22.763  0.00  0.00     0.100 C 
ATOM     40  C25 ECV d   1       9.552  20.509  22.125  0.00  0.00     0.246 C 
ATOM     41  H11 ECV d   1      11.041  19.003  22.311  0.00  0.00     0.089 H 
ATOM     42  H12 ECV d   1      10.203  19.434  23.840  0.00  0.00     0.089 H 
ATOM     43  O26 ECV d   1       9.609  21.608  22.669  0.00  0.00    -0.271 OA
ATOM     44  N27 ECV d   1       9.073  20.282  20.859  0.00  0.00    -0.323 N 
ATOM     45  H17 ECV d   1       8.909  21.062  20.255  0.00  0.00     0.169 HD
ATOM     46  C29 ECV d   1       8.492  18.798  19.063  0.00  0.00    -0.039 A 
ATOM     47  H18 ECV d   1       8.475  19.639  18.379  0.00  0.00     0.088 H 
ENDBRANCH  12  31
TORSDOF 4
