REMARK  5 active torsions:
REMARK  status: ('A' for Active; 'I' for Inactive)
REMARK    1  A    between atoms: C9_5  and  C15_10 
REMARK    2  A    between atoms: C15_10  and  O28_16 
REMARK    3  A    between atoms: C6_21  and  C27_15 
REMARK    4  A    between atoms: O28_16  and  C30_17 
REMARK    5  A    between atoms: C5_20  and  C29_30 
ROOT
ATOM      1  C1  YNU d   1       8.150  17.668  16.750  0.00  0.00     0.103 A 
ATOM      2  C3  YNU d   1       8.588  19.057  17.196  0.00  0.00     0.072 A 
ATOM      3  C7  YNU d   1       7.486  16.069  14.923  0.00  0.00    -0.064 C 
ATOM      4  C8  YNU d   1       8.649  16.921  19.129  0.00  0.00    -0.037 C 
ATOM      5  C9  YNU d   1       8.443  15.171  17.120  0.00  0.00     0.041 C 
ATOM      6  C10 YNU d   1       9.036  18.352  21.040  0.00  0.00     0.079 C 
ATOM      7  C11 YNU d   1       8.992  19.370  18.649  0.00  0.00    -0.028 C 
ATOM      8  C12 YNU d   1       7.564  14.855  15.866  0.00  0.00    -0.031 C 
ATOM      9  C14 YNU d   1       7.750  15.887  13.618  0.00  0.00    -0.036 C 
ATOM     10  C16 YNU d   1       8.933  20.283  22.325  0.00  0.00     0.259 C 
ATOM     11  C19 YNU d   1       9.065  16.890  21.495  0.00  0.00    -0.034 C 
ATOM     12  C20 YNU d   1       7.722  17.011  12.651  0.00  0.00     0.149 C 
ATOM     13  C21 YNU d   1      10.476  18.903  21.129  0.00  0.00    -0.026 C 
ATOM     14  O2  YNU d   1       9.496  18.163  16.542  0.00  0.00    -0.368 OA
ATOM     15  C4  YNU d   1       8.025  16.521  17.776  0.00  0.00    -0.004 C 
ATOM     16  C5  YNU d   1       7.302  17.476  15.469  0.00  0.00     0.014 C 
ATOM     17  C6  YNU d   1       8.368  18.398  19.640  0.00  0.00    -0.006 C 
ATOM     18  O13 YNU d   1       8.324  19.126  22.021  0.00  0.00    -0.309 OA
ATOM     19  C17 YNU d   1       8.430  16.051  20.376  0.00  0.00    -0.058 C 
ATOM     20  C18 YNU d   1       7.790  18.562  14.492  0.00  0.00    -0.045 C 
ATOM     21  O23 YNU d   1       8.439  21.200  22.915  0.00  0.00    -0.265 OA
ATOM     22  O24 YNU d   1       8.029  16.918  11.492  0.00  0.00    -0.293 OA
ATOM     23  C25 YNU d   1      10.344  20.270  21.846  0.00  0.00     0.018 C 
ATOM     24  C26 YNU d   1       7.265  18.349  13.095  0.00  0.00    -0.005 C 
ATOM     25  H1  YNU d   1       8.168  19.948  16.706  0.00  0.00     0.088 H 
ATOM     26  H2  YNU d   1       9.729  16.870  18.926  0.00  0.00     0.042 H 
ATOM     27  H3  YNU d   1       8.244  14.384  17.862  0.00  0.00     0.056 H 
ATOM     28  H4  YNU d   1       8.662  20.390  18.897  0.00  0.00     0.038 H 
ATOM     29  H5  YNU d   1      10.087  19.308  18.734  0.00  0.00     0.038 H 
ATOM     30  H6  YNU d   1       8.005  14.006  15.323  0.00  0.00     0.041 H 
ATOM     31  H7  YNU d   1       6.549  14.591  16.197  0.00  0.00     0.041 H 
ATOM     32  H8  YNU d   1       7.991  14.887  13.261  0.00  0.00     0.089 H 
ATOM     33  H9  YNU d   1       8.490  16.774  22.425  0.00  0.00     0.037 H 
ATOM     34  H10 YNU d   1      10.103  16.569  21.663  0.00  0.00     0.037 H 
ATOM     35  H11 YNU d   1      10.902  19.035  20.123  0.00  0.00     0.038 H 
ATOM     36  H12 YNU d   1      11.114  18.222  21.711  0.00  0.00     0.038 H 
ATOM     37  H19 YNU d   1       6.951  16.410  17.988  0.00  0.00     0.046 H 
ATOM     38  H20 YNU d   1       8.935  15.079  20.274  0.00  0.00     0.033 H 
ATOM     39  H21 YNU d   1       7.358  15.889  20.562  0.00  0.00     0.033 H 
ATOM     40  H22 YNU d   1       8.889  18.545  14.464  0.00  0.00     0.035 H 
ATOM     41  H23 YNU d   1       7.448  19.543  14.853  0.00  0.00     0.035 H 
ATOM     42  H24 YNU d   1      11.046  20.339  22.690  0.00  0.00     0.048 H 
ATOM     43  H25 YNU d   1      10.529  21.099  21.147  0.00  0.00     0.048 H 
ATOM     44  H26 YNU d   1       6.166  18.390  13.096  0.00  0.00     0.044 H 
ATOM     45  H27 YNU d   1       7.660  19.124  12.422  0.00  0.00     0.044 H 
ENDROOT
BRANCH  17  46
ATOM     46  C27 YNU d   1       6.859  18.725  19.765  0.00  0.00    -0.066 C 
ATOM     47  H13 YNU d   1       6.391  18.031  20.479  0.00  0.00     0.028 H 
ATOM     48  H14 YNU d   1       6.378  18.619  18.781  0.00  0.00     0.028 H 
ATOM     49  H15 YNU d   1       6.736  19.758  20.124  0.00  0.00     0.028 H 
ENDBRANCH  17  46
BRANCH   5  50
ATOM     50  C15 YNU d   1       9.933  15.091  16.784  0.00  0.00     0.263 C 
ATOM     51  O22 YNU d   1      10.294  15.198  15.648  0.00  0.00    -0.265 OA
BRANCH  50  52
ATOM     52  O28 YNU d   1      10.891  14.900  17.713  0.00  0.00    -0.326 OA
BRANCH  52  53
ATOM     53  C30 YNU d   1      11.996  13.980  17.423  0.00  0.00     0.013 C 
ATOM     54  H16 YNU d   1      12.680  13.945  18.284  0.00  0.00     0.067 H 
ATOM     55  H17 YNU d   1      12.542  14.331  16.535  0.00  0.00     0.067 H 
ATOM     56  H18 YNU d   1      11.595  12.974  17.233  0.00  0.00     0.067 H 
ENDBRANCH  52  53
ENDBRANCH  50  52
ENDBRANCH   5  50
BRANCH  16  57
ATOM     57  C29 YNU d   1       5.804  17.670  15.777  0.00  0.00    -0.062 C 
ATOM     58  H28 YNU d   1       5.469  16.889  16.475  0.00  0.00     0.029 H 
ATOM     59  H29 YNU d   1       5.226  17.600  14.844  0.00  0.00     0.029 H 
ATOM     60  H30 YNU d   1       5.648  18.659  16.232  0.00  0.00     0.029 H 
ENDBRANCH  16  57
TORSDOF 5
