REMARK  6 active torsions:
REMARK  status: ('A' for Active; 'I' for Inactive)
REMARK    1  A    between atoms: C1_1  and  O1_7 
REMARK    2  A    between atoms: C2_2  and  O2_8 
REMARK    3  A    between atoms: C3_3  and  O3_9 
REMARK    4  A    between atoms: C4_4  and  O4_10 
REMARK    5  A    between atoms: C5_5  and  C6_6 
REMARK    6  A    between atoms: O1_7  and  CM_12 
ROOT
ATOM      1  C1  MFU d   1      -2.494  15.310  -8.752  0.00  0.00     0.158 C 
ATOM      2  C2  MFU d   1      -2.699  15.583 -10.252  0.00  0.00     0.110 C 
ATOM      3  C3  MFU d   1      -4.058  16.228 -10.544  0.00  0.00     0.092 C 
ATOM      4  C4  MFU d   1      -4.317  17.437  -9.638  0.00  0.00     0.087 C 
ATOM      5  C5  MFU d   1      -4.119  17.013  -8.175  0.00  0.00     0.065 C 
ATOM      6  O5  MFU d   1      -2.794  16.504  -8.008  0.00  0.00    -0.351 OA
ATOM      7  H1  MFU d   1      -1.435  15.059  -8.593  0.00  0.00     0.133 H 
ATOM      8  H2  MFU d   1      -1.914  16.280 -10.581  0.00  0.00     0.094 H 
ATOM      9  H3  MFU d   1      -4.846  15.480 -10.374  0.00  0.00     0.091 H 
ATOM     10  H4  MFU d   1      -5.364  17.751  -9.758  0.00  0.00     0.091 H 
ATOM     11  H5  MFU d   1      -4.841  16.213  -7.957  0.00  0.00     0.086 H 
ENDROOT
BRANCH   1  12
ATOM     12  O1  MFU d   1      -3.285  14.197  -8.281  0.00  0.00    -0.363 OA
BRANCH  12  13
ATOM     13  CM  MFU d   1      -2.824  13.668  -7.030  0.00  0.00     0.007 C 
ATOM     14  H12 MFU d   1      -3.466  12.827  -6.729  0.00  0.00     0.066 H 
ATOM     15  H13 MFU d   1      -2.865  14.454  -6.262  0.00  0.00     0.066 H 
ATOM     16  H14 MFU d   1      -1.787  13.317  -7.140  0.00  0.00     0.066 H 
ENDBRANCH  12  13
ENDBRANCH   1  12
BRANCH   2  17
ATOM     17  O2  MFU d   1      -2.563  14.364 -10.995  0.00  0.00    -0.388 OA
ATOM     18  H9  MFU d   1      -3.255  13.763 -10.744  0.00  0.00     0.210 HD
ENDBRANCH   2  17
BRANCH   3  19
ATOM     19  O3  MFU d   1      -4.107  16.664 -11.905  0.00  0.00    -0.390 OA
ATOM     20  H10 MFU d   1      -3.441  17.326 -12.048  0.00  0.00     0.210 HD
ENDBRANCH   3  19
BRANCH   5  21
ATOM     21  C6  MFU d   1      -4.331  18.132  -7.155  0.00  0.00    -0.050 C 
ATOM     22  H6  MFU d   1      -4.169  17.739  -6.141  0.00  0.00     0.031 H 
ATOM     23  H7  MFU d   1      -5.358  18.516  -7.240  0.00  0.00     0.031 H 
ATOM     24  H8  MFU d   1      -3.618  18.946  -7.351  0.00  0.00     0.031 H 
ENDBRANCH   5  21
BRANCH   4  25
ATOM     25  O4  MFU d   1      -3.477  18.539 -10.053  0.00  0.00    -0.390 OA
ATOM     26  H11 MFU d   1      -3.664  19.299  -9.514  0.00  0.00     0.210 HD
ENDBRANCH   4  25
TORSDOF 6
