REMARK  3 active torsions:
REMARK  status: ('A' for Active; 'I' for Inactive)
REMARK    1  A    between atoms: C1_1  and  C2_4 
REMARK    2  A    between atoms: C2_4  and  C3_5 
REMARK    3  A    between atoms: C3_5  and  C4_6 
ROOT
ATOM      1  C2  SIN d   1      47.692 -67.047  40.555  0.00  0.00     0.025 C 
ATOM      2  H1  SIN d   1      47.840 -66.139  39.953  0.00  0.00     0.049 H 
ATOM      3  H2  SIN d   1      46.663 -67.067  40.942  0.00  0.00     0.049 H 
ENDROOT
BRANCH   1   4
ATOM      4  C1  SIN d   1      48.643 -66.990  41.739  0.00  0.00     0.173 C 
ATOM      5  O1  SIN d   1      49.023 -65.866  42.158  0.00  0.00    -0.648 OA
ATOM      6  O2  SIN d   1      49.036 -68.030  42.335  0.00  0.00    -0.648 OA
ENDBRANCH   1   4
BRANCH   1   7
ATOM      7  C3  SIN d   1      47.881 -68.255  39.647  0.00  0.00     0.025 C 
ATOM      8  H3  SIN d   1      46.980 -68.883  39.709  0.00  0.00     0.049 H 
ATOM      9  H4  SIN d   1      48.751 -68.826  40.002  0.00  0.00     0.049 H 
BRANCH   7  10
ATOM     10  C4  SIN d   1      48.111 -67.879  38.186  0.00  0.00     0.173 C 
ATOM     11  O3  SIN d   1      47.828 -68.704  37.270  0.00  0.00    -0.648 OA
ATOM     12  O4  SIN d   1      48.609 -66.765  37.864  0.00  0.00    -0.648 OA
ENDBRANCH   7  10
ENDBRANCH   1   7
TORSDOF 3
