REMARK  6 active torsions:
REMARK  status: ('A' for Active; 'I' for Inactive)
REMARK    1  A    between atoms: C10_3  and  S1_4 
REMARK    2  A    between atoms: S1_4  and  N2_7 
REMARK    3  A    between atoms: C13_10  and  C16_11 
REMARK       I    between atoms: C16_11  and  N1_13 
REMARK    4  A    between atoms: C3_18  and  O5_19 
REMARK    5  A    between atoms: C2_20  and  O4_21 
REMARK    6  A    between atoms: C7_24  and  C18_25 
ROOT
ATOM      1  C16 8F2 d   1      -5.140   5.473  12.714  0.00  0.00     0.254 C 
ATOM      2  O3  8F2 d   1      -6.264   5.806  12.382  0.00  0.00    -0.267 OA
ATOM      3  N1  8F2 d   1      -3.988   6.015  12.303  0.00  0.00    -0.335 N 
ATOM      4  C8  8F2 d   1      -3.856   6.847  11.098  0.00  0.00     0.003 C 
ATOM      5  C9  8F2 d   1      -3.245   6.013   9.984  0.00  0.00    -0.025 C 
ATOM      6  C5  8F2 d   1      -1.967   5.359  10.420  0.00  0.00    -0.045 A 
ATOM      7  C4  8F2 d   1      -1.011   4.961   9.494  0.00  0.00    -0.042 A 
ATOM      8  C3  8F2 d   1       0.157   4.309   9.874  0.00  0.00     0.099 A 
ATOM      9  C2  8F2 d   1       0.367   4.041  11.221  0.00  0.00     0.099 A 
ATOM     10  C1  8F2 d   1      -0.586   4.424  12.159  0.00  0.00    -0.039 A 
ATOM     11  C6  8F2 d   1      -1.742   5.090  11.769  0.00  0.00    -0.022 A 
ATOM     12  C7  8F2 d   1      -2.691   5.574  12.882  0.00  0.00     0.066 C 
ATOM     13  H7  8F2 d   1      -3.205   7.707  11.313  0.00  0.00     0.065 H 
ATOM     14  H8  8F2 d   1      -4.848   7.206  10.788  0.00  0.00     0.065 H 
ATOM     15  H9  8F2 d   1      -3.036   6.665   9.123  0.00  0.00     0.042 H 
ATOM     16  H10 8F2 d   1      -3.962   5.233   9.688  0.00  0.00     0.042 H 
ATOM     17  H11 8F2 d   1      -1.181   5.165   8.443  0.00  0.00     0.088 H 
ATOM     18  H14 8F2 d   1      -0.425   4.200  13.207  0.00  0.00     0.088 H 
ATOM     19  H15 8F2 d   1      -2.863   4.747  13.587  0.00  0.00     0.088 H 
ENDROOT
BRANCH   1  20
ATOM     20  C13 8F2 d   1      -5.245   4.415  13.777  0.00  0.00     0.032 A 
ATOM     21  C12 8F2 d   1      -4.523   3.240  13.614  0.00  0.00    -0.066 A 
ATOM     22  C11 8F2 d   1      -4.656   2.187  14.516  0.00  0.00    -0.059 A 
ATOM     23  H1  8F2 d   1      -3.846   3.141  12.773  0.00  0.00     0.085 H 
ATOM     24  C10 8F2 d   1      -5.535   2.324  15.585  0.00  0.00     0.079 A 
ATOM     25  H2  8F2 d   1      -4.084   1.276  14.387  0.00  0.00     0.085 H 
ATOM     26  C15 8F2 d   1      -6.248   3.503  15.765  0.00  0.00    -0.059 A 
ATOM     27  C14 8F2 d   1      -6.092   4.554  14.868  0.00  0.00    -0.066 A 
ATOM     28  H5  8F2 d   1      -6.926   3.603  16.605  0.00  0.00     0.085 H 
ATOM     29  H6  8F2 d   1      -6.632   5.482  15.021  0.00  0.00     0.085 H 
BRANCH  24  30
ATOM     30  S1  8F2 d   1      -5.921   0.961  16.667  0.00  0.00     0.256 S 
ATOM     31  O1  8F2 d   1      -7.350   0.883  16.669  0.00  0.00    -0.201 OA
ATOM     32  O2  8F2 d   1      -5.260   1.170  17.919  0.00  0.00    -0.201 OA
BRANCH  30  33
ATOM     33  N2  8F2 d   1      -5.377  -0.396  16.011  0.00  0.00    -0.324 N 
ATOM     34  H3  8F2 d   1      -5.507  -1.267  16.484  0.00  0.00     0.169 HD
ATOM     35  H4  8F2 d   1      -4.908  -0.372  15.128  0.00  0.00     0.169 HD
ENDBRANCH  30  33
ENDBRANCH  24  30
ENDBRANCH   1  20
BRANCH  12  36
ATOM     36  C18 8F2 d   1      -2.100   6.768  13.630  0.00  0.00    -0.031 A 
ATOM     37  C17 8F2 d   1      -2.545   7.065  14.933  0.00  0.00    -0.074 A 
ATOM     38  C22 8F2 d   1      -2.060   8.169  15.623  0.00  0.00    -0.082 A 
ATOM     39  H16 8F2 d   1      -3.278   6.421  15.405  0.00  0.00     0.084 H 
ATOM     40  C21 8F2 d   1      -1.122   8.999  15.043  0.00  0.00    -0.083 A 
ATOM     41  H17 8F2 d   1      -2.421   8.380  16.623  0.00  0.00     0.083 H 
ATOM     42  C20 8F2 d   1      -0.680   8.732  13.764  0.00  0.00    -0.082 A 
ATOM     43  H18 8F2 d   1      -0.736   9.853  15.588  0.00  0.00     0.083 H 
ATOM     44  C19 8F2 d   1      -1.169   7.627  13.058  0.00  0.00    -0.074 A 
ATOM     45  H19 8F2 d   1       0.052   9.384  13.302  0.00  0.00     0.083 H 
ATOM     46  H20 8F2 d   1      -0.817   7.438  12.050  0.00  0.00     0.084 H 
ENDBRANCH  12  36
BRANCH   9  47
ATOM     47  O4  8F2 d   1       1.578   3.495  11.556  0.00  0.00    -0.358 OA
ATOM     48  H13 8F2 d   1       1.612   3.355  12.495  0.00  0.00     0.217 HD
ENDBRANCH   9  47
BRANCH   8  49
ATOM     49  O5  8F2 d   1       1.135   3.933   8.992  0.00  0.00    -0.358 OA
ATOM     50  H12 8F2 d   1       1.839   3.505   9.465  0.00  0.00     0.217 HD
ENDBRANCH   8  49
TORSDOF 6
