REMARK  6 active torsions:
REMARK  status: ('A' for Active; 'I' for Inactive)
REMARK    1  A    between atoms: C10_3  and  S1_4 
REMARK    2  A    between atoms: S1_4  and  N2_7 
REMARK    3  A    between atoms: C13_10  and  C16_11 
REMARK       I    between atoms: C16_11  and  N1_13 
REMARK    4  A    between atoms: C3_18  and  O5_19 
REMARK    5  A    between atoms: C2_20  and  O4_21 
REMARK    6  A    between atoms: C7_24  and  C18_25 
ROOT
ATOM      1  C16 8F3 d   1      -4.035   5.387  13.233  0.00  0.00     0.254 C 
ATOM      2  O3  8F3 d   1      -4.916   6.162  12.896  0.00  0.00    -0.267 OA
ATOM      3  N1  8F3 d   1      -2.727   5.500  12.987  0.00  0.00    -0.335 N 
ATOM      4  C8  8F3 d   1      -1.651   4.616  13.463  0.00  0.00     0.003 C 
ATOM      5  C9  8F3 d   1      -1.019   3.898  12.279  0.00  0.00    -0.025 C 
ATOM      6  C5  8F3 d   1      -0.799   4.801  11.098  0.00  0.00    -0.045 A 
ATOM      7  C4  8F3 d   1      -0.057   4.367  10.006  0.00  0.00    -0.042 A 
ATOM      8  C3  8F3 d   1       0.082   5.137   8.854  0.00  0.00     0.099 A 
ATOM      9  C2  8F3 d   1      -0.538   6.381   8.795  0.00  0.00     0.099 A 
ATOM     10  C1  8F3 d   1      -1.263   6.841   9.886  0.00  0.00    -0.039 A 
ATOM     11  C6  8F3 d   1      -1.385   6.065  11.035  0.00  0.00    -0.022 A 
ATOM     12  C7  8F3 d   1      -2.271   6.643  12.151  0.00  0.00     0.066 C 
ATOM     13  H7  8F3 d   1      -2.068   3.875  14.161  0.00  0.00     0.065 H 
ATOM     14  H8  8F3 d   1      -0.886   5.215  13.979  0.00  0.00     0.065 H 
ATOM     15  H9  8F3 d   1      -1.681   3.075  11.973  0.00  0.00     0.042 H 
ATOM     16  H10 8F3 d   1      -0.048   3.489  12.594  0.00  0.00     0.042 H 
ATOM     17  H11 8F3 d   1       0.429   3.399  10.052  0.00  0.00     0.088 H 
ATOM     18  H14 8F3 d   1      -1.739   7.814   9.842  0.00  0.00     0.088 H 
ATOM     19  H15 8F3 d   1      -3.131   7.161  11.702  0.00  0.00     0.088 H 
ENDROOT
BRANCH   1  20
ATOM     20  C13 8F3 d   1      -4.632   4.277  14.049  0.00  0.00     0.032 A 
ATOM     21  C12 8F3 d   1      -4.226   2.974  13.782  0.00  0.00    -0.066 A 
ATOM     22  C11 8F3 d   1      -4.665   1.929  14.589  0.00  0.00    -0.059 A 
ATOM     23  H1  8F3 d   1      -3.567   2.772  12.945  0.00  0.00     0.085 H 
ATOM     24  C10 8F3 d   1      -5.506   2.220  15.658  0.00  0.00     0.079 A 
ATOM     25  H2  8F3 d   1      -4.358   0.909  14.389  0.00  0.00     0.085 H 
ATOM     26  C15 8F3 d   1      -5.961   3.512  15.889  0.00  0.00    -0.059 A 
ATOM     27  C14 8F3 d   1      -5.544   4.546  15.060  0.00  0.00    -0.066 A 
ATOM     28  H5  8F3 d   1      -6.638   3.712  16.712  0.00  0.00     0.085 H 
ATOM     29  H6  8F3 d   1      -5.926   5.551  15.201  0.00  0.00     0.085 H 
BRANCH  24  30
ATOM     30  S1  8F3 d   1      -6.028   0.959  16.791  0.00  0.00     0.256 S 
ATOM     31  O1  8F3 d   1      -7.459   0.957  16.733  0.00  0.00    -0.201 OA
ATOM     32  O2  8F3 d   1      -5.437   1.202  18.072  0.00  0.00    -0.201 OA
BRANCH  30  33
ATOM     33  N2  8F3 d   1      -5.527  -0.444  16.225  0.00  0.00    -0.324 N 
ATOM     34  H3  8F3 d   1      -5.725  -1.286  16.728  0.00  0.00     0.169 HD
ATOM     35  H4  8F3 d   1      -5.014  -0.483  15.367  0.00  0.00     0.169 HD
ENDBRANCH  30  33
ENDBRANCH  24  30
ENDBRANCH   1  20
BRANCH  12  36
ATOM     36  C18 8F3 d   1      -1.522   7.609  13.077  0.00  0.00    -0.031 A 
ATOM     37  C17 8F3 d   1      -0.257   8.111  12.707  0.00  0.00    -0.074 A 
ATOM     38  C22 8F3 d   1       0.454   8.944  13.567  0.00  0.00    -0.082 A 
ATOM     39  H16 8F3 d   1       0.166   7.846  11.745  0.00  0.00     0.084 H 
ATOM     40  C21 8F3 d   1      -0.075   9.298  14.792  0.00  0.00    -0.083 A 
ATOM     41  H17 8F3 d   1       1.429   9.317  13.273  0.00  0.00     0.083 H 
ATOM     42  C20 8F3 d   1      -1.300   8.796  15.181  0.00  0.00    -0.082 A 
ATOM     43  H18 8F3 d   1       0.470   9.968  15.446  0.00  0.00     0.083 H 
ATOM     44  C19 8F3 d   1      -2.019   7.943  14.331  0.00  0.00    -0.074 A 
ATOM     45  H19 8F3 d   1      -1.709   9.062  16.149  0.00  0.00     0.083 H 
ATOM     46  H20 8F3 d   1      -2.972   7.540  14.655  0.00  0.00     0.084 H 
ENDBRANCH  12  36
BRANCH   9  47
ATOM     47  O4  8F3 d   1      -0.553   7.029   7.588  0.00  0.00    -0.358 OA
ATOM     48  H13 8F3 d   1       0.340   7.181   7.300  0.00  0.00     0.217 HD
ENDBRANCH   9  47
BRANCH   8  49
ATOM     49  O5  8F3 d   1       0.722   4.691   7.728  0.00  0.00    -0.358 OA
ATOM     50  H12 8F3 d   1       0.703   5.370   7.064  0.00  0.00     0.217 HD
ENDBRANCH   8  49
TORSDOF 6
