REMARK  10 active torsions:
REMARK  status: ('A' for Active; 'I' for Inactive)
REMARK    1  A    between atoms: O17_1  and  C12_2 
REMARK    2  A    between atoms: C11_3  and  O16_4 
REMARK    3  A    between atoms: C10_5  and  O15_6 
REMARK    4  A    between atoms: C9_7  and  C13_8 
REMARK    5  A    between atoms: C13_8  and  O1_21 
REMARK    6  A    between atoms: C7_10  and  S1_11 
REMARK    7  A    between atoms: S1_11  and  C6_12 
REMARK    8  A    between atoms: C6_12  and  C5_13 
REMARK    9  A    between atoms: C3_17  and  O3_18 
REMARK   10  A    between atoms: C4_19  and  O4_20 
ROOT
ATOM      1  S1  7K2 d   1       2.901 -31.406  -8.026  0.00  0.00    -0.134 SA
ENDROOT
BRANCH   1   2
ATOM      2  C7  7K2 d   1       4.010 -32.127  -6.809  0.00  0.00     0.110 C 
ATOM      3  C12 7K2 d   1       3.209 -32.828  -5.676  0.00  0.00     0.096 C 
ATOM      4  C11 7K2 d   1       2.442 -31.833  -4.833  0.00  0.00     0.090 C 
ATOM      5  H2  7K2 d   1       2.493 -33.523  -6.138  0.00  0.00     0.092 H 
ATOM      6  C10 7K2 d   1       3.398 -30.789  -4.260  0.00  0.00     0.089 C 
ATOM      7  H3  7K2 d   1       1.738 -31.305  -5.493  0.00  0.00     0.091 H 
ATOM      8  C9  7K2 d   1       4.269 -30.197  -5.383  0.00  0.00     0.087 C 
ATOM      9  H5  7K2 d   1       4.044 -31.270  -3.510  0.00  0.00     0.091 H 
ATOM     10  O8  7K2 d   1       4.918 -31.183  -6.216  0.00  0.00    -0.363 OA
ATOM     11  H7  7K2 d   1       3.578 -29.651  -6.042  0.00  0.00     0.090 H 
ATOM     12  H10 7K2 d   1       4.612 -32.888  -7.327  0.00  0.00     0.104 H 
BRANCH   3  13
ATOM     13  O17 7K2 d   1       4.102 -33.575  -4.819  0.00  0.00    -0.389 OA
ATOM     14  H1  7K2 d   1       4.707 -32.977  -4.396  0.00  0.00     0.210 HD
ENDBRANCH   3  13
BRANCH   4  15
ATOM     15  O16 7K2 d   1       1.656 -32.510  -3.826  0.00  0.00    -0.390 OA
ATOM     16  H4  7K2 d   1       1.184 -31.867  -3.310  0.00  0.00     0.210 HD
ENDBRANCH   4  15
BRANCH   6  17
ATOM     17  O15 7K2 d   1       2.668 -29.711  -3.639  0.00  0.00    -0.390 OA
ATOM     18  H6  7K2 d   1       2.110 -29.294  -4.285  0.00  0.00     0.210 HD
ENDBRANCH   6  17
BRANCH   8  19
ATOM     19  C13 7K2 d   1       5.270 -29.168  -4.862  0.00  0.00     0.043 C 
ATOM     20  H8  7K2 d   1       4.733 -28.326  -4.401  0.00  0.00     0.078 H 
ATOM     21  H9  7K2 d   1       5.890 -28.798  -5.692  0.00  0.00     0.078 H 
BRANCH  19  22
ATOM     22  O1  7K2 d   1       6.093 -29.805  -3.891  0.00  0.00    -0.398 OA
ATOM     23  H24 7K2 d   1       6.551 -30.533  -4.294  0.00  0.00     0.209 HD
ENDBRANCH  19  22
ENDBRANCH   8  19
ENDBRANCH   1   2
BRANCH   1  24
ATOM     24  C6  7K2 d   1       4.016 -30.744  -9.245  0.00  0.00    -0.014 C 
ATOM     25  H11 7K2 d   1       5.014 -30.666  -8.790  0.00  0.00     0.049 H 
ATOM     26  H12 7K2 d   1       3.662 -29.741  -9.525  0.00  0.00     0.049 H 
BRANCH  24  27
ATOM     27  C5  7K2 d   1       4.137 -31.584 -10.525  0.00  0.00     0.005 C 
ATOM     28  C1  7K2 d   1       2.828 -31.448 -11.317  0.00  0.00     0.088 C 
ATOM     29  N   7K2 d   1       2.967 -32.240 -12.558  0.00  0.00    -0.072 N 
ATOM     30  H14 7K2 d   1       2.649 -30.392 -11.565  0.00  0.00     0.076 H 
ATOM     31  H15 7K2 d   1       1.988 -31.832 -10.720  0.00  0.00     0.076 H 
ATOM     32  C2  7K2 d   1       4.093 -31.905 -13.496  0.00  0.00     0.107 C 
ATOM     33  H16 7K2 d   1       2.108 -32.138 -13.075  0.00  0.00     0.277 HD
ATOM     34  H17 7K2 d   1       3.083 -33.204 -12.286  0.00  0.00     0.277 HD
ATOM     35  C3  7K2 d   1       5.389 -32.003 -12.699  0.00  0.00     0.084 C 
ATOM     36  H18 7K2 d   1       3.967 -30.884 -13.886  0.00  0.00     0.079 H 
ATOM     37  H19 7K2 d   1       4.111 -32.618 -14.333  0.00  0.00     0.079 H 
ATOM     38  C4  7K2 d   1       5.320 -31.161 -11.416  0.00  0.00     0.067 C 
ATOM     39  H20 7K2 d   1       5.534 -33.050 -12.394  0.00  0.00     0.089 H 
ATOM     40  H22 7K2 d   1       5.182 -30.106 -11.696  0.00  0.00     0.087 H 
ATOM     41  H13 7K2 d   1       4.280 -32.636 -10.239  0.00  0.00     0.047 H 
BRANCH  35  42
ATOM     42  O3  7K2 d   1       6.483 -31.639 -13.595  0.00  0.00    -0.391 OA
ATOM     43  H21 7K2 d   1       6.500 -32.238 -14.332  0.00  0.00     0.210 HD
ENDBRANCH  35  42
BRANCH  38  44
ATOM     44  O4  7K2 d   1       6.591 -31.296 -10.682  0.00  0.00    -0.393 OA
ATOM     45  H23 7K2 d   1       6.553 -30.777  -9.887  0.00  0.00     0.210 HD
ENDBRANCH  38  44
ENDBRANCH  24  27
ENDBRANCH   1  24
TORSDOF 10
