REMARK  3 active torsions:
REMARK  status: ('A' for Active; 'I' for Inactive)
REMARK    1  A    between atoms: C6_12  and  N1_18 
REMARK    2  A    between atoms: N_16  and  C12_17 
REMARK       I    between atoms: N1_18  and  C7_19 
REMARK    3  A    between atoms: C7_19  and  C8_21 
ROOT
ATOM      1  O2  8FK d   1       2.705 -25.744 -32.929  0.00  0.00    -0.267 OA
ATOM      2  C   8FK d   1       2.427 -26.049 -31.789  0.00  0.00     0.259 C 
ATOM      3  C13 8FK d   1       3.442 -25.685 -30.750  0.00  0.00     0.049 A 
ATOM      4  C16 8FK d   1       3.991 -24.411 -30.797  0.00  0.00    -0.066 A 
ATOM      5  C17 8FK d   1       4.954 -24.037 -29.871  0.00  0.00    -0.082 A 
ATOM      6  C18 8FK d   1       5.389 -24.936 -28.901  0.00  0.00    -0.082 A 
ATOM      7  C15 8FK d   1       4.872 -26.228 -28.823  0.00  0.00    -0.065 A 
ATOM      8  C14 8FK d   1       3.917 -26.654 -29.739  0.00  0.00     0.021 A 
ATOM      9  S   8FK d   1       3.233 -28.210 -29.677  0.00  0.00    -0.087 SA
ATOM     10  C2  8FK d   1       1.621 -27.812 -29.306  0.00  0.00     0.034 A 
ATOM     11  C3  8FK d   1       1.033 -28.133 -28.078  0.00  0.00    -0.038 A 
ATOM     12  C6  8FK d   1      -0.296 -27.748 -27.817  0.00  0.00     0.036 A 
ATOM     13  C5  8FK d   1      -1.031 -27.045 -28.759  0.00  0.00    -0.055 A 
ATOM     14  C4  8FK d   1      -0.489 -26.698 -29.973  0.00  0.00    -0.053 A 
ATOM     15  C1  8FK d   1       0.818 -27.031 -30.281  0.00  0.00     0.054 A 
ATOM     16  N   8FK d   1       1.285 -26.685 -31.552  0.00  0.00    -0.317 N 
ATOM     17  H1  8FK d   1       3.667 -23.709 -31.557  0.00  0.00     0.085 H 
ATOM     18  H2  8FK d   1       5.371 -23.037 -29.903  0.00  0.00     0.083 H 
ATOM     19  H3  8FK d   1       6.146 -24.624 -28.191  0.00  0.00     0.083 H 
ATOM     20  H4  8FK d   1       5.215 -26.902 -28.047  0.00  0.00     0.085 H 
ATOM     21  H5  8FK d   1       1.599 -28.676 -27.330  0.00  0.00     0.089 H 
ATOM     22  H6  8FK d   1      -2.053 -26.764 -28.533  0.00  0.00     0.087 H 
ATOM     23  H7  8FK d   1      -1.091 -26.159 -30.696  0.00  0.00     0.087 H 
ENDROOT
BRANCH  12  24
ATOM     24  N1  8FK d   1      -1.010 -28.041 -26.701  0.00  0.00    -0.325 N 
ATOM     25  C7  8FK d   1      -0.624 -28.881 -25.753  0.00  0.00     0.251 C 
ATOM     26  O1  8FK d   1       0.440 -29.472 -25.728  0.00  0.00    -0.270 OA
ATOM     27  H11 8FK d   1      -1.894 -27.588 -26.586  0.00  0.00     0.169 HD
BRANCH  25  28
ATOM     28  C8  8FK d   1      -1.594 -29.087 -24.633  0.00  0.00     0.115 C 
ATOM     29  C10 8FK d   1      -1.878 -27.763 -23.948  0.00  0.00    -0.031 C 
ATOM     30  C11 8FK d   1      -0.605 -27.544 -23.147  0.00  0.00    -0.042 C 
ATOM     31  H13 8FK d   1      -2.757 -27.833 -23.291  0.00  0.00     0.037 H 
ATOM     32  H14 8FK d   1      -2.032 -26.958 -24.682  0.00  0.00     0.037 H 
ATOM     33  C9  8FK d   1       0.025 -28.931 -23.031  0.00  0.00     0.021 C 
ATOM     34  H15 8FK d   1      -0.838 -27.140 -22.151  0.00  0.00     0.036 H 
ATOM     35  H16 8FK d   1       0.071 -26.854 -23.674  0.00  0.00     0.036 H 
ATOM     36  O   8FK d   1      -0.906 -29.836 -23.640  0.00  0.00    -0.376 OA
ATOM     37  H17 8FK d   1       0.179 -29.194 -21.974  0.00  0.00     0.074 H 
ATOM     38  H18 8FK d   1       0.989 -28.959 -23.561  0.00  0.00     0.074 H 
ATOM     39  H12 8FK d   1      -2.514 -29.580 -24.980  0.00  0.00     0.098 H 
ENDBRANCH  25  28
ENDBRANCH  12  24
BRANCH  16  40
ATOM     40  C12 8FK d   1       0.431 -27.150 -32.645  0.00  0.00    -0.011 C 
ATOM     41  H8  8FK d   1       0.865 -26.839 -33.607  0.00  0.00     0.057 H 
ATOM     42  H9  8FK d   1      -0.573 -26.713 -32.537  0.00  0.00     0.057 H 
ATOM     43  H10 8FK d   1       0.359 -28.247 -32.613  0.00  0.00     0.057 H 
ENDBRANCH  16  40
TORSDOF 3
