REMARK  6 active torsions:
REMARK  status: ('A' for Active; 'I' for Inactive)
REMARK    1  A    between atoms: C2_2  and  C3_25 
REMARK    2  A    between atoms: C7_5  and  C8_6 
REMARK    3  A    between atoms: N2_20  and  C14_11 
REMARK    4  A    between atoms: C19_15  and  C20_16 
REMARK    5  A    between atoms: C13_18  and  O_17 
REMARK    6  A    between atoms: C_19  and  N2_20 
ROOT
ATOM      1  C1  8HZ d   1      59.306   7.258  33.479  0.00  0.00     0.142 A 
ATOM      2  C2  8HZ d   1      58.990   5.812  33.614  0.00  0.00    -0.015 A 
ATOM      3  C5  8HZ d   1      60.835   5.357  32.169  0.00  0.00    -0.067 A 
ATOM      4  C6  8HZ d   1      59.780   4.894  32.941  0.00  0.00    -0.072 A 
ATOM      5  C7  8HZ d   1      59.308   9.461  33.658  0.00  0.00     0.114 A 
ATOM      6  C   8HZ d   1      60.390   8.967  32.790  0.00  0.00     0.144 A 
ATOM      7  N1  8HZ d   1      58.681   8.332  34.037  0.00  0.00    -0.226 NA
ATOM      8  N   8HZ d   1      60.351   7.633  32.707  0.00  0.00    -0.290 N 
ATOM      9  C4  8HZ d   1      61.098   6.721  32.066  0.00  0.00    -0.012 A 
ATOM     10  H1  8HZ d   1      61.465   4.646  31.637  0.00  0.00     0.085 H 
ATOM     11  H2  8HZ d   1      59.576   3.827  33.017  0.00  0.00     0.084 H 
ATOM     12  H16 8HZ d   1      61.931   7.056  31.450  0.00  0.00     0.112 H 
ENDROOT
BRANCH   6  13
ATOM     13  N2  8HZ d   1      61.282   9.779  32.161  0.00  0.00    -0.340 N 
ATOM     14  H14 8HZ d   1      60.916  10.534  31.563  0.00  0.00     0.167 HD
BRANCH  13  15
ATOM     15  C14 8HZ d   1      62.632   9.648  32.279  0.00  0.00     0.033 A 
ATOM     16  C15 8HZ d   1      63.460  10.338  31.402  0.00  0.00    -0.057 A 
ATOM     17  C16 8HZ d   1      64.843  10.218  31.497  0.00  0.00    -0.075 A 
ATOM     18  H7  8HZ d   1      63.026  10.974  30.639  0.00  0.00     0.086 H 
ATOM     19  C19 8HZ d   1      65.402   9.405  32.474  0.00  0.00    -0.062 A 
ATOM     20  H15 8HZ d   1      65.483  10.758  30.809  0.00  0.00     0.084 H 
ATOM     21  C18 8HZ d   1      64.581   8.710  33.354  0.00  0.00    -0.075 A 
ATOM     22  C17 8HZ d   1      63.200   8.838  33.261  0.00  0.00    -0.057 A 
ATOM     23  H9  8HZ d   1      65.017   8.069  34.112  0.00  0.00     0.084 H 
ATOM     24  H8  8HZ d   1      62.561   8.305  33.956  0.00  0.00     0.086 H 
BRANCH  19  25
ATOM     25  C20 8HZ d   1      66.900   9.278  32.569  0.00  0.00    -0.051 C 
ATOM     26  H10 8HZ d   1      67.371   9.899  31.793  0.00  0.00     0.033 H 
ATOM     27  H11 8HZ d   1      67.189   8.227  32.422  0.00  0.00     0.033 H 
ATOM     28  H12 8HZ d   1      67.234   9.615  33.561  0.00  0.00     0.033 H 
ENDBRANCH  19  25
ENDBRANCH  13  15
ENDBRANCH   6  13
BRANCH   5  29
ATOM     29  C8  8HZ d   1      58.917  10.843  34.038  0.00  0.00    -0.003 A 
ATOM     30  C9  8HZ d   1      57.563  11.112  34.170  0.00  0.00    -0.068 A 
ATOM     31  C10 8HZ d   1      57.131  12.383  34.518  0.00  0.00    -0.050 A 
ATOM     32  H3  8HZ d   1      56.838  10.324  34.000  0.00  0.00     0.085 H 
ATOM     33  C13 8HZ d   1      58.065  13.387  34.733  0.00  0.00     0.065 A 
ATOM     34  H4  8HZ d   1      56.072  12.591  34.621  0.00  0.00     0.087 H 
ATOM     35  C12 8HZ d   1      59.424  13.117  34.599  0.00  0.00    -0.050 A 
ATOM     36  C11 8HZ d   1      59.859  11.841  34.249  0.00  0.00    -0.068 A 
ATOM     37  H6  8HZ d   1      60.149  13.905  34.768  0.00  0.00     0.087 H 
ATOM     38  H5  8HZ d   1      60.917  11.630  34.143  0.00  0.00     0.085 H 
BRANCH  33  39
ATOM     39  O   8HZ d   1      57.628  14.632  35.073  0.00  0.00    -0.361 OA
ATOM     40  H13 8HZ d   1      56.679  14.632  35.118  0.00  0.00     0.217 HD
ENDBRANCH  33  39
ENDBRANCH   5  29
BRANCH   2  41
ATOM     41  C3  8HZ d   1      57.833   5.360  34.464  0.00  0.00    -0.048 C 
ATOM     42  H17 8HZ d   1      57.339   6.237  34.908  0.00  0.00     0.033 H 
ATOM     43  H18 8HZ d   1      58.201   4.702  35.265  0.00  0.00     0.033 H 
ATOM     44  H19 8HZ d   1      57.113   4.810  33.840  0.00  0.00     0.033 H 
ENDBRANCH   2  41
TORSDOF 6
