REMARK  5 active torsions:
REMARK  status: ('A' for Active; 'I' for Inactive)
REMARK    1  A    between atoms: C7_9  and  C4_3 
REMARK    2  A    between atoms: C1_8  and  S1_17 
REMARK    3  A    between atoms: C13_15  and  C10_12 
REMARK    4  A    between atoms: C13_15  and  N13_18 
REMARK    5  A    between atoms: S1_17  and  N20_22 
ROOT
ATOM      1  C7  8GH d   1      -2.960   5.488  14.101  0.00  0.00    -0.026 A 
ATOM      2  C8  8GH d   1      -3.091   6.738  14.681  0.00  0.00    -0.072 A 
ATOM      3  C9  8GH d   1      -2.285   7.790  14.279  0.00  0.00    -0.074 A 
ATOM      4  C10 8GH d   1      -1.336   7.618  13.281  0.00  0.00    -0.038 A 
ATOM      5  C11 8GH d   1      -1.197   6.365  12.707  0.00  0.00    -0.074 A 
ATOM      6  C12 8GH d   1      -1.985   5.311  13.125  0.00  0.00    -0.072 A 
ATOM      7  H7  8GH d   1      -3.831   6.895  15.457  0.00  0.00     0.084 H 
ATOM      8  H8  8GH d   1      -2.397   8.760  14.750  0.00  0.00     0.084 H 
ATOM      9  H9  8GH d   1      -0.464   6.211  11.924  0.00  0.00     0.084 H 
ATOM     10  H10 8GH d   1      -1.841   4.330  12.686  0.00  0.00     0.084 H 
ENDROOT
BRANCH   1  11
ATOM     11  C4  8GH d   1      -3.735   4.332  14.589  0.00  0.00    -0.026 A 
ATOM     12  C3  8GH d   1      -3.058   3.168  14.930  0.00  0.00    -0.071 A 
ATOM     13  C2  8GH d   1      -3.699   2.103  15.550  0.00  0.00    -0.059 A 
ATOM     14  H2  8GH d   1      -2.000   3.089  14.706  0.00  0.00     0.084 H 
ATOM     15  C1  8GH d   1      -5.057   2.173  15.822  0.00  0.00     0.079 A 
ATOM     16  H1  8GH d   1      -3.137   1.216  15.821  0.00  0.00     0.085 H 
ATOM     17  C6  8GH d   1      -5.776   3.303  15.446  0.00  0.00    -0.059 A 
ATOM     18  C5  8GH d   1      -5.122   4.375  14.840  0.00  0.00    -0.071 A 
ATOM     19  H4  8GH d   1      -6.844   3.350  15.624  0.00  0.00     0.085 H 
ATOM     20  H3  8GH d   1      -5.688   5.255  14.557  0.00  0.00     0.084 H 
BRANCH  15  21
ATOM     21  S1  8GH d   1      -5.857   0.851  16.727  0.00  0.00     0.256 S 
ATOM     22  O18 8GH d   1      -5.420  -0.487  16.132  0.00  0.00    -0.201 OA
ATOM     23  O19 8GH d   1      -5.486   1.010  18.114  0.00  0.00    -0.201 OA
BRANCH  21  24
ATOM     24  N20 8GH d   1      -7.338   1.048  16.522  0.00  0.00    -0.324 N 
ATOM     25  H14 8GH d   1      -7.989   0.416  16.943  0.00  0.00     0.169 HD
ATOM     26  H15 8GH d   1      -7.669   1.810  15.966  0.00  0.00     0.169 HD
ENDBRANCH  21  24
ENDBRANCH  15  21
ENDBRANCH   1  11
BRANCH   4  27
ATOM     27  C13 8GH d   1      -0.485   8.792  12.833  0.00  0.00     0.040 C 
ATOM     28  H11 8GH d   1      -0.009   8.553  11.871  0.00  0.00     0.074 H 
ATOM     29  H12 8GH d   1       0.291   8.991  13.587  0.00  0.00     0.074 H 
BRANCH  27  30
ATOM     30  N13 8GH d   1      -1.343   9.996  12.676  0.00  0.00    -0.277 N 
ATOM     31  C17 8GH d   1      -2.279  10.184  11.716  0.00  0.00     0.000 A 
ATOM     32  C16 8GH d   1      -2.777  11.452  11.883  0.00  0.00    -0.048 A 
ATOM     33  H5  8GH d   1      -2.580   9.465  10.955  0.00  0.00     0.114 H 
ATOM     34  C15 8GH d   1      -2.089  11.961  12.986  0.00  0.00     0.023 A 
ATOM     35  H6  8GH d   1      -3.540  11.951  11.287  0.00  0.00     0.087 H 
ATOM     36  N14 8GH d   1      -1.223  11.081  13.490  0.00  0.00    -0.185 NA
ATOM     37  H13 8GH d   1      -2.242  12.961  13.388  0.00  0.00     0.117 H 
ENDBRANCH  27  30
ENDBRANCH   4  27
TORSDOF 5
