REMARK  3 active torsions:
REMARK  status: ('A' for Active; 'I' for Inactive)
REMARK    1  A    between atoms: S1_1  and  N3_4 
REMARK    2  A    between atoms: C4_5  and  S1_1 
REMARK    3  A    between atoms: C81_19  and  C7_8 
ROOT
ATOM      1  C4  8GE d   1      -5.253   2.246  15.932  0.00  0.00     0.079 A 
ATOM      2  C5  8GE d   1      -6.018   3.369  15.559  0.00  0.00    -0.059 A 
ATOM      3  C6  8GE d   1      -5.387   4.485  15.020  0.00  0.00    -0.069 A 
ATOM      4  C7  8GE d   1      -4.016   4.514  14.845  0.00  0.00    -0.009 A 
ATOM      5  C8  8GE d   1      -3.286   3.395  15.150  0.00  0.00    -0.069 A 
ATOM      6  C9  8GE d   1      -3.879   2.278  15.723  0.00  0.00    -0.059 A 
ATOM      7  H3  8GE d   1      -7.094   3.363  15.692  0.00  0.00     0.085 H 
ATOM      8  H4  8GE d   1      -5.980   5.346  14.732  0.00  0.00     0.085 H 
ATOM      9  H5  8GE d   1      -2.223   3.382  14.939  0.00  0.00     0.085 H 
ATOM     10  H6  8GE d   1      -3.269   1.429  16.008  0.00  0.00     0.085 H 
ENDROOT
BRANCH   4  11
ATOM     11  C81 8GE d   1      -3.297   5.685  14.410  0.00  0.00     0.043 A 
ATOM     12  C91 8GE d   1      -2.126   5.630  13.736  0.00  0.00    -0.044 A 
ATOM     13  C51 8GE d   1      -1.633   6.959  13.564  0.00  0.00    -0.007 A 
ATOM     14  H10 8GE d   1      -1.639   4.722  13.383  0.00  0.00     0.088 H 
ATOM     15  C41 8GE d   1      -0.488   7.465  12.951  0.00  0.00    -0.071 A 
ATOM     16  C61 8GE d   1      -2.563   7.815  14.145  0.00  0.00     0.043 A 
ATOM     17  C3  8GE d   1      -0.280   8.845  12.959  0.00  0.00    -0.082 A 
ATOM     18  H9  8GE d   1       0.226   6.801  12.478  0.00  0.00     0.084 H 
ATOM     19  C2  8GE d   1      -1.233   9.709  13.513  0.00  0.00    -0.081 A 
ATOM     20  H7  8GE d   1       0.629   9.253  12.532  0.00  0.00     0.083 H 
ATOM     21  C1  8GE d   1      -2.390   9.223  14.110  0.00  0.00    -0.056 A 
ATOM     22  H8  8GE d   1      -1.065  10.779  13.475  0.00  0.00     0.083 H 
ATOM     23  H11 8GE d   1      -3.131   9.893  14.532  0.00  0.00     0.086 H 
ATOM     24  N7  8GE d   1      -3.621   7.017  14.685  0.00  0.00    -0.355 N 
ATOM     25  H12 8GE d   1      -4.458   7.357  15.180  0.00  0.00     0.166 HD
ENDBRANCH   4  11
BRANCH   1  26
ATOM     26  S1  8GE d   1      -5.967   0.858  16.772  0.00  0.00     0.256 S 
ATOM     27  O1  8GE d   1      -5.452   0.975  18.122  0.00  0.00    -0.201 OA
ATOM     28  O2  8GE d   1      -7.379   0.980  16.540  0.00  0.00    -0.201 OA
BRANCH  26  29
ATOM     29  N3  8GE d   1      -5.425  -0.503  16.064  0.00  0.00    -0.324 N 
ATOM     30  H1  8GE d   1      -4.457  -0.747  16.125  0.00  0.00     0.169 HD
ATOM     31  H2  8GE d   1      -6.060  -1.095  15.567  0.00  0.00     0.169 HD
ENDBRANCH  26  29
ENDBRANCH   1  26
TORSDOF 3
