REMARK  2 active torsions:
REMARK  status: ('A' for Active; 'I' for Inactive)
REMARK    1  A    between atoms: C15_13  and  C24_19 
REMARK    2  A    between atoms: C24_19  and  O3_28 
ROOT
ATOM      1  C1  8GQ d   1       4.639  -2.496 -11.956  0.00  0.00     0.036 A 
ATOM      2  C2  8GQ d   1       5.229  -2.098 -13.160  0.00  0.00    -0.023 A 
ATOM      3  C3  8GQ d   1       4.986  -2.821 -14.321  0.00  0.00     0.098 A 
ATOM      4  N6  8GQ d   1       4.977  -1.885 -10.731  0.00  0.00    -0.341 N 
ATOM      5  C7  8GQ d   1       1.995  -5.844 -14.426  0.00  0.00     0.013 C 
ATOM      6  C8  8GQ d   1       2.814  -5.510 -15.647  0.00  0.00     0.222 C 
ATOM      7  C9  8GQ d   1       6.529  -1.499 -15.650  0.00  0.00     0.041 C 
ATOM      8  C10 8GQ d   1       7.887  -2.079 -15.418  0.00  0.00    -0.082 C 
ATOM      9  C11 8GQ d   1       8.975  -1.430 -15.020  0.00  0.00    -0.082 C 
ATOM     10  C12 8GQ d   1      10.345  -2.023 -14.921  0.00  0.00     0.035 C 
ATOM     11  C13 8GQ d   1      11.001  -3.164 -12.837  0.00  0.00     0.056 C 
ATOM     12  C14 8GQ d   1      11.955  -3.036 -11.656  0.00  0.00    -0.018 C 
ATOM     13  C15 8GQ d   1      11.140  -2.255 -10.608  0.00  0.00     0.036 C 
ATOM     14  C16 8GQ d   1       9.665  -3.440 -12.164  0.00  0.00     0.021 C 
ATOM     15  C19 8GQ d   1       6.251  -1.748 -10.199  0.00  0.00     0.135 C 
ATOM     16  C20 8GQ d   1       7.777  -0.619  -8.776  0.00  0.00     0.177 A 
ATOM     17  C21 8GQ d   1       7.711   0.293  -7.727  0.00  0.00     0.111 A 
ATOM     18  C22 8GQ d   1       6.338   0.510  -7.533  0.00  0.00     0.046 A 
ATOM     19  N5  8GQ d   1       9.687   1.347  -6.474  0.00  0.00    -0.191 NA
ATOM     20  C23 8GQ d   1       8.807   0.885  -7.034  0.00  0.00     0.105 C 
ATOM     21  N4  8GQ d   1       5.568  -0.158  -8.421  0.00  0.00    -0.175 NA
ATOM     22  N2  8GQ d   1       6.477  -0.899  -9.157  0.00  0.00    -0.198 N 
ATOM     23  C18 8GQ d   1       7.350  -2.372 -10.772  0.00  0.00     0.006 C 
ATOM     24  N3  8GQ d   1       8.851  -1.220  -9.304  0.00  0.00    -0.210 NA
ATOM     25  C17 8GQ d   1       8.638  -2.031 -10.359  0.00  0.00     0.132 C 
ATOM     26  N1  8GQ d   1       9.745  -2.571 -10.989  0.00  0.00    -0.356 N 
ATOM     27  O2  8GQ d   1      10.926  -1.941 -13.588  0.00  0.00    -0.381 OA
ATOM     28  O1  8GQ d   1       5.499  -2.505 -15.561  0.00  0.00    -0.345 OA
ATOM     29  C4  8GQ d   1       4.075  -3.896 -14.314  0.00  0.00     0.075 A 
ATOM     30  N   8GQ d   1       3.759  -4.550 -15.501  0.00  0.00    -0.324 N 
ATOM     31  O   8GQ d   1       2.571  -6.011 -16.735  0.00  0.00    -0.273 OA
ATOM     32  C6  8GQ d   1       2.573  -5.482 -13.078  0.00  0.00    -0.031 C 
ATOM     33  C5  8GQ d   1       3.474  -4.272 -13.107  0.00  0.00    -0.026 A 
ATOM     34  C   8GQ d   1       3.792  -3.600 -11.932  0.00  0.00    -0.049 A 
ATOM     35  H1  8GQ d   1       5.874  -1.227 -13.187  0.00  0.00     0.091 H 
ATOM     36  H2  8GQ d   1       4.199  -1.502 -10.175  0.00  0.00     0.167 HD
ATOM     37  H3  8GQ d   1       1.825  -6.931 -14.430  0.00  0.00     0.047 H 
ATOM     38  H4  8GQ d   1       1.032  -5.322 -14.522  0.00  0.00     0.047 H 
ATOM     39  H5  8GQ d   1       6.500  -1.047 -16.652  0.00  0.00     0.081 H 
ATOM     40  H6  8GQ d   1       6.338  -0.724 -14.893  0.00  0.00     0.081 H 
ATOM     41  H7  8GQ d   1       7.996  -3.148 -15.594  0.00  0.00     0.079 H 
ATOM     42  H8  8GQ d   1       8.861  -0.383 -14.744  0.00  0.00     0.079 H 
ATOM     43  H9  8GQ d   1      11.005  -1.489 -15.620  0.00  0.00     0.080 H 
ATOM     44  H10 8GQ d   1      10.286  -3.083 -15.209  0.00  0.00     0.080 H 
ATOM     45  H11 8GQ d   1      11.297  -3.990 -13.500  0.00  0.00     0.086 H 
ATOM     46  H12 8GQ d   1      12.860  -2.480 -11.942  0.00  0.00     0.040 H 
ATOM     47  H13 8GQ d   1      12.239  -4.027 -11.272  0.00  0.00     0.040 H 
ATOM     48  H14 8GQ d   1      11.330  -2.677  -9.610  0.00  0.00     0.076 H 
ATOM     49  H15 8GQ d   1       9.571  -4.497 -11.876  0.00  0.00     0.068 H 
ATOM     50  H16 8GQ d   1       8.822  -3.161 -12.814  0.00  0.00     0.068 H 
ATOM     51  H17 8GQ d   1       5.935   1.150  -6.749  0.00  0.00     0.120 H 
ATOM     52  H20 8GQ d   1       7.207  -3.127 -11.543  0.00  0.00     0.095 H 
ATOM     53  H22 8GQ d   1       4.274  -4.289 -16.317  0.00  0.00     0.169 HD
ATOM     54  H23 8GQ d   1       3.155  -6.339 -12.709  0.00  0.00     0.040 H 
ATOM     55  H24 8GQ d   1       1.741  -5.279 -12.387  0.00  0.00     0.040 H 
ATOM     56  H25 8GQ d   1       3.377  -3.939 -10.990  0.00  0.00     0.087 H 
ENDROOT
BRANCH  13  57
ATOM     57  C24 8GQ d   1      11.531  -0.785 -10.534  0.00  0.00     0.036 C 
ATOM     58  H18 8GQ d   1      10.959  -0.228 -11.291  0.00  0.00     0.077 H 
ATOM     59  H19 8GQ d   1      12.607  -0.693 -10.746  0.00  0.00     0.077 H 
BRANCH  57  60
ATOM     60  O3  8GQ d   1      11.266  -0.224  -9.254  0.00  0.00    -0.399 OA
ATOM     61  H21 8GQ d   1      10.338  -0.293  -9.065  0.00  0.00     0.209 HD
ENDBRANCH  57  60
ENDBRANCH  13  57
TORSDOF 2
