REMARK  3 active torsions:
REMARK  status: ('A' for Active; 'I' for Inactive)
REMARK    1  A    between atoms: C4_16  and  C1_1 
REMARK    2  A    between atoms: C10_9  and  S1_12 
REMARK    3  A    between atoms: S1_12  and  N3_15 
ROOT
ATOM      1  C5  8HE d   1      -1.869   5.037  12.923  0.00  0.00    -0.071 A 
ATOM      2  C6  8HE d   1      -1.105   6.076  12.390  0.00  0.00    -0.062 A 
ATOM      3  C7  8HE d   1      -1.265   7.375  12.873  0.00  0.00     0.044 A 
ATOM      4  C8  8HE d   1      -2.188   7.648  13.880  0.00  0.00    -0.062 A 
ATOM      5  C9  8HE d   1      -2.958   6.608  14.402  0.00  0.00    -0.071 A 
ATOM      6  C4  8HE d   1      -2.824   5.308  13.896  0.00  0.00    -0.026 A 
ATOM      7  N7  8HE d   1       0.097   9.169  11.908  0.00  0.00    -0.191 NA
ATOM      8  C81 8HE d   1      -0.549   8.325  12.374  0.00  0.00     0.099 C 
ATOM      9  H3  8HE d   1      -1.718   4.020  12.579  0.00  0.00     0.084 H 
ATOM     10  H4  8HE d   1      -0.389   5.874  11.602  0.00  0.00     0.085 H 
ATOM     11  H5  8HE d   1      -2.307   8.658  14.254  0.00  0.00     0.085 H 
ATOM     12  H6  8HE d   1      -3.662   6.806  15.202  0.00  0.00     0.084 H 
ENDROOT
BRANCH   6  13
ATOM     13  C1  8HE d   1      -3.643   4.224  14.525  0.00  0.00    -0.026 A 
ATOM     14  C2  8HE d   1      -5.035   4.327  14.759  0.00  0.00    -0.071 A 
ATOM     15  C3  8HE d   1      -5.726   3.273  15.402  0.00  0.00    -0.059 A 
ATOM     16  H1  8HE d   1      -5.572   5.215  14.445  0.00  0.00     0.084 H 
ATOM     17  C10 8HE d   1      -5.062   2.104  15.817  0.00  0.00     0.079 A 
ATOM     18  H2  8HE d   1      -6.791   3.368  15.579  0.00  0.00     0.085 H 
ATOM     19  C11 8HE d   1      -3.680   2.030  15.580  0.00  0.00    -0.059 A 
ATOM     20  C12 8HE d   1      -2.986   3.067  14.947  0.00  0.00    -0.071 A 
ATOM     21  H7  8HE d   1      -3.137   1.147  15.896  0.00  0.00     0.085 H 
ATOM     22  H8  8HE d   1      -1.919   2.970  14.781  0.00  0.00     0.084 H 
BRANCH  17  23
ATOM     23  S1  8HE d   1      -5.830   0.884  16.602  0.00  0.00     0.256 S 
ATOM     24  O1  8HE d   1      -7.273   1.010  16.425  0.00  0.00    -0.201 OA
ATOM     25  O2  8HE d   1      -5.367   1.001  17.960  0.00  0.00    -0.201 OA
BRANCH  23  26
ATOM     26  N3  8HE d   1      -5.355  -0.530  16.022  0.00  0.00    -0.324 N 
ATOM     27  H9  8HE d   1      -5.732  -1.377  16.397  0.00  0.00     0.169 HD
ATOM     28  H10 8HE d   1      -4.681  -0.567  15.284  0.00  0.00     0.169 HD
ENDBRANCH  23  26
ENDBRANCH  17  23
ENDBRANCH   6  13
TORSDOF 3
