REMARK  3 active torsions:
REMARK  status: ('A' for Active; 'I' for Inactive)
REMARK    1  A    between atoms: C10_2  and  S1_13 
REMARK    2  A    between atoms: C4_5  and  C1_9 
REMARK    3  A    between atoms: S1_13  and  N3_11 
ROOT
ATOM      1  C2  8HK d   1      -3.092   3.136  14.886  0.00  0.00    -0.071 A 
ATOM      2  C10 8HK d   1      -5.118   2.191  15.739  0.00  0.00     0.079 A 
ATOM      3  C12 8HK d   1      -5.144   4.345  14.689  0.00  0.00    -0.071 A 
ATOM      4  C11 8HK d   1      -5.824   3.310  15.317  0.00  0.00    -0.059 A 
ATOM      5  C1  8HK d   1      -3.762   4.287  14.480  0.00  0.00    -0.025 A 
ATOM      6  C3  8HK d   1      -3.754   2.094  15.510  0.00  0.00    -0.059 A 
ATOM      7  H1  8HK d   1      -2.026   3.054  14.709  0.00  0.00     0.084 H 
ATOM      8  H2  8HK d   1      -5.695   5.216  14.354  0.00  0.00     0.084 H 
ATOM      9  H5  8HK d   1      -6.894   3.375  15.476  0.00  0.00     0.085 H 
ATOM     10  H10 8HK d   1      -3.210   1.208  15.818  0.00  0.00     0.085 H 
ENDROOT
BRANCH   5  11
ATOM     11  C4  8HK d   1      -3.001   5.440  13.927  0.00  0.00    -0.008 A 
ATOM     12  C5  8HK d   1      -1.967   5.263  13.011  0.00  0.00     0.012 A 
ATOM     13  N6  8HK d   1      -1.172   6.249  12.571  0.00  0.00    -0.272 NA
ATOM     14  H3  8HK d   1      -1.794   4.263  12.629  0.00  0.00     0.116 H 
ATOM     15  C7  8HK d   1      -1.403   7.477  13.043  0.00  0.00     0.002 A 
ATOM     16  C8  8HK d   1      -2.401   7.766  13.950  0.00  0.00    -0.065 A 
ATOM     17  H6  8HK d   1      -0.774   8.288  12.695  0.00  0.00     0.114 H 
ATOM     18  C9  8HK d   1      -3.208   6.735  14.392  0.00  0.00    -0.070 A 
ATOM     19  H4  8HK d   1      -2.549   8.778  14.308  0.00  0.00     0.085 H 
ATOM     20  H9  8HK d   1      -4.003   6.935  15.101  0.00  0.00     0.085 H 
ENDBRANCH   5  11
BRANCH   2  21
ATOM     21  S1  8HK d   1      -5.927   0.919  16.665  0.00  0.00     0.256 S 
ATOM     22  O1  8HK d   1      -5.434   0.999  18.011  0.00  0.00    -0.201 OA
ATOM     23  O2  8HK d   1      -7.339   1.045  16.440  0.00  0.00    -0.201 OA
BRANCH  21  24
ATOM     24  N3  8HK d   1      -5.472  -0.493  16.067  0.00  0.00    -0.324 N 
ATOM     25  H7  8HK d   1      -5.826  -1.341  16.462  0.00  0.00     0.169 HD
ATOM     26  H8  8HK d   1      -4.833  -0.528  15.298  0.00  0.00     0.169 HD
ENDBRANCH  21  24
ENDBRANCH   2  21
TORSDOF 3
