REMARK  16 active torsions:
REMARK  status: ('A' for Active; 'I' for Inactive)
REMARK    1  A    between atoms: C10_1  and  P01_9 
REMARK    2  A    between atoms: N04_24  and  C10_1 
REMARK       I    between atoms: C11_2  and  N04_24 
REMARK    3  A    between atoms: O04_25  and  C11_2 
REMARK    4  A    between atoms: C12_3  and  C13_4 
REMARK    5  A    between atoms: C12_3  and  O04_25 
REMARK    6  A    between atoms: P01_9  and  N01_10 
REMARK    7  A    between atoms: N01_10  and  C01_11 
REMARK    8  A    between atoms: C01_11  and  C02_12 
REMARK    9  A    between atoms: C01_11  and  C06_16 
REMARK   10  A    between atoms: C02_12  and  C03_13 
REMARK   11  A    between atoms: C03_13  and  C04_14 
REMARK   12  A    between atoms: C03_13  and  C05_15 
REMARK       I    between atoms: C06_16  and  N02_17 
REMARK   13  A    between atoms: N02_17  and  C07_18 
REMARK   14  A    between atoms: C07_18  and  C08_19 
REMARK   15  A    between atoms: C08_19  and  C09_20 
REMARK   16  A    between atoms: C09_20  and  N03_21 
ROOT
ATOM      1  C01 8KK d   1      10.173  38.773  -3.694  0.00  0.00     0.091 C 
ATOM      2  H9  8KK d   1       9.959  37.733  -3.981  0.00  0.00     0.087 H 
ENDROOT
BRANCH   1   3
ATOM      3  N01 8KK d   1      11.305  39.270  -4.465  0.00  0.00    -0.334 N 
ATOM      4  H8  8KK d   1      11.936  39.932  -4.061  0.00  0.00     0.164 HD
BRANCH   3   5
ATOM      5  P01 8KK d   1      11.546  38.724  -6.040  0.00  0.00     0.224 P 
ATOM      6  O01 8KK d   1      12.522  37.579  -6.136  0.00  0.00    -0.651 OA
ATOM      7  O03 8KK d   1      10.184  38.351  -6.612  0.00  0.00    -0.651 OA
BRANCH   5   8
ATOM      8  C10 8KK d   1      12.214  40.190  -6.933  0.00  0.00     0.086 C 
ATOM      9  H1  8KK d   1      12.918  40.731  -6.284  0.00  0.00     0.083 H 
ATOM     10  H2  8KK d   1      11.389  40.859  -7.217  0.00  0.00     0.083 H 
BRANCH   8  11
ATOM     11  N04 8KK d   1      12.899  39.732  -8.118  0.00  0.00    -0.325 N 
ATOM     12  C11 8KK d   1      13.005  40.459  -9.326  0.00  0.00     0.361 C 
ATOM     13  O05 8KK d   1      12.582  41.553  -9.436  0.00  0.00    -0.238 OA
ATOM     14  H29 8KK d   1      13.332  38.831  -8.082  0.00  0.00     0.165 HD
BRANCH  12  15
ATOM     15  O04 8KK d   1      13.638  39.731 -10.318  0.00  0.00    -0.299 OA
BRANCH  15  16
ATOM     16  C12 8KK d   1      13.948  40.378 -11.518  0.00  0.00     0.054 C 
ATOM     17  H3  8KK d   1      13.593  39.770 -12.363  0.00  0.00     0.082 H 
ATOM     18  H4  8KK d   1      13.454  41.361 -11.541  0.00  0.00     0.082 H 
BRANCH  16  19
ATOM     19  C13 8KK d   1      15.464  40.568 -11.631  0.00  0.00    -0.034 A 
ATOM     20  C14 8KK d   1      16.114  41.354 -10.698  0.00  0.00    -0.075 A 
ATOM     21  C15 8KK d   1      17.480  41.546 -10.760  0.00  0.00    -0.082 A 
ATOM     22  H5  8KK d   1      15.543  41.826  -9.907  0.00  0.00     0.084 H 
ATOM     23  C16 8KK d   1      18.218  40.956 -11.771  0.00  0.00    -0.083 A 
ATOM     24  H6  8KK d   1      17.975  42.160 -10.016  0.00  0.00     0.083 H 
ATOM     25  C17 8KK d   1      17.582  40.148 -12.699  0.00  0.00    -0.082 A 
ATOM     26  H7  8KK d   1      19.287  41.125 -11.836  0.00  0.00     0.083 H 
ATOM     27  C18 8KK d   1      16.212  39.955 -12.634  0.00  0.00    -0.075 A 
ATOM     28  H30 8KK d   1      18.159  39.665 -13.479  0.00  0.00     0.083 H 
ATOM     29  H31 8KK d   1      15.720  39.325 -13.366  0.00  0.00     0.084 H 
ENDBRANCH  16  19
ENDBRANCH  15  16
ENDBRANCH  12  15
ENDBRANCH   8  11
ENDBRANCH   5   8
ENDBRANCH   3   5
ENDBRANCH   1   3
BRANCH   1  30
ATOM     30  C02 8KK d   1      10.565  38.849  -2.208  0.00  0.00    -0.035 C 
ATOM     31  H10 8KK d   1      10.768  39.900  -1.954  0.00  0.00     0.037 H 
ATOM     32  H11 8KK d   1      11.477  38.253  -2.057  0.00  0.00     0.037 H 
BRANCH  30  33
ATOM     33  C03 8KK d   1       9.482  38.324  -1.268  0.00  0.00    -0.059 C 
ATOM     34  H12 8KK d   1       8.523  38.783  -1.550  0.00  0.00     0.038 H 
BRANCH  33  35
ATOM     35  C04 8KK d   1       9.796  38.697   0.178  0.00  0.00    -0.073 C 
ATOM     36  H13 8KK d   1       9.005  38.310   0.837  0.00  0.00     0.028 H 
ATOM     37  H14 8KK d   1       9.848  39.792   0.271  0.00  0.00     0.028 H 
ATOM     38  H15 8KK d   1      10.762  38.258   0.468  0.00  0.00     0.028 H 
ENDBRANCH  33  35
BRANCH  33  39
ATOM     39  C05 8KK d   1       9.354  36.809  -1.392  0.00  0.00    -0.073 C 
ATOM     40  H16 8KK d   1       9.128  36.544  -2.435  0.00  0.00     0.028 H 
ATOM     41  H17 8KK d   1       8.542  36.455  -0.740  0.00  0.00     0.028 H 
ATOM     42  H18 8KK d   1      10.300  36.335  -1.090  0.00  0.00     0.028 H 
ENDBRANCH  33  39
ENDBRANCH  30  33
ENDBRANCH   1  30
BRANCH   1  43
ATOM     43  C06 8KK d   1       8.925  39.624  -3.904  0.00  0.00     0.240 C 
ATOM     44  N02 8KK d   1       9.145  41.008  -4.100  0.00  0.00    -0.359 N 
ATOM     45  H19 8KK d   1      10.082  41.355  -4.138  0.00  0.00     0.162 HD
ATOM     46  O02 8KK d   1       7.815  39.181  -3.869  0.00  0.00    -0.271 OA
BRANCH  44  47
ATOM     47  C07 8KK d   1       8.041  41.928  -4.246  0.00  0.00    -0.003 C 
ATOM     48  H20 8KK d   1       7.127  41.468  -3.842  0.00  0.00     0.064 H 
ATOM     49  H21 8KK d   1       7.896  42.157  -5.312  0.00  0.00     0.064 H 
BRANCH  47  50
ATOM     50  C08 8KK d   1       8.338  43.223  -3.484  0.00  0.00    -0.028 C 
ATOM     51  H22 8KK d   1       7.435  43.851  -3.512  0.00  0.00     0.037 H 
ATOM     52  H23 8KK d   1       9.161  43.741  -3.998  0.00  0.00     0.037 H 
BRANCH  50  53
ATOM     53  C09 8KK d   1       8.736  43.033  -2.030  0.00  0.00     0.081 C 
ATOM     54  H24 8KK d   1       9.665  42.447  -1.973  0.00  0.00     0.075 H 
ATOM     55  H25 8KK d   1       7.935  42.505  -1.492  0.00  0.00     0.075 H 
BRANCH  53  56
ATOM     56  N03 8KK d   1       8.946  44.352  -1.433  0.00  0.00    -0.079 N 
ATOM     57  H26 8KK d   1       9.211  44.245  -0.466  0.00  0.00     0.274 HD
ATOM     58  H27 8KK d   1       8.093  44.886  -1.490  0.00  0.00     0.274 HD
ATOM     59  H28 8KK d   1       9.678  44.834  -1.931  0.00  0.00     0.274 HD
ENDBRANCH  53  56
ENDBRANCH  50  53
ENDBRANCH  47  50
ENDBRANCH  44  47
ENDBRANCH   1  43
TORSDOF 16
