REMARK  17 active torsions:
REMARK  status: ('A' for Active; 'I' for Inactive)
REMARK    1  A    between atoms: C10_1  and  N03_17 
REMARK    2  A    between atoms: C09_27  and  C10_1 
REMARK    3  A    between atoms: P01_9  and  C11_2 
REMARK    4  A    between atoms: C11_2  and  N04_20 
REMARK       I    between atoms: N04_20  and  C12_3 
REMARK    5  A    between atoms: C12_3  and  O04_21 
REMARK    6  A    between atoms: C13_4  and  C14_5 
REMARK    7  A    between atoms: O04_21  and  C13_4 
REMARK    8  A    between atoms: N01_11  and  P01_9 
REMARK    9  A    between atoms: C01_10  and  N01_11 
REMARK   10  A    between atoms: C01_10  and  C02_13 
REMARK   11  A    between atoms: C06_24  and  C01_10 
REMARK   12  A    between atoms: C02_13  and  C03_16 
REMARK       I    between atoms: N02_14  and  C06_24 
REMARK   13  A    between atoms: C07_25  and  N02_14 
REMARK   14  A    between atoms: C03_16  and  C04_19 
REMARK   15  A    between atoms: C03_16  and  C05_22 
REMARK   16  A    between atoms: C08_26  and  C07_25 
REMARK   17  A    between atoms: C08_26  and  C09_27 
ROOT
ATOM      1  C01 8JH d   1      10.202 -38.781   3.730  0.00  0.00     0.091 C 
ATOM      2  H10 8JH d   1       9.985 -37.741   4.014  0.00  0.00     0.087 H 
ENDROOT
BRANCH   1   3
ATOM      3  N01 8JH d   1      11.327 -39.275   4.540  0.00  0.00    -0.334 N 
ATOM      4  H11 8JH d   1      11.944 -39.963   4.157  0.00  0.00     0.164 HD
BRANCH   3   5
ATOM      5  P01 8JH d   1      11.585 -38.717   6.056  0.00  0.00     0.224 P 
ATOM      6  O01 8JH d   1      12.556 -37.569   6.166  0.00  0.00    -0.651 OA
ATOM      7  O03 8JH d   1      10.192 -38.328   6.651  0.00  0.00    -0.651 OA
BRANCH   5   8
ATOM      8  C11 8JH d   1      12.231 -40.125   6.993  0.00  0.00     0.086 C 
ATOM      9  H3  8JH d   1      12.941 -40.672   6.356  0.00  0.00     0.083 H 
ATOM     10  H4  8JH d   1      11.391 -40.785   7.255  0.00  0.00     0.083 H 
BRANCH   8  11
ATOM     11  N04 8JH d   1      12.920 -39.735   8.229  0.00  0.00    -0.325 N 
ATOM     12  C12 8JH d   1      13.016 -40.434   9.375  0.00  0.00     0.361 C 
ATOM     13  O05 8JH d   1      12.582 -41.550   9.449  0.00  0.00    -0.238 OA
ATOM     14  H22 8JH d   1      13.372 -38.843   8.218  0.00  0.00     0.165 HD
BRANCH  12  15
ATOM     15  O04 8JH d   1      13.641 -39.676  10.313  0.00  0.00    -0.299 OA
BRANCH  15  16
ATOM     16  C13 8JH d   1      13.990 -40.315  11.555  0.00  0.00     0.054 C 
ATOM     17  H5  8JH d   1      13.655 -39.685  12.392  0.00  0.00     0.082 H 
ATOM     18  H6  8JH d   1      13.491 -41.294  11.611  0.00  0.00     0.082 H 
BRANCH  16  19
ATOM     19  C14 8JH d   1      15.485 -40.513  11.649  0.00  0.00    -0.034 A 
ATOM     20  C15 8JH d   1      16.285 -39.906  12.655  0.00  0.00    -0.075 A 
ATOM     21  C16 8JH d   1      17.663 -40.126  12.695  0.00  0.00    -0.082 A 
ATOM     22  H7  8JH d   1      15.821 -39.267  13.398  0.00  0.00     0.084 H 
ATOM     23  C17 8JH d   1      18.270 -40.957  11.747  0.00  0.00    -0.083 A 
ATOM     24  H8  8JH d   1      18.264 -39.652  13.462  0.00  0.00     0.083 H 
ATOM     25  C18 8JH d   1      17.490 -41.528  10.733  0.00  0.00    -0.082 A 
ATOM     26  H32 8JH d   1      19.334 -41.157  11.797  0.00  0.00     0.083 H 
ATOM     27  C19 8JH d   1      16.123 -41.317  10.700  0.00  0.00    -0.075 A 
ATOM     28  H33 8JH d   1      17.960 -42.138   9.970  0.00  0.00     0.083 H 
ATOM     29  H9  8JH d   1      15.533 -41.786   9.921  0.00  0.00     0.084 H 
ENDBRANCH  16  19
ENDBRANCH  15  16
ENDBRANCH  12  15
ENDBRANCH   8  11
ENDBRANCH   5   8
ENDBRANCH   3   5
ENDBRANCH   1   3
BRANCH   1  30
ATOM     30  C02 8JH d   1      10.560 -38.841   2.240  0.00  0.00    -0.035 C 
ATOM     31  H12 8JH d   1      10.755 -39.892   1.980  0.00  0.00     0.037 H 
ATOM     32  H13 8JH d   1      11.475 -38.250   2.087  0.00  0.00     0.037 H 
BRANCH  30  33
ATOM     33  C03 8JH d   1       9.490 -38.310   1.284  0.00  0.00    -0.059 C 
ATOM     34  H15 8JH d   1       8.528 -38.765   1.562  0.00  0.00     0.038 H 
BRANCH  33  35
ATOM     35  C04 8JH d   1       9.813 -38.718  -0.165  0.00  0.00    -0.073 C 
ATOM     36  H19 8JH d   1       9.035 -38.328  -0.838  0.00  0.00     0.028 H 
ATOM     37  H20 8JH d   1       9.846 -39.815  -0.238  0.00  0.00     0.028 H 
ATOM     38  H21 8JH d   1      10.789 -38.302  -0.454  0.00  0.00     0.028 H 
ENDBRANCH  33  35
BRANCH  33  39
ATOM     39  C05 8JH d   1       9.346 -36.787   1.398  0.00  0.00    -0.073 C 
ATOM     40  H23 8JH d   1       9.116 -36.517   2.439  0.00  0.00     0.028 H 
ATOM     41  H24 8JH d   1       8.531 -36.446   0.742  0.00  0.00     0.028 H 
ATOM     42  H25 8JH d   1      10.287 -36.306   1.094  0.00  0.00     0.028 H 
ENDBRANCH  33  39
ENDBRANCH  30  33
ENDBRANCH   1  30
BRANCH   1  43
ATOM     43  C06 8JH d   1       8.952 -39.645   3.959  0.00  0.00     0.240 C 
ATOM     44  N02 8JH d   1       9.163 -40.978   4.174  0.00  0.00    -0.359 N 
ATOM     45  H14 8JH d   1      10.099 -41.330   4.189  0.00  0.00     0.162 HD
ATOM     46  O02 8JH d   1       7.824 -39.163   3.921  0.00  0.00    -0.271 OA
BRANCH  44  47
ATOM     47  C07 8JH d   1       8.059 -41.891   4.380  0.00  0.00    -0.005 C 
ATOM     48  H26 8JH d   1       7.205 -41.330   4.787  0.00  0.00     0.064 H 
ATOM     49  H27 8JH d   1       8.366 -42.664   5.099  0.00  0.00     0.064 H 
BRANCH  47  50
ATOM     50  C08 8JH d   1       7.635 -42.563   3.089  0.00  0.00    -0.049 C 
ATOM     51  H28 8JH d   1       7.454 -41.795   2.323  0.00  0.00     0.035 H 
ATOM     52  H29 8JH d   1       6.710 -43.133   3.263  0.00  0.00     0.035 H 
BRANCH  50  53
ATOM     53  C09 8JH d   1       8.717 -43.503   2.607  0.00  0.00    -0.041 C 
ATOM     54  H30 8JH d   1       9.430 -42.923   2.002  0.00  0.00     0.035 H 
ATOM     55  H31 8JH d   1       9.232 -43.912   3.489  0.00  0.00     0.035 H 
BRANCH  53  56
ATOM     56  C10 8JH d   1       8.221 -44.675   1.761  0.00  0.00     0.080 C 
ATOM     57  H1  8JH d   1       7.292 -45.074   2.193  0.00  0.00     0.075 H 
ATOM     58  H2  8JH d   1       8.030 -44.332   0.733  0.00  0.00     0.075 H 
BRANCH  56  59
ATOM     59  N03 8JH d   1       9.242 -45.721   1.746  0.00  0.00    -0.079 N 
ATOM     60  H16 8JH d   1       8.920 -46.497   1.189  0.00  0.00     0.274 HD
ATOM     61  H17 8JH d   1       9.417 -46.033   2.688  0.00  0.00     0.274 HD
ATOM     62  H18 8JH d   1      10.093 -45.354   1.350  0.00  0.00     0.274 HD
ENDBRANCH  56  59
ENDBRANCH  53  56
ENDBRANCH  50  53
ENDBRANCH  47  50
ENDBRANCH  44  47
ENDBRANCH   1  43
TORSDOF 17
