REMARK  18 active torsions:
REMARK  status: ('A' for Active; 'I' for Inactive)
REMARK    1  A    between atoms: C10_1  and  C11_2 
REMARK    2  A    between atoms: C09_32  and  C10_1 
REMARK    3  A    between atoms: C07_21  and  C12_3 
REMARK    4  A    between atoms: P01_12  and  C13_4 
REMARK    5  A    between atoms: C13_4  and  N04_26 
REMARK       I    between atoms: N04_26  and  C14_5 
REMARK    6  A    between atoms: C14_5  and  O06_27 
REMARK    7  A    between atoms: C15_6  and  C16_7 
REMARK    8  A    between atoms: O06_27  and  C15_6 
REMARK    9  A    between atoms: N01_13  and  P01_12 
REMARK   10  A    between atoms: C01_14  and  N01_13 
REMARK   11  A    between atoms: C01_14  and  C02_15 
REMARK   12  A    between atoms: C06_19  and  C01_14 
REMARK   13  A    between atoms: C02_15  and  C03_16 
REMARK   14  A    between atoms: C03_16  and  C04_17 
REMARK   15  A    between atoms: C03_16  and  C05_18 
REMARK       I    between atoms: N02_20  and  C06_19 
REMARK   16  A    between atoms: C07_21  and  N02_20 
REMARK   17  A    between atoms: C08_31  and  C07_21 
REMARK   18  A    between atoms: C08_31  and  C09_32 
ROOT
ATOM      1  C01 8LB d   1      36.266  41.743  -3.675  0.00  0.00     0.091 C 
ATOM      2  H14 8LB d   1      36.467  42.788  -3.954  0.00  0.00     0.087 H 
ENDROOT
BRANCH   1   3
ATOM      3  N01 8LB d   1      35.126  41.233  -4.430  0.00  0.00    -0.334 N 
ATOM      4  H13 8LB d   1      34.482  40.593  -4.010  0.00  0.00     0.164 HD
BRANCH   3   5
ATOM      5  P01 8LB d   1      34.914  41.744  -6.028  0.00  0.00     0.224 P 
ATOM      6  O01 8LB d   1      36.265  42.141  -6.615  0.00  0.00    -0.651 OA
ATOM      7  O05 8LB d   1      33.924  42.897  -6.152  0.00  0.00    -0.651 OA
BRANCH   5   8
ATOM      8  C13 8LB d   1      34.214  40.269  -6.874  0.00  0.00     0.086 C 
ATOM      9  H6  8LB d   1      33.472  39.784  -6.222  0.00  0.00     0.083 H 
ATOM     10  H7  8LB d   1      35.020  39.557  -7.106  0.00  0.00     0.083 H 
BRANCH   8  11
ATOM     11  N04 8LB d   1      33.581  40.700  -8.094  0.00  0.00    -0.325 N 
ATOM     12  C14 8LB d   1      33.567  39.929  -9.270  0.00  0.00     0.361 C 
ATOM     13  O07 8LB d   1      34.063  38.857  -9.347  0.00  0.00    -0.238 OA
ATOM     14  H26 8LB d   1      33.129  41.592  -8.105  0.00  0.00     0.165 HD
BRANCH  12  15
ATOM     15  O06 8LB d   1      32.924  40.637 -10.268  0.00  0.00    -0.299 OA
BRANCH  15  16
ATOM     16  C15 8LB d   1      32.591  39.959 -11.447  0.00  0.00     0.054 C 
ATOM     17  H8  8LB d   1      32.975  40.523 -12.309  0.00  0.00     0.082 H 
ATOM     18  H9  8LB d   1      33.048  38.959 -11.430  0.00  0.00     0.082 H 
BRANCH  16  19
ATOM     19  C16 8LB d   1      31.064  39.815 -11.576  0.00  0.00    -0.034 A 
ATOM     20  C21 8LB d   1      30.371  40.449 -12.604  0.00  0.00    -0.075 A 
ATOM     21  C20 8LB d   1      28.989  40.306 -12.716  0.00  0.00    -0.082 A 
ATOM     22  H12 8LB d   1      30.910  41.057 -13.322  0.00  0.00     0.084 H 
ATOM     23  C19 8LB d   1      28.297  39.535 -11.790  0.00  0.00    -0.083 A 
ATOM     24  H11 8LB d   1      28.456  40.795 -13.523  0.00  0.00     0.083 H 
ATOM     25  C18 8LB d   1      28.993  38.922 -10.747  0.00  0.00    -0.082 A 
ATOM     26  H10 8LB d   1      27.224  39.410 -11.877  0.00  0.00     0.083 H 
ATOM     27  C17 8LB d   1      30.365  39.066 -10.639  0.00  0.00    -0.075 A 
ATOM     28  H28 8LB d   1      28.455  38.329 -10.016  0.00  0.00     0.083 H 
ATOM     29  H27 8LB d   1      30.895  38.593  -9.821  0.00  0.00     0.084 H 
ENDBRANCH  16  19
ENDBRANCH  15  16
ENDBRANCH  12  15
ENDBRANCH   8  11
ENDBRANCH   5   8
ENDBRANCH   3   5
ENDBRANCH   1   3
BRANCH   1  30
ATOM     30  C02 8LB d   1      35.903  41.649  -2.201  0.00  0.00    -0.035 C 
ATOM     31  H15 8LB d   1      35.721  40.592  -1.957  0.00  0.00     0.037 H 
ATOM     32  H16 8LB d   1      34.982  42.227  -2.035  0.00  0.00     0.037 H 
BRANCH  30  33
ATOM     33  C03 8LB d   1      36.976  42.179  -1.257  0.00  0.00    -0.059 C 
ATOM     34  H17 8LB d   1      37.929  41.715  -1.551  0.00  0.00     0.038 H 
BRANCH  33  35
ATOM     35  C04 8LB d   1      36.690  41.782   0.188  0.00  0.00    -0.073 C 
ATOM     36  H18 8LB d   1      37.481  42.179   0.841  0.00  0.00     0.028 H 
ATOM     37  H19 8LB d   1      36.664  40.685   0.269  0.00  0.00     0.028 H 
ATOM     38  H20 8LB d   1      35.718  42.195   0.496  0.00  0.00     0.028 H 
ENDBRANCH  33  35
BRANCH  33  39
ATOM     39  C05 8LB d   1      37.147  43.690  -1.362  0.00  0.00    -0.073 C 
ATOM     40  H21 8LB d   1      37.353  43.964  -2.407  0.00  0.00     0.028 H 
ATOM     41  H22 8LB d   1      37.987  44.009  -0.727  0.00  0.00     0.028 H 
ATOM     42  H23 8LB d   1      36.225  44.188  -1.027  0.00  0.00     0.028 H 
ENDBRANCH  33  39
ENDBRANCH  30  33
ENDBRANCH   1  30
BRANCH   1  43
ATOM     43  C06 8LB d   1      37.498  40.899  -3.938  0.00  0.00     0.241 C 
ATOM     44  N02 8LB d   1      37.265  39.532  -4.179  0.00  0.00    -0.345 N 
ATOM     45  H24 8LB d   1      36.330  39.177  -4.192  0.00  0.00     0.163 HD
ATOM     46  O04 8LB d   1      38.622  41.343  -3.885  0.00  0.00    -0.271 OA
BRANCH  44  47
ATOM     47  C07 8LB d   1      38.378  38.645  -4.407  0.00  0.00     0.096 C 
ATOM     48  H25 8LB d   1      39.219  39.255  -4.767  0.00  0.00     0.089 H 
BRANCH  47  49
ATOM     49  C12 8LB d   1      38.021  37.665  -5.516  0.00  0.00     0.196 C 
ATOM     50  O02 8LB d   1      36.832  37.630  -5.963  0.00  0.00    -0.646 OA
ATOM     51  O03 8LB d   1      38.937  36.919  -5.962  0.00  0.00    -0.646 OA
ENDBRANCH  47  49
BRANCH  47  52
ATOM     52  C08 8LB d   1      38.846  37.963  -3.132  0.00  0.00    -0.037 C 
ATOM     53  H29 8LB d   1      39.102  38.734  -2.391  0.00  0.00     0.036 H 
ATOM     54  H30 8LB d   1      39.739  37.361  -3.359  0.00  0.00     0.036 H 
BRANCH  52  55
ATOM     55  C09 8LB d   1      37.787  37.060  -2.547  0.00  0.00    -0.063 C 
ATOM     56  H31 8LB d   1      36.881  37.651  -2.348  0.00  0.00     0.033 H 
ATOM     57  H32 8LB d   1      37.554  36.264  -3.270  0.00  0.00     0.033 H 
BRANCH  55  58
ATOM     58  C10 8LB d   1      38.268  36.418  -1.230  0.00  0.00    -0.068 C 
ATOM     59  H1  8LB d   1      38.619  37.217  -0.560  0.00  0.00     0.032 H 
ATOM     60  H2  8LB d   1      37.418  35.897  -0.765  0.00  0.00     0.032 H 
BRANCH  58  61
ATOM     61  C11 8LB d   1      39.401  35.418  -1.424  0.00  0.00    -0.077 C 
ATOM     62  H3  8LB d   1      39.693  35.001  -0.449  0.00  0.00     0.027 H 
ATOM     63  H4  8LB d   1      40.264  35.926  -1.879  0.00  0.00     0.027 H 
ATOM     64  H5  8LB d   1      39.064  34.605  -2.084  0.00  0.00     0.027 H 
ENDBRANCH  58  61
ENDBRANCH  55  58
ENDBRANCH  52  55
ENDBRANCH  47  52
ENDBRANCH  44  47
ENDBRANCH   1  43
TORSDOF 18
