REMARK  15 active torsions:
REMARK  status: ('A' for Active; 'I' for Inactive)
REMARK       I    between atoms: N04_20  and  C10_1 
REMARK    1  A    between atoms: C10_1  and  O04_21 
REMARK    2  A    between atoms: C11_2  and  C12_3 
REMARK    3  A    between atoms: O04_21  and  C11_2 
REMARK    4  A    between atoms: P01_9  and  N01_10 
REMARK    5  A    between atoms: C09_19  and  P01_9 
REMARK    6  A    between atoms: N01_10  and  C01_11 
REMARK    7  A    between atoms: C01_11  and  C02_12 
REMARK    8  A    between atoms: C01_11  and  C06_16 
REMARK    9  A    between atoms: C02_12  and  C03_13 
REMARK   10  A    between atoms: C03_13  and  C04_14 
REMARK   11  A    between atoms: C03_13  and  C05_15 
REMARK       I    between atoms: C06_16  and  N02_24 
REMARK   12  A    between atoms: C09_19  and  N04_20 
REMARK   13  A    between atoms: N02_24  and  C07_25 
REMARK   14  A    between atoms: C07_25  and  C08_26 
REMARK   15  A    between atoms: C08_26  and  N03_27 
ROOT
ATOM      1  C01 8JQ d   1      10.053  38.566  -3.652  0.00  0.00     0.091 C 
ATOM      2  H8  8JQ d   1       9.846  37.522  -3.928  0.00  0.00     0.087 H 
ENDROOT
BRANCH   1   3
ATOM      3  N01 8JQ d   1      11.185  39.039  -4.459  0.00  0.00    -0.334 N 
ATOM      4  H7  8JQ d   1      11.814  39.715  -4.075  0.00  0.00     0.164 HD
BRANCH   3   5
ATOM      5  P01 8JQ d   1      11.437  38.470  -5.998  0.00  0.00     0.224 P 
ATOM      6  O01 8JQ d   1      12.403  37.323  -6.088  0.00  0.00    -0.651 OA
ATOM      7  O03 8JQ d   1      10.092  38.070  -6.575  0.00  0.00    -0.651 OA
BRANCH   5   8
ATOM      8  C09 8JQ d   1      12.111  39.898  -6.912  0.00  0.00     0.086 C 
ATOM      9  H18 8JQ d   1      12.836  40.431  -6.279  0.00  0.00     0.083 H 
ATOM     10  H19 8JQ d   1      11.292  40.580  -7.185  0.00  0.00     0.083 H 
BRANCH   8  11
ATOM     11  N04 8JQ d   1      12.768  39.429  -8.108  0.00  0.00    -0.325 N 
ATOM     12  C10 8JQ d   1      12.846  40.178  -9.281  0.00  0.00     0.361 C 
ATOM     13  O05 8JQ d   1      12.445  41.286  -9.393  0.00  0.00    -0.238 OA
ATOM     14  H20 8JQ d   1      13.188  38.522  -8.095  0.00  0.00     0.165 HD
BRANCH  12  15
ATOM     15  O04 8JQ d   1      13.510  39.433 -10.247  0.00  0.00    -0.299 OA
BRANCH  15  16
ATOM     16  C11 8JQ d   1      13.834  40.085 -11.447  0.00  0.00     0.054 C 
ATOM     17  H1  8JQ d   1      13.508  39.466 -12.296  0.00  0.00     0.082 H 
ATOM     18  H2  8JQ d   1      13.319  41.056 -11.483  0.00  0.00     0.082 H 
BRANCH  16  19
ATOM     19  C12 8JQ d   1      15.333  40.309 -11.536  0.00  0.00    -0.034 A 
ATOM     20  C13 8JQ d   1      15.992  41.086 -10.586  0.00  0.00    -0.075 A 
ATOM     21  C14 8JQ d   1      17.344  41.299 -10.670  0.00  0.00    -0.082 A 
ATOM     22  H3  8JQ d   1      15.430  41.527  -9.771  0.00  0.00     0.084 H 
ATOM     23  C15 8JQ d   1      18.105  40.756 -11.687  0.00  0.00    -0.083 A 
ATOM     24  H4  8JQ d   1      17.829  41.910  -9.918  0.00  0.00     0.083 H 
ATOM     25  C16 8JQ d   1      17.484  39.950 -12.625  0.00  0.00    -0.082 A 
ATOM     26  H5  8JQ d   1      19.168  40.957 -11.749  0.00  0.00     0.083 H 
ATOM     27  C17 8JQ d   1      16.103  39.728 -12.567  0.00  0.00    -0.075 A 
ATOM     28  H6  8JQ d   1      18.071  39.487 -13.410  0.00  0.00     0.083 H 
ATOM     29  H21 8JQ d   1      15.623  39.108 -13.316  0.00  0.00     0.084 H 
ENDBRANCH  16  19
ENDBRANCH  15  16
ENDBRANCH  12  15
ENDBRANCH   8  11
ENDBRANCH   5   8
ENDBRANCH   3   5
ENDBRANCH   1   3
BRANCH   1  30
ATOM     30  C02 8JQ d   1      10.438  38.620  -2.178  0.00  0.00    -0.035 C 
ATOM     31  H9  8JQ d   1      10.619  39.670  -1.905  0.00  0.00     0.037 H 
ATOM     32  H10 8JQ d   1      11.363  38.041  -2.040  0.00  0.00     0.037 H 
BRANCH  30  33
ATOM     33  C03 8JQ d   1       9.376  38.058  -1.243  0.00  0.00    -0.059 C 
ATOM     34  H11 8JQ d   1       8.409  38.500  -1.525  0.00  0.00     0.038 H 
BRANCH  33  35
ATOM     35  C04 8JQ d   1       9.253  36.546  -1.376  0.00  0.00    -0.073 C 
ATOM     36  H12 8JQ d   1       8.478  36.179  -0.687  0.00  0.00     0.028 H 
ATOM     37  H13 8JQ d   1      10.216  36.077  -1.128  0.00  0.00     0.028 H 
ATOM     38  H14 8JQ d   1       8.976  36.290  -2.409  0.00  0.00     0.028 H 
ENDBRANCH  33  35
BRANCH  33  39
ATOM     39  C05 8JQ d   1       9.672  38.452   0.194  0.00  0.00    -0.073 C 
ATOM     40  H15 8JQ d   1       9.756  39.547   0.264  0.00  0.00     0.028 H 
ATOM     41  H16 8JQ d   1      10.618  37.990   0.513  0.00  0.00     0.028 H 
ATOM     42  H17 8JQ d   1       8.856  38.105   0.845  0.00  0.00     0.028 H 
ENDBRANCH  33  39
ENDBRANCH  30  33
ENDBRANCH   1  30
BRANCH   1  43
ATOM     43  C06 8JQ d   1       8.792  39.370  -3.876  0.00  0.00     0.240 C 
ATOM     44  O02 8JQ d   1       7.684  38.918  -3.806  0.00  0.00    -0.271 OA
ATOM     45  N02 8JQ d   1       9.047  40.709  -4.154  0.00  0.00    -0.358 N 
ATOM     46  H22 8JQ d   1       9.996  41.013  -4.235  0.00  0.00     0.162 HD
BRANCH  45  47
ATOM     47  C07 8JQ d   1       7.983  41.680  -4.331  0.00  0.00     0.017 C 
ATOM     48  H23 8JQ d   1       7.023  41.170  -4.499  0.00  0.00     0.066 H 
ATOM     49  H24 8JQ d   1       8.203  42.338  -5.185  0.00  0.00     0.066 H 
BRANCH  47  50
ATOM     50  C08 8JQ d   1       7.937  42.491  -3.029  0.00  0.00     0.094 C 
ATOM     51  H25 8JQ d   1       8.887  43.037  -2.929  0.00  0.00     0.077 H 
ATOM     52  H26 8JQ d   1       7.827  41.789  -2.189  0.00  0.00     0.077 H 
BRANCH  50  53
ATOM     53  N03 8JQ d   1       6.854  43.449  -2.964  0.00  0.00    -0.078 N 
ATOM     54  H27 8JQ d   1       6.891  43.939  -2.084  0.00  0.00     0.274 HD
ATOM     55  H28 8JQ d   1       5.973  42.966  -3.042  0.00  0.00     0.274 HD
ATOM     56  H29 8JQ d   1       6.944  44.109  -3.720  0.00  0.00     0.274 HD
ENDBRANCH  50  53
ENDBRANCH  47  50
ENDBRANCH  45  47
ENDBRANCH   1  43
TORSDOF 15
