REMARK  14 active torsions:
REMARK  status: ('A' for Active; 'I' for Inactive)
REMARK    1  A    between atoms: C10_1  and  C11_2 
REMARK    2  A    between atoms: O04_22  and  C10_1 
REMARK    3  A    between atoms: P01_9  and  N01_10 
REMARK    4  A    between atoms: C08_19  and  P01_9 
REMARK    5  A    between atoms: N01_10  and  C01_11 
REMARK    6  A    between atoms: C01_11  and  C02_12 
REMARK    7  A    between atoms: C01_11  and  C06_16 
REMARK    8  A    between atoms: C02_12  and  C03_13 
REMARK    9  A    between atoms: C03_13  and  C04_14 
REMARK   10  A    between atoms: C03_13  and  C05_15 
REMARK       I    between atoms: C06_16  and  N02_24 
REMARK   11  A    between atoms: N04_20  and  C08_19 
REMARK       I    between atoms: C09_21  and  N04_20 
REMARK   12  A    between atoms: C09_21  and  O04_22 
REMARK   13  A    between atoms: N02_24  and  C07_25 
REMARK   14  A    between atoms: C07_25  and  N03_26 
ROOT
ATOM      1  N01 8L5 d   1      11.208  39.148  -4.489  0.00  0.00    -0.334 N 
ATOM      2  H8  8L5 d   1      11.804  39.859  -4.116  0.00  0.00     0.164 HD
ENDROOT
BRANCH   1   3
ATOM      3  P01 8L5 d   1      11.474  38.557  -6.025  0.00  0.00     0.224 P 
ATOM      4  O01 8L5 d   1      10.127  38.167  -6.596  0.00  0.00    -0.651 OA
ATOM      5  O03 8L5 d   1      12.440  37.408  -6.097  0.00  0.00    -0.651 OA
BRANCH   3   6
ATOM      6  C08 8L5 d   1      12.177  39.982  -6.947  0.00  0.00     0.086 C 
ATOM      7  H19 8L5 d   1      12.916  40.499  -6.318  0.00  0.00     0.083 H 
ATOM      8  H20 8L5 d   1      11.371  40.681  -7.215  0.00  0.00     0.083 H 
BRANCH   6   9
ATOM      9  N04 8L5 d   1      12.811  39.504  -8.135  0.00  0.00    -0.325 N 
ATOM     10  C09 8L5 d   1      12.909  40.241  -9.318  0.00  0.00     0.361 C 
ATOM     11  O05 8L5 d   1      12.504  41.355  -9.429  0.00  0.00    -0.238 OA
ATOM     12  H21 8L5 d   1      13.209  38.587  -8.119  0.00  0.00     0.165 HD
BRANCH  10  13
ATOM     13  O04 8L5 d   1      13.545  39.495 -10.291  0.00  0.00    -0.299 OA
BRANCH  13  14
ATOM     14  C10 8L5 d   1      13.880  40.142 -11.485  0.00  0.00     0.054 C 
ATOM     15  H1  8L5 d   1      13.575  39.514 -12.335  0.00  0.00     0.082 H 
ATOM     16  H2  8L5 d   1      13.354  41.107 -11.534  0.00  0.00     0.082 H 
BRANCH  14  17
ATOM     17  C11 8L5 d   1      15.374  40.383 -11.553  0.00  0.00    -0.034 A 
ATOM     18  C12 8L5 d   1      16.013  41.174 -10.613  0.00  0.00    -0.075 A 
ATOM     19  C13 8L5 d   1      17.371  41.396 -10.691  0.00  0.00    -0.082 A 
ATOM     20  H3  8L5 d   1      15.440  41.622  -9.809  0.00  0.00     0.084 H 
ATOM     21  C14 8L5 d   1      18.117  40.833 -11.708  0.00  0.00    -0.083 A 
ATOM     22  H4  8L5 d   1      17.858  42.018  -9.948  0.00  0.00     0.083 H 
ATOM     23  C15 8L5 d   1      17.505  40.027 -12.636  0.00  0.00    -0.082 A 
ATOM     24  H5  8L5 d   1      19.182  41.027 -11.773  0.00  0.00     0.083 H 
ATOM     25  C16 8L5 d   1      16.139  39.799 -12.569  0.00  0.00    -0.075 A 
ATOM     26  H6  8L5 d   1      18.092  39.568 -13.423  0.00  0.00     0.083 H 
ATOM     27  H7  8L5 d   1      15.661  39.165 -13.307  0.00  0.00     0.084 H 
ENDBRANCH  14  17
ENDBRANCH  13  14
ENDBRANCH  10  13
ENDBRANCH   6   9
ENDBRANCH   3   6
ENDBRANCH   1   3
BRANCH   1  28
ATOM     28  C01 8L5 d   1      10.100  38.624  -3.687  0.00  0.00     0.091 C 
ATOM     29  H9  8L5 d   1       9.904  37.580  -3.974  0.00  0.00     0.087 H 
BRANCH  28  30
ATOM     30  C02 8L5 d   1      10.485  38.700  -2.205  0.00  0.00    -0.035 C 
ATOM     31  H10 8L5 d   1      10.665  39.755  -1.951  0.00  0.00     0.037 H 
ATOM     32  H11 8L5 d   1      11.411  38.125  -2.061  0.00  0.00     0.037 H 
BRANCH  30  33
ATOM     33  C03 8L5 d   1       9.433  38.154  -1.250  0.00  0.00    -0.059 C 
ATOM     34  H12 8L5 d   1       8.464  38.600  -1.520  0.00  0.00     0.038 H 
BRANCH  33  35
ATOM     35  C04 8L5 d   1       9.308  36.637  -1.370  0.00  0.00    -0.073 C 
ATOM     36  H13 8L5 d   1       8.542  36.276  -0.668  0.00  0.00     0.028 H 
ATOM     37  H14 8L5 d   1      10.274  36.169  -1.130  0.00  0.00     0.028 H 
ATOM     38  H15 8L5 d   1       9.018  36.373  -2.398  0.00  0.00     0.028 H 
ENDBRANCH  33  35
BRANCH  33  39
ATOM     39  C05 8L5 d   1       9.754  38.544   0.183  0.00  0.00    -0.073 C 
ATOM     40  H16 8L5 d   1       9.841  39.638   0.254  0.00  0.00     0.028 H 
ATOM     41  H17 8L5 d   1      10.704  38.080   0.485  0.00  0.00     0.028 H 
ATOM     42  H18 8L5 d   1       8.949  38.196   0.847  0.00  0.00     0.028 H 
ENDBRANCH  33  39
ENDBRANCH  30  33
ENDBRANCH  28  30
BRANCH  28  43
ATOM     43  C06 8L5 d   1       8.839  39.450  -3.880  0.00  0.00     0.241 C 
ATOM     44  O02 8L5 d   1       7.735  38.996  -3.833  0.00  0.00    -0.271 OA
ATOM     45  N02 8L5 d   1       9.058  40.833  -4.040  0.00  0.00    -0.336 N 
ATOM     46  H22 8L5 d   1      10.002  41.160  -4.080  0.00  0.00     0.164 HD
BRANCH  45  47
ATOM     47  C07 8L5 d   1       7.991  41.808  -4.150  0.00  0.00     0.139 C 
ATOM     48  H23 8L5 d   1       7.165  41.377  -4.735  0.00  0.00     0.107 H 
ATOM     49  H24 8L5 d   1       8.371  42.706  -4.659  0.00  0.00     0.107 H 
BRANCH  47  50
ATOM     50  N03 8L5 d   1       7.516  42.166  -2.867  0.00  0.00    -0.064 N 
ATOM     51  H25 8L5 d   1       6.776  42.844  -2.960  0.00  0.00     0.276 HD
ATOM     52  H26 8L5 d   1       8.270  42.564  -2.329  0.00  0.00     0.276 HD
ATOM     53  H27 8L5 d   1       7.164  41.346  -2.398  0.00  0.00     0.276 HD
ENDBRANCH  47  50
ENDBRANCH  45  47
ENDBRANCH  28  43
ENDBRANCH   1  28
TORSDOF 14
