REMARK  16 active torsions:
REMARK  status: ('A' for Active; 'I' for Inactive)
REMARK    1  A    between atoms: P2_16  and  C3_1 
REMARK    2  A    between atoms: C3_1  and  N4_18 
REMARK    3  A    between atoms: C8_2  and  C9_3 
REMARK    4  A    between atoms: O7_21  and  C8_2 
REMARK    5  A    between atoms: C16_9  and  C21_12 
REMARK    6  A    between atoms: C16_9  and  N15_22 
REMARK    7  A    between atoms: C17_23  and  C16_9 
REMARK    8  A    between atoms: C18_24  and  C19_10 
REMARK    9  A    between atoms: C18_24  and  C20_11 
REMARK       I    between atoms: C21_12  and  N23_13 
REMARK   10  A    between atoms: N23_13  and  C24_14 
REMARK   11  A    between atoms: C24_14  and  C28_27 
REMARK   12  A    between atoms: C24_14  and  C25_30 
REMARK   13  A    between atoms: C25_30  and  N26_15 
REMARK   14  A    between atoms: N15_22  and  P2_16 
REMARK       I    between atoms: N4_18  and  C5_19 
REMARK   15  A    between atoms: C5_19  and  O7_21 
REMARK   16  A    between atoms: C17_23  and  C18_24 
ROOT
ATOM      1  C16 8L2 d   1      10.063  38.611  -3.668  0.00  0.00     0.091 C 
ATOM      2  H10 8L2 d   1       9.835  37.583  -3.986  0.00  0.00     0.087 H 
ENDROOT
BRANCH   1   3
ATOM      3  C21 8L2 d   1       8.837  39.499  -3.914  0.00  0.00     0.241 C 
ATOM      4  N23 8L2 d   1       9.129  40.813  -4.162  0.00  0.00    -0.343 N 
ATOM      5  H17 8L2 d   1      10.094  41.072  -4.193  0.00  0.00     0.163 HD
ATOM      6  O22 8L2 d   1       7.689  39.084  -3.836  0.00  0.00    -0.271 OA
BRANCH   4   7
ATOM      7  C24 8L2 d   1       8.147  41.862  -4.384  0.00  0.00     0.119 C 
ATOM      8  H18 8L2 d   1       7.157  41.408  -4.537  0.00  0.00     0.092 H 
BRANCH   7   9
ATOM      9  C28 8L2 d   1       8.581  42.657  -5.604  0.00  0.00     0.198 C 
ATOM     10  O29 8L2 d   1       9.691  42.600  -6.062  0.00  0.00    -0.646 OA
ATOM     11  O30 8L2 d   1       7.616  43.411  -6.122  0.00  0.00    -0.646 OA
ENDBRANCH   7   9
BRANCH   7  12
ATOM     12  C25 8L2 d   1       8.082  42.886  -3.262  0.00  0.00     0.107 C 
ATOM     13  H27 8L2 d   1       7.405  43.704  -3.550  0.00  0.00     0.079 H 
ATOM     14  H28 8L2 d   1       9.088  43.291  -3.076  0.00  0.00     0.079 H 
BRANCH  12  15
ATOM     15  N26 8L2 d   1       7.591  42.255  -2.068  0.00  0.00    -0.077 N 
ATOM     16  H19 8L2 d   1       7.547  42.933  -1.323  0.00  0.00     0.274 HD
ATOM     17  H20 8L2 d   1       8.212  41.506  -1.804  0.00  0.00     0.274 HD
ATOM     18  H21 8L2 d   1       6.670  41.884  -2.239  0.00  0.00     0.274 HD
ENDBRANCH  12  15
ENDBRANCH   7  12
ENDBRANCH   4   7
ENDBRANCH   1   3
BRANCH   1  19
ATOM     19  N15 8L2 d   1      11.237  39.112  -4.412  0.00  0.00    -0.334 N 
ATOM     20  H23 8L2 d   1      11.884  39.751  -3.996  0.00  0.00     0.164 HD
BRANCH  19  21
ATOM     21  P2  8L2 d   1      11.441  38.554  -6.007  0.00  0.00     0.224 P 
ATOM     22  O1  8L2 d   1      12.421  37.411  -6.110  0.00  0.00    -0.651 OA
ATOM     23  O27 8L2 d   1      10.092  38.196  -6.563  0.00  0.00    -0.651 OA
BRANCH  21  24
ATOM     24  C3  8L2 d   1      12.145  39.996  -6.846  0.00  0.00     0.086 C 
ATOM     25  H1  8L2 d   1      12.883  40.475  -6.186  0.00  0.00     0.083 H 
ATOM     26  H2  8L2 d   1      11.341  40.710  -7.076  0.00  0.00     0.083 H 
BRANCH  24  27
ATOM     27  N4  8L2 d   1      12.795  39.596  -8.078  0.00  0.00    -0.325 N 
ATOM     28  C5  8L2 d   1      12.819  40.336  -9.198  0.00  0.00     0.361 C 
ATOM     29  O6  8L2 d   1      12.374  41.446  -9.312  0.00  0.00    -0.238 OA
ATOM     30  H22 8L2 d   1      13.257  38.709  -8.095  0.00  0.00     0.165 HD
BRANCH  28  31
ATOM     31  O7  8L2 d   1      13.443  39.644 -10.195  0.00  0.00    -0.299 OA
BRANCH  31  32
ATOM     32  C8  8L2 d   1      13.800  40.358 -11.396  0.00  0.00     0.054 C 
ATOM     33  H3  8L2 d   1      13.404  39.813 -12.265  0.00  0.00     0.082 H 
ATOM     34  H4  8L2 d   1      13.354  41.363 -11.359  0.00  0.00     0.082 H 
BRANCH  32  35
ATOM     35  C9  8L2 d   1      15.299  40.493 -11.544  0.00  0.00    -0.034 A 
ATOM     36  C10 8L2 d   1      16.003  39.868 -12.587  0.00  0.00    -0.075 A 
ATOM     37  C11 8L2 d   1      17.380  39.994 -12.709  0.00  0.00    -0.082 A 
ATOM     38  H5  8L2 d   1      15.459  39.274 -13.312  0.00  0.00     0.084 H 
ATOM     39  C12 8L2 d   1      18.061  40.751 -11.765  0.00  0.00    -0.083 A 
ATOM     40  H6  8L2 d   1      17.911  39.513 -13.522  0.00  0.00     0.083 H 
ATOM     41  C13 8L2 d   1      17.381  41.374 -10.701  0.00  0.00    -0.082 A 
ATOM     42  H7  8L2 d   1      19.136  40.864 -11.849  0.00  0.00     0.083 H 
ATOM     43  C14 8L2 d   1      16.011  41.220 -10.594  0.00  0.00    -0.075 A 
ATOM     44  H8  8L2 d   1      17.925  41.967  -9.975  0.00  0.00     0.083 H 
ATOM     45  H9  8L2 d   1      15.485  41.671  -9.760  0.00  0.00     0.084 H 
ENDBRANCH  32  35
ENDBRANCH  31  32
ENDBRANCH  28  31
ENDBRANCH  24  27
ENDBRANCH  21  24
ENDBRANCH  19  21
ENDBRANCH   1  19
BRANCH   1  46
ATOM     46  C17 8L2 d   1      10.420  38.629  -2.193  0.00  0.00    -0.035 C 
ATOM     47  H24 8L2 d   1      10.623  39.672  -1.907  0.00  0.00     0.037 H 
ATOM     48  H25 8L2 d   1      11.331  38.028  -2.058  0.00  0.00     0.037 H 
BRANCH  46  49
ATOM     49  C18 8L2 d   1       9.351  38.081  -1.245  0.00  0.00    -0.059 C 
ATOM     50  H26 8L2 d   1       8.387  38.524  -1.535  0.00  0.00     0.038 H 
BRANCH  49  51
ATOM     51  C19 8L2 d   1       9.630  38.506   0.199  0.00  0.00    -0.073 C 
ATOM     52  H11 8L2 d   1       8.849  38.100   0.858  0.00  0.00     0.028 H 
ATOM     53  H12 8L2 d   1       9.631  39.604   0.265  0.00  0.00     0.028 H 
ATOM     54  H13 8L2 d   1      10.611  38.119   0.512  0.00  0.00     0.028 H 
ENDBRANCH  49  51
BRANCH  49  55
ATOM     55  C20 8L2 d   1       9.223  36.566  -1.402  0.00  0.00    -0.073 C 
ATOM     56  H14 8L2 d   1       9.024  36.322  -2.456  0.00  0.00     0.028 H 
ATOM     57  H15 8L2 d   1       8.393  36.202  -0.778  0.00  0.00     0.028 H 
ATOM     58  H16 8L2 d   1      10.160  36.084  -1.085  0.00  0.00     0.028 H 
ENDBRANCH  49  55
ENDBRANCH  46  49
ENDBRANCH   1  46
TORSDOF 16
