REMARK  11 active torsions:
REMARK  status: ('A' for Active; 'I' for Inactive)
REMARK    1  A    between atoms: C3_22  and  O3_1 
REMARK    2  A    between atoms: C4_2  and  O4_4 
REMARK    3  A    between atoms: C5_3  and  C6_5 
REMARK    4  A    between atoms: C6_5  and  O6_10 
REMARK    5  A    between atoms: C9_9  and  C8_8 
REMARK       I    between atoms: N11_16  and  C9_9 
REMARK    6  A    between atoms: C13_12  and  C12_11 
REMARK    7  A    between atoms: C12_11  and  N11_16 
REMARK    8  A    between atoms: C14_13  and  C13_12 
REMARK    9  A    between atoms: C15_14  and  C14_13 
REMARK   10  A    between atoms: N16_17  and  C15_14 
REMARK   11  A    between atoms: C2_20  and  O2_21 
ROOT
ATOM      1  N1  8P5 d   1     -10.998 -12.624  -0.668  0.00  0.00     0.068 N 
ATOM      2  N16 8P5 d   1     -10.177 -12.462   1.697  0.00  0.00    -0.116 NA
ATOM      3  N17 8P5 d   1     -10.664 -12.589   0.422  0.00  0.00    -0.168 NA
ENDROOT
BRANCH   2   4
ATOM      4  C15 8P5 d   1      -9.163 -11.447   1.936  0.00  0.00     0.047 C 
ATOM      5  H16 8P5 d   1      -8.178 -11.933   1.993  0.00  0.00     0.071 H 
ATOM      6  H17 8P5 d   1      -9.171 -10.731   1.101  0.00  0.00     0.071 H 
BRANCH   4   7
ATOM      7  C14 8P5 d   1      -9.419 -10.701   3.226  0.00  0.00    -0.044 C 
ATOM      8  H14 8P5 d   1      -8.723  -9.854   3.317  0.00  0.00     0.035 H 
ATOM      9  H15 8P5 d   1     -10.454 -10.329   3.248  0.00  0.00     0.035 H 
BRANCH   7  10
ATOM     10  C13 8P5 d   1      -9.197 -11.675   4.352  0.00  0.00    -0.049 C 
ATOM     11  H12 8P5 d   1     -10.004 -12.422   4.344  0.00  0.00     0.035 H 
ATOM     12  H13 8P5 d   1      -8.230 -12.178   4.205  0.00  0.00     0.035 H 
BRANCH  10  13
ATOM     13  C12 8P5 d   1      -9.189 -10.982   5.672  0.00  0.00    -0.005 C 
ATOM     14  H10 8P5 d   1      -9.927 -11.447   6.341  0.00  0.00     0.064 H 
ATOM     15  H11 8P5 d   1      -9.436  -9.919   5.536  0.00  0.00     0.064 H 
BRANCH  13  16
ATOM     16  N11 8P5 d   1      -7.871 -11.107   6.238  0.00  0.00    -0.361 N 
ATOM     17  C9  8P5 d   1      -7.066 -10.078   6.148  0.00  0.00     0.222 C 
ATOM     18  O10 8P5 d   1      -7.120  -9.254   5.224  0.00  0.00    -0.273 OA
ATOM     19  H18 8P5 d   1      -7.580 -11.953   6.686  0.00  0.00     0.162 HD
BRANCH  17  20
ATOM     20  C8  8P5 d   1      -6.259  -9.770   7.375  0.00  0.00     0.034 A 
ATOM     21  C7  8P5 d   1      -7.076  -9.059   8.486  0.00  0.00    -0.027 A 
ATOM     22  C5  8P5 d   1      -6.448  -7.760   8.932  0.00  0.00    -0.002 C 
ATOM     23  C1  8P5 d   1      -6.471 -10.420   8.756  0.00  0.00    -0.010 A 
ATOM     24  H7  8P5 d   1      -8.171  -8.961   8.444  0.00  0.00     0.043 H 
ATOM     25  C4  8P5 d   1      -4.982  -7.911   9.233  0.00  0.00     0.068 C 
ATOM     26  H3  8P5 d   1      -6.965  -7.385   9.827  0.00  0.00     0.048 H 
ATOM     27  C3  8P5 d   1      -4.793  -9.069  10.234  0.00  0.00     0.086 C 
ATOM     28  H2  8P5 d   1      -4.457  -8.179   8.304  0.00  0.00     0.087 H 
ATOM     29  C2  8P5 d   1      -5.308 -10.455   9.758  0.00  0.00     0.067 C 
ATOM     30  H22 8P5 d   1      -5.335  -8.816  11.157  0.00  0.00     0.090 H 
ATOM     31  H20 8P5 d   1      -4.463 -10.960   9.268  0.00  0.00     0.087 H 
ATOM     32  H19 8P5 d   1      -7.100 -11.317   8.858  0.00  0.00     0.045 H 
ATOM     33  H8  8P5 d   1      -5.246  -9.451   7.088  0.00  0.00     0.056 H 
BRANCH  22  34
ATOM     34  C6  8P5 d   1      -6.615  -6.798   7.786  0.00  0.00     0.023 C 
ATOM     35  H5  8P5 d   1      -7.299  -7.227   7.039  0.00  0.00     0.074 H 
ATOM     36  H6  8P5 d   1      -5.638  -6.605   7.320  0.00  0.00     0.074 H 
BRANCH  34  37
ATOM     37  O6  8P5 d   1      -7.154  -5.584   8.285  0.00  0.00    -0.400 OA
ATOM     38  H9  8P5 d   1      -7.263  -4.969   7.569  0.00  0.00     0.209 HD
ENDBRANCH  34  37
ENDBRANCH  22  34
BRANCH  25  39
ATOM     39  O4  8P5 d   1      -4.449  -6.649   9.692  0.00  0.00    -0.392 OA
ATOM     40  H4  8P5 d   1      -4.567  -5.992   9.016  0.00  0.00     0.210 HD
ENDBRANCH  25  39
BRANCH  27  41
ATOM     41  O3  8P5 d   1      -3.390  -9.136  10.513  0.00  0.00    -0.390 OA
ATOM     42  H1  8P5 d   1      -3.103  -8.311  10.887  0.00  0.00     0.210 HD
ENDBRANCH  27  41
BRANCH  29  43
ATOM     43  O2  8P5 d   1      -5.728 -11.247  10.875  0.00  0.00    -0.392 OA
ATOM     44  H21 8P5 d   1      -6.497 -10.852  11.270  0.00  0.00     0.210 HD
ENDBRANCH  29  43
ENDBRANCH  17  20
ENDBRANCH  13  16
ENDBRANCH  10  13
ENDBRANCH   7  10
ENDBRANCH   4   7
ENDBRANCH   2   4
TORSDOF 11
