REMARK  8 active torsions:
REMARK  status: ('A' for Active; 'I' for Inactive)
REMARK       I    between atoms: CAU_2  and  NAV_3 
REMARK    1  A    between atoms: CAU_2  and  CAR_7 
REMARK    2  A    between atoms: NAV_3  and  CAW_4 
REMARK    3  A    between atoms: CAO_10  and  CAN_13 
REMARK    4  A    between atoms: CAF_18  and  NAG_22 
REMARK    5  A    between atoms: NAG_22  and  CAH_23 
REMARK    6  A    between atoms: CAH_23  and  CAI_24 
REMARK    7  A    between atoms: CAI_24  and  CAJ_25 
REMARK    8  A    between atoms: CAI_24  and  CAK_26 
ROOT
ATOM      1  CAN 8Q5 d   1      36.734  43.196  38.607  0.00  0.00     0.068 A 
ATOM      2  NAD 8Q5 d   1      36.175  43.453  39.807  0.00  0.00    -0.300 N 
ATOM      3  CAC 8Q5 d   1      36.161  42.847  41.032  0.00  0.00     0.004 A 
ATOM      4  CAB 8Q5 d   1      35.468  43.404  42.131  0.00  0.00     0.020 A 
ATOM      5  NAA 8Q5 d   1      34.783  44.560  42.013  0.00  0.00    -0.239 NA
ATOM      6  CAF 8Q5 d   1      34.761  45.220  40.825  0.00  0.00     0.170 A 
ATOM      7  CAE 8Q5 d   1      35.496  44.628  39.652  0.00  0.00     0.180 A 
ATOM      8  NAL 8Q5 d   1      35.621  45.075  38.369  0.00  0.00    -0.237 NA
ATOM      9  CAM 8Q5 d   1      36.390  44.179  37.701  0.00  0.00     0.032 A 
ATOM     10  H11 8Q5 d   1      36.699  41.909  41.165  0.00  0.00     0.114 H 
ATOM     11  H12 8Q5 d   1      35.487  42.890  43.091  0.00  0.00     0.117 H 
ATOM     12  H13 8Q5 d   1      36.680  44.226  36.652  0.00  0.00     0.118 H 
ENDROOT
BRANCH   1  13
ATOM     13  CAO 8Q5 d   1      37.521  41.961  38.408  0.00  0.00    -0.007 A 
ATOM     14  CAP 8Q5 d   1      37.323  41.277  37.228  0.00  0.00    -0.070 A 
ATOM     15  CAQ 8Q5 d   1      38.018  40.075  36.962  0.00  0.00    -0.067 A 
ATOM     16  H8  8Q5 d   1      36.626  41.666  36.495  0.00  0.00     0.084 H 
ATOM     17  CAR 8Q5 d   1      38.934  39.546  37.908  0.00  0.00     0.032 A 
ATOM     18  H7  8Q5 d   1      37.850  39.553  36.027  0.00  0.00     0.085 H 
ATOM     19  CAS 8Q5 d   1      39.132  40.260  39.110  0.00  0.00    -0.067 A 
ATOM     20  CAT 8Q5 d   1      38.423  41.450  39.349  0.00  0.00    -0.070 A 
ATOM     21  H10 8Q5 d   1      39.832  39.890  39.850  0.00  0.00     0.085 H 
ATOM     22  H9  8Q5 d   1      38.578  41.983  40.280  0.00  0.00     0.084 H 
BRANCH  17  23
ATOM     23  CAU 8Q5 d   1      39.726  38.267  37.681  0.00  0.00     0.252 C 
ATOM     24  OAZ 8Q5 d   1      40.722  38.156  38.359  0.00  0.00    -0.268 OA
ATOM     25  NAV 8Q5 d   1      39.388  37.326  36.777  0.00  0.00    -0.352 N 
ATOM     26  H1  8Q5 d   1      38.582  37.484  36.206  0.00  0.00     0.163 HD
BRANCH  25  27
ATOM     27  CAW 8Q5 d   1      40.146  36.075  36.586  0.00  0.00     0.012 A 
ATOM     28  CAY 8Q5 d   1      39.829  35.437  35.224  0.00  0.00    -0.044 A 
ATOM     29  CAX 8Q5 d   1      41.247  35.922  35.514  0.00  0.00    -0.044 A 
ATOM     30  H3  8Q5 d   1      39.203  35.976  34.498  0.00  0.00     0.036 H 
ATOM     31  H4  8Q5 d   1      39.621  34.359  35.158  0.00  0.00     0.036 H 
ATOM     32  H5  8Q5 d   1      42.058  35.194  35.659  0.00  0.00     0.036 H 
ATOM     33  H6  8Q5 d   1      41.640  36.811  34.999  0.00  0.00     0.036 H 
ATOM     34  H2  8Q5 d   1      40.214  35.503  37.523  0.00  0.00     0.072 H 
ENDBRANCH  25  27
ENDBRANCH  17  23
ENDBRANCH   1  13
BRANCH   6  35
ATOM     35  NAG 8Q5 d   1      34.117  46.409  40.670  0.00  0.00    -0.371 N 
ATOM     36  H14 8Q5 d   1      34.027  46.802  39.722  0.00  0.00     0.161 HD
BRANCH  35  37
ATOM     37  CAH 8Q5 d   1      33.547  47.152  41.794  0.00  0.00    -0.003 C 
ATOM     38  H15 8Q5 d   1      33.152  46.431  42.525  0.00  0.00     0.064 H 
ATOM     39  H16 8Q5 d   1      32.726  47.779  41.417  0.00  0.00     0.064 H 
BRANCH  37  40
ATOM     40  CAI 8Q5 d   1      34.574  48.065  42.510  0.00  0.00    -0.046 C 
ATOM     41  H17 8Q5 d   1      35.451  47.440  42.735  0.00  0.00     0.041 H 
BRANCH  40  42
ATOM     42  CAJ 8Q5 d   1      35.058  49.221  41.621  0.00  0.00    -0.072 C 
ATOM     43  H18 8Q5 d   1      35.782  49.834  42.178  0.00  0.00     0.028 H 
ATOM     44  H19 8Q5 d   1      34.199  49.843  41.329  0.00  0.00     0.028 H 
ATOM     45  H20 8Q5 d   1      35.539  48.814  40.720  0.00  0.00     0.028 H 
ENDBRANCH  40  42
BRANCH  40  46
ATOM     46  CAK 8Q5 d   1      34.046  48.601  43.843  0.00  0.00    -0.072 C 
ATOM     47  H21 8Q5 d   1      33.704  47.761  44.466  0.00  0.00     0.028 H 
ATOM     48  H22 8Q5 d   1      33.205  49.285  43.656  0.00  0.00     0.028 H 
ATOM     49  H23 8Q5 d   1      34.849  49.142  44.365  0.00  0.00     0.028 H 
ENDBRANCH  40  46
ENDBRANCH  37  40
ENDBRANCH  35  37
ENDBRANCH   6  35
TORSDOF 8
