REMARK  9 active torsions:
REMARK  status: ('A' for Active; 'I' for Inactive)
REMARK    1  A    between atoms: C1_1  and  C21_22 
REMARK    2  A    between atoms: N7_19  and  C4_3 
REMARK    3  A    between atoms: C8_5  and  N7_19 
REMARK    4  A    between atoms: C13_7  and  N16_13 
REMARK    5  A    between atoms: C9_10  and  N14_11 
REMARK    6  A    between atoms: N16_13  and  C17_14 
REMARK    7  A    between atoms: C17_14  and  C20_15 
REMARK    8  A    between atoms: C17_14  and  C19_16 
REMARK    9  A    between atoms: C17_14  and  C18_17 
REMARK       I    between atoms: C21_22  and  N23_24 
ROOT
ATOM      1  C8  8QE d   1      -0.066  33.143  45.827  0.00  0.00     0.132 A 
ATOM      2  C11 8QE d   1      -1.749  32.902  43.630  0.00  0.00     0.116 A 
ATOM      3  C13 8QE d   1      -1.394  34.221  44.226  0.00  0.00     0.149 A 
ATOM      4  C15 8QE d   1      -2.575  32.775  42.679  0.00  0.00     0.105 C 
ATOM      5  N24 8QE d   1      -3.370  32.602  41.842  0.00  0.00    -0.191 NA
ATOM      6  C9  8QE d   1      -1.191  31.711  44.271  0.00  0.00     0.054 A 
ATOM      7  C10 8QE d   1      -0.351  31.883  45.349  0.00  0.00    -0.012 A 
ATOM      8  N12 8QE d   1      -0.566  34.265  45.257  0.00  0.00    -0.212 NA
ATOM      9  H5  8QE d   1       0.091  31.016  45.827  0.00  0.00     0.092 H 
ENDROOT
BRANCH   3  10
ATOM     10  N16 8QE d   1      -1.930  35.329  43.618  0.00  0.00    -0.365 N 
ATOM     11  H6  8QE d   1      -2.699  35.207  42.944  0.00  0.00     0.162 HD
BRANCH  10  12
ATOM     12  C17 8QE d   1      -1.442  36.670  43.899  0.00  0.00     0.021 C 
BRANCH  12  13
ATOM     13  C20 8QE d   1      -1.945  37.083  45.275  0.00  0.00    -0.054 C 
ATOM     14  H7  8QE d   1      -1.586  38.097  45.508  0.00  0.00     0.030 H 
ATOM     15  H8  8QE d   1      -1.567  36.378  46.030  0.00  0.00     0.030 H 
ATOM     16  H9  8QE d   1      -3.045  37.073  45.282  0.00  0.00     0.030 H 
ENDBRANCH  12  13
BRANCH  12  17
ATOM     17  C19 8QE d   1      -2.159  37.453  42.800  0.00  0.00    -0.054 C 
ATOM     18  H10 8QE d   1      -1.891  38.517  42.873  0.00  0.00     0.030 H 
ATOM     19  H11 8QE d   1      -3.247  37.340  42.919  0.00  0.00     0.030 H 
ATOM     20  H12 8QE d   1      -1.856  37.065  41.816  0.00  0.00     0.030 H 
ENDBRANCH  12  17
BRANCH  12  21
ATOM     21  C18 8QE d   1       0.049  36.814  43.786  0.00  0.00    -0.054 C 
ATOM     22  H13 8QE d   1       0.335  37.852  44.013  0.00  0.00     0.030 H 
ATOM     23  H14 8QE d   1       0.365  36.561  42.763  0.00  0.00     0.030 H 
ATOM     24  H15 8QE d   1       0.538  36.135  44.499  0.00  0.00     0.030 H 
ENDBRANCH  12  21
ENDBRANCH  10  12
ENDBRANCH   3  10
BRANCH   6  25
ATOM     25  N14 8QE d   1      -1.495  30.358  43.774  0.00  0.00    -0.398 N 
ATOM     26  H3  8QE d   1      -1.090  29.535  44.242  0.00  0.00     0.156 HD
ATOM     27  H4  8QE d   1      -2.112  30.235  42.959  0.00  0.00     0.156 HD
ENDBRANCH   6  25
BRANCH   1  28
ATOM     28  N7  8QE d   1       0.803  33.139  46.913  0.00  0.00    -0.341 N 
ATOM     29  H16 8QE d   1       1.266  32.257  47.176  0.00  0.00     0.167 HD
BRANCH  28  30
ATOM     30  C4  8QE d   1       1.074  34.304  47.669  0.00  0.00     0.033 A 
ATOM     31  C2  8QE d   1       1.407  34.082  48.995  0.00  0.00    -0.056 A 
ATOM     32  C3  8QE d   1       1.682  35.140  49.842  0.00  0.00    -0.066 A 
ATOM     33  H1  8QE d   1       1.453  33.067  49.373  0.00  0.00     0.086 H 
ATOM     34  C1  8QE d   1       1.648  36.430  49.351  0.00  0.00     0.032 A 
ATOM     35  H17 8QE d   1       1.922  34.958  50.883  0.00  0.00     0.085 H 
ATOM     36  C5  8QE d   1       1.340  36.657  48.012  0.00  0.00    -0.066 A 
ATOM     37  C6  8QE d   1       1.070  35.594  47.173  0.00  0.00    -0.056 A 
ATOM     38  H18 8QE d   1       1.312  37.670  47.628  0.00  0.00     0.085 H 
ATOM     39  H2  8QE d   1       0.855  35.771  46.125  0.00  0.00     0.086 H 
BRANCH  34  40
ATOM     40  C21 8QE d   1       1.976  37.577  50.260  0.00  0.00     0.249 C 
ATOM     41  O22 8QE d   1       1.886  37.474  51.471  0.00  0.00    -0.268 OA
ATOM     42  N23 8QE d   1       2.418  38.776  49.665  0.00  0.00    -0.366 N 
ATOM     43  H19 8QE d   1       2.647  39.564  50.237  0.00  0.00     0.159 HD
ATOM     44  H20 8QE d   1       2.503  38.839  48.671  0.00  0.00     0.159 HD
ENDBRANCH  34  40
ENDBRANCH  28  30
ENDBRANCH   1  28
TORSDOF 9
