REMARK  10 active torsions:
REMARK  status: ('A' for Active; 'I' for Inactive)
REMARK    1  A    between atoms: CA_2  and  CB_5 
REMARK    2  A    between atoms: CB_5  and  CG_6 
REMARK       I    between atoms: CG_6  and  ND2_8 
REMARK    3  A    between atoms: CA_10  and  CB_13 
REMARK    4  A    between atoms: CB_13  and  CG_14 
REMARK    5  A    between atoms: CG_14  and  CD_15 
REMARK       I    between atoms: CD_15  and  NE2_17 
REMARK    6  A    between atoms: CA_26  and  CB_29 
REMARK    7  A    between atoms: CB_29  and  CG_30 
REMARK    8  A    between atoms: CA_40  and  CB_43 
REMARK    9  A    between atoms: CB_43  and  CG_44 
REMARK   10  A    between atoms: CG_44  and  CD_45 
REMARK       I    between atoms: CD_45  and  NE2_47 
ROOT
ATOM      1  N   ASN d   1      72.067  49.566  32.700  0.00  0.00    -0.077 NA
ATOM      2  CA  ASN d   1      71.150  50.388  31.893  0.00  0.00     0.256 A 
ATOM      3  C   ASN d   1      69.838  50.644  32.650  0.00  0.00     0.273 C 
ATOM      4  O   ASN d   1      69.291  51.747  32.596  0.00  0.00    -0.268 OA
ATOM      5  N   GLN d   1      69.352  49.607  33.317  0.00  0.00    -0.344 N 
ATOM      6  CA  GLN d   1      68.302  49.678  34.318  0.00  0.00     0.090 C 
ATOM      7  C   GLN d   1      68.930  49.218  35.628  0.00  0.00     0.243 C 
ATOM      8  O   GLN d   1      69.821  48.339  35.638  0.00  0.00    -0.271 OA
ATOM      9  N   GLN d   1      72.749  48.869  36.159  0.00  0.00    -0.346 N 
ATOM     10  CA  GLN d   1      73.286  48.984  34.806  0.00  0.00     0.087 C 
ATOM     11  C   GLN d   1      72.307  49.856  33.997  0.00  0.00     0.249 C 
ATOM     12  O   GLN d   1      71.783  50.814  34.553  0.00  0.00    -0.275 OA
ATOM     13  OXT GLN d   1      72.090  49.558  32.828  0.00  0.00    -0.252 OA
ATOM     14  H5  GLN d   1      69.738  48.707  33.116  0.00  0.00     0.163 HD
ATOM     15  H6  GLN d   1      67.930  50.709  34.407  0.00  0.00     0.087 H 
ATOM     16  H30 GLN d   1      71.793  48.598  36.273  0.00  0.00     0.163 HD
ATOM     17  H31 GLN d   1      74.259  49.496  34.846  0.00  0.00     0.086 H 
ATOM     18  N   DPR d   1      68.446  49.710  36.777  0.00  0.00    -0.337 N 
ATOM     19  CA  DPR d   1      69.012  49.215  38.039  0.00  0.00     0.091 C 
ATOM     20  CB  DPR d   1      68.129  49.838  39.129  0.00  0.00    -0.036 C 
ATOM     21  CG  DPR d   1      67.437  50.998  38.466  0.00  0.00    -0.048 C 
ATOM     22  CD  DPR d   1      67.375  50.717  36.984  0.00  0.00    -0.001 C 
ATOM     23  C   DPR d   1      70.459  49.668  38.182  0.00  0.00     0.241 C 
ATOM     24  O   DPR d   1      70.763  50.849  38.002  0.00  0.00    -0.271 OA
ATOM     25  H13 DPR d   1      68.965  48.117  38.083  0.00  0.00     0.087 H 
ATOM     26  H14 DPR d   1      68.745  50.187  39.971  0.00  0.00     0.036 H 
ATOM     27  H15 DPR d   1      67.392  49.107  39.492  0.00  0.00     0.036 H 
ATOM     28  H16 DPR d   1      68.003  51.924  38.647  0.00  0.00     0.035 H 
ATOM     29  H17 DPR d   1      66.419  51.105  38.869  0.00  0.00     0.035 H 
ATOM     30  H18 DPR d   1      66.393  50.310  36.702  0.00  0.00     0.064 H 
ATOM     31  H19 DPR d   1      67.575  51.629  36.402  0.00  0.00     0.064 H 
ATOM     32  N   TRP d   1      71.360  48.702  38.469  0.00  0.00    -0.346 N 
ATOM     33  CA  TRP d   1      72.769  49.039  38.625  0.00  0.00     0.093 C 
ATOM     34  C   TRP d   1      73.480  49.110  37.253  0.00  0.00     0.241 C 
ATOM     35  O   TRP d   1      74.693  49.378  37.206  0.00  0.00    -0.271 OA
ATOM     36  H20 TRP d   1      71.059  47.754  38.575  0.00  0.00     0.163 HD
ATOM     37  H21 TRP d   1      72.843  50.023  39.112  0.00  0.00     0.088 H 
ENDROOT
BRANCH  33  38
ATOM     38  CB  TRP d   1      73.458  47.999  39.503  0.00  0.00    -0.012 C 
ATOM     39  H22 TRP d   1      74.545  48.135  39.404  0.00  0.00     0.044 H 
ATOM     40  H23 TRP d   1      73.178  47.001  39.134  0.00  0.00     0.044 H 
BRANCH  38  41
ATOM     41  CG  TRP d   1      73.109  48.071  40.966  0.00  0.00    -0.028 A 
ATOM     42  CD1 TRP d   1      71.886  48.315  41.528  0.00  0.00    -0.015 A 
ATOM     43  NE1 TRP d   1      71.972  48.205  42.908  0.00  0.00    -0.365 N 
ATOM     44  H24 TRP d   1      70.980  48.559  40.975  0.00  0.00     0.112 H 
ATOM     45  CE2 TRP d   1      73.269  47.942  43.253  0.00  0.00     0.042 A 
ATOM     46  H25 TRP d   1      71.186  48.305  43.566  0.00  0.00     0.165 HD
ATOM     47  CD2 TRP d   1      74.008  47.815  42.053  0.00  0.00    -0.002 A 
ATOM     48  CZ2 TRP d   1      73.848  47.744  44.520  0.00  0.00    -0.056 A 
ATOM     49  CE3 TRP d   1      75.377  47.523  42.127  0.00  0.00    -0.070 A 
ATOM     50  CZ3 TRP d   1      75.956  47.320  43.377  0.00  0.00    -0.082 A 
ATOM     51  H26 TRP d   1      75.975  47.456  41.226  0.00  0.00     0.084 H 
ATOM     52  CH2 TRP d   1      75.200  47.448  44.560  0.00  0.00    -0.081 A 
ATOM     53  H28 TRP d   1      77.006  47.059  43.442  0.00  0.00     0.083 H 
ATOM     54  H29 TRP d   1      75.686  47.312  45.519  0.00  0.00     0.083 H 
ATOM     55  H27 TRP d   1      73.260  47.820  45.427  0.00  0.00     0.086 H 
ENDBRANCH  38  41
ENDBRANCH  33  38
BRANCH  10  56
ATOM     56  CB  GLN d   1      73.511  47.588  34.197  0.00  0.00    -0.030 C 
ATOM     57  H32 GLN d   1      73.900  47.701  33.174  0.00  0.00     0.037 H 
ATOM     58  H33 GLN d   1      72.552  47.051  34.167  0.00  0.00     0.037 H 
BRANCH  56  59
ATOM     59  CG  GLN d   1      74.526  46.765  35.037  0.00  0.00     0.011 C 
ATOM     60  H34 GLN d   1      74.152  46.696  36.069  0.00  0.00     0.047 H 
ATOM     61  H35 GLN d   1      75.493  47.290  35.032  0.00  0.00     0.047 H 
BRANCH  59  62
ATOM     62  CD  GLN d   1      74.734  45.377  34.510  0.00  0.00     0.215 C 
ATOM     63  OE1 GLN d   1      75.875  44.920  34.340  0.00  0.00    -0.274 OA
ATOM     64  NE2 GLN d   1      73.654  44.702  34.279  0.00  0.00    -0.370 N 
ATOM     65  H36 GLN d   1      73.714  43.768  33.926  0.00  0.00     0.159 HD
ATOM     66  H37 GLN d   1      72.760  45.114  34.453  0.00  0.00     0.159 HD
ENDBRANCH  59  62
ENDBRANCH  56  59
ENDBRANCH  10  56
BRANCH   6  67
ATOM     67  CB  GLN d   1      67.135  48.732  33.963  0.00  0.00    -0.030 C 
ATOM     68  H7  GLN d   1      66.451  48.659  34.822  0.00  0.00     0.037 H 
ATOM     69  H8  GLN d   1      67.534  47.735  33.725  0.00  0.00     0.037 H 
BRANCH  67  70
ATOM     70  CG  GLN d   1      66.376  49.272  32.758  0.00  0.00     0.011 C 
ATOM     71  H9  GLN d   1      66.953  49.032  31.853  0.00  0.00     0.047 H 
ATOM     72  H10 GLN d   1      66.297  50.364  32.863  0.00  0.00     0.047 H 
BRANCH  70  73
ATOM     73  CD  GLN d   1      64.995  48.719  32.591  0.00  0.00     0.215 C 
ATOM     74  OE1 GLN d   1      64.197  48.629  33.540  0.00  0.00    -0.274 OA
ATOM     75  NE2 GLN d   1      64.660  48.449  31.340  0.00  0.00    -0.370 N 
ATOM     76  H11 GLN d   1      63.755  48.076  31.134  0.00  0.00     0.159 HD
ATOM     77  H12 GLN d   1      65.311  48.618  30.600  0.00  0.00     0.159 HD
ENDBRANCH  70  73
ENDBRANCH  67  70
ENDBRANCH   6  67
BRANCH   2  78
ATOM     78  CB  ASN d   1      70.839  49.657  30.599  0.00  0.00     0.063 C 
ATOM     79  H1  ASN d   1      70.127  50.270  30.027  0.00  0.00     0.054 H 
ATOM     80  H2  ASN d   1      70.371  48.696  30.857  0.00  0.00     0.054 H 
BRANCH  78  81
ATOM     81  CG  ASN d   1      72.017  49.374  29.716  0.00  0.00     0.220 C 
ATOM     82  OD1 ASN d   1      73.144  49.174  30.180  0.00  0.00    -0.274 OA
ATOM     83  ND2 ASN d   1      71.774  49.282  28.402  0.00  0.00    -0.370 N 
ATOM     84  H3  ASN d   1      72.523  49.095  27.767  0.00  0.00     0.159 HD
ATOM     85  H4  ASN d   1      70.843  49.401  28.056  0.00  0.00     0.159 HD
ENDBRANCH  78  81
ENDBRANCH   2  78
TORSDOF 10
