REMARK  7 active torsions:
REMARK  status: ('A' for Active; 'I' for Inactive)
REMARK    1  A    between atoms: C12_5  and  C13_6 
REMARK       I    between atoms: N2_15  and  C12_5 
REMARK    2  A    between atoms: C13_6  and  C14_7 
REMARK    3  A    between atoms: C14_7  and  C21_8 
REMARK    4  A    between atoms: C14_7  and  C15_9 
REMARK    5  A    between atoms: C7_20  and  O1_21 
REMARK    6  A    between atoms: C6_22  and  C7_20 
REMARK    7  A    between atoms: N1_23  and  C6_22 
ROOT
ATOM      1  O2  8RN d   1      26.319  14.079 -11.985  0.00  0.00    -0.273 OA
ATOM      2  C12 8RN d   1      27.503  13.981 -12.220  0.00  0.00     0.220 C 
ATOM      3  N2  8RN d   1      28.365  13.930 -11.143  0.00  0.00    -0.352 N 
ATOM      4  C9  8RN d   1      29.747  14.452 -11.193  0.00  0.00     0.000 C 
ATOM      5  C8  8RN d   1      30.673  13.563 -10.345  0.00  0.00    -0.020 C 
ATOM      6  C10 8RN d   1      27.873  13.933  -9.741  0.00  0.00     0.000 C 
ATOM      7  C11 8RN d   1      28.699  12.982  -8.851  0.00  0.00    -0.020 C 
ATOM      8  C7  8RN d   1      30.187  13.392  -8.874  0.00  0.00     0.077 C 
ATOM      9  H12 8RN d   1      29.764  15.478 -10.797  0.00  0.00     0.064 H 
ATOM     10  H13 8RN d   1      30.098  14.455 -12.235  0.00  0.00     0.064 H 
ATOM     11  H14 8RN d   1      31.675  14.016 -10.331  0.00  0.00     0.040 H 
ATOM     12  H15 8RN d   1      30.727  12.569 -10.813  0.00  0.00     0.040 H 
ATOM     13  H16 8RN d   1      26.822  13.610  -9.730  0.00  0.00     0.064 H 
ATOM     14  H17 8RN d   1      27.947  14.954  -9.338  0.00  0.00     0.064 H 
ATOM     15  H18 8RN d   1      28.599  11.953  -9.227  0.00  0.00     0.040 H 
ATOM     16  H19 8RN d   1      28.324  13.033  -7.818  0.00  0.00     0.040 H 
ENDROOT
BRANCH   2  17
ATOM     17  C13 8RN d   1      27.944  13.850 -13.690  0.00  0.00     0.016 C 
ATOM     18  H1  8RN d   1      28.997  14.159 -13.763  0.00  0.00     0.048 H 
ATOM     19  H2  8RN d   1      27.321  14.523 -14.298  0.00  0.00     0.048 H 
BRANCH  17  20
ATOM     20  C14 8RN d   1      27.817  12.413 -14.268  0.00  0.00    -0.024 C 
ATOM     21  H3  8RN d   1      26.747  12.157 -14.281  0.00  0.00     0.047 H 
BRANCH  20  22
ATOM     22  C21 8RN d   1      28.306  12.402 -15.733  0.00  0.00    -0.068 C 
ATOM     23  H4  8RN d   1      28.216  11.385 -16.142  0.00  0.00     0.028 H 
ATOM     24  H5  8RN d   1      29.358  12.721 -15.771  0.00  0.00     0.028 H 
ATOM     25  H6  8RN d   1      27.692  13.093 -16.330  0.00  0.00     0.028 H 
ENDBRANCH  20  22
BRANCH  20  26
ATOM     26  C15 8RN d   1      28.508  11.365 -13.384  0.00  0.00    -0.054 A 
ATOM     27  C20 8RN d   1      27.741  10.690 -12.438  0.00  0.00    -0.076 A 
ATOM     28  C19 8RN d   1      28.312   9.750 -11.601  0.00  0.00    -0.082 A 
ATOM     29  H7  8RN d   1      26.682  10.905 -12.357  0.00  0.00     0.084 H 
ATOM     30  C18 8RN d   1      29.661   9.453 -11.700  0.00  0.00    -0.083 A 
ATOM     31  H8  8RN d   1      27.701   9.243 -10.863  0.00  0.00     0.083 H 
ATOM     32  C17 8RN d   1      30.440  10.116 -12.635  0.00  0.00    -0.082 A 
ATOM     33  H9  8RN d   1      30.105   8.707 -11.051  0.00  0.00     0.083 H 
ATOM     34  C16 8RN d   1      29.866  11.067 -13.460  0.00  0.00    -0.076 A 
ATOM     35  H10 8RN d   1      31.497   9.890 -12.720  0.00  0.00     0.083 H 
ATOM     36  H11 8RN d   1      30.485  11.590 -14.179  0.00  0.00     0.084 H 
ENDBRANCH  20  26
ENDBRANCH  17  20
ENDBRANCH   2  17
BRANCH   8  37
ATOM     37  O1  8RN d   1      30.310  14.675  -8.255  0.00  0.00    -0.388 OA
ATOM     38  H20 8RN d   1      31.222  14.942  -8.261  0.00  0.00     0.210 HD
ENDBRANCH   8  37
BRANCH   8  39
ATOM     39  C6  8RN d   1      31.053  12.351  -8.119  0.00  0.00     0.032 C 
ATOM     40  H21 8RN d   1      31.044  11.395  -8.663  0.00  0.00     0.069 H 
ATOM     41  H22 8RN d   1      30.654  12.200  -7.105  0.00  0.00     0.069 H 
BRANCH  39  42
ATOM     42  N1  8RN d   1      32.433  12.867  -8.040  0.00  0.00    -0.305 N 
ATOM     43  C2  8RN d   1      32.734  13.772  -7.017  0.00  0.00     0.069 A 
ATOM     44  N   8RN d   1      33.911  14.330  -6.880  0.00  0.00    -0.241 NA
ATOM     45  H23 8RN d   1      31.953  14.024  -6.301  0.00  0.00     0.143 H 
ATOM     46  C1  8RN d   1      34.947  13.991  -7.855  0.00  0.00     0.098 A 
ATOM     47  C   8RN d   1      34.693  13.122  -8.879  0.00  0.00     0.103 A 
ATOM     48  C5  8RN d   1      36.243  14.480  -7.878  0.00  0.00     0.047 A 
ATOM     49  C3  8RN d   1      33.382  12.515  -9.003  0.00  0.00     0.268 A 
ATOM     50  S   8RN d   1      36.006  12.960  -9.778  0.00  0.00    -0.093 SA
ATOM     51  O   8RN d   1      33.138  11.751  -9.905  0.00  0.00    -0.266 OA
ATOM     52  C4  8RN d   1      36.980  13.952  -8.940  0.00  0.00    -0.025 A 
ATOM     53  H24 8RN d   1      38.023  14.168  -9.166  0.00  0.00     0.097 H 
ATOM     54 BR   8RN d   1      36.855  15.712  -6.579  0.00  0.00    -0.048 Br
ENDBRANCH  39  42
ENDBRANCH   8  39
TORSDOF 7
