REMARK  8 active torsions:
REMARK  status: ('A' for Active; 'I' for Inactive)
REMARK    1  A    between atoms: CAY_5  and  OAS_6 
REMARK    2  A    between atoms: OAS_6  and  CAB_7 
REMARK    3  A    between atoms: CAX_8  and  OAR_9 
REMARK    4  A    between atoms: OAR_9  and  CAA_10 
REMARK    5  A    between atoms: CAT_14  and  CAD_15 
REMARK    6  A    between atoms: CAD_15  and  CBA_16 
REMARK    7  A    between atoms: NBB_21  and  CAQ_22 
REMARK    8  A    between atoms: CAQ_22  and  CAV_23 
ROOT
ATOM      1  CBA DZ7 d   1     170.485  29.300 182.329  0.00  0.00    -0.047 C 
ATOM      2  CAM DZ7 d   1     170.570  28.819 180.856  0.00  0.00    -0.039 C 
ATOM      3  CAO DZ7 d   1     171.865  29.216 180.270  0.00  0.00     0.084 C 
ATOM      4  CAL DZ7 d   1     170.494  30.776 182.407  0.00  0.00    -0.039 C 
ATOM      5  CAN DZ7 d   1     171.823  31.185 181.731  0.00  0.00     0.084 C 
ATOM      6  NBB DZ7 d   1     171.924  30.702 180.310  0.00  0.00    -0.067 N 
ATOM      7  H12 DZ7 d   1     171.386  28.960 182.862  0.00  0.00     0.040 H 
ATOM      8  H13 DZ7 d   1     169.753  29.274 180.276  0.00  0.00     0.035 H 
ATOM      9  H14 DZ7 d   1     170.476  27.724 180.824  0.00  0.00     0.035 H 
ATOM     10  H15 DZ7 d   1     171.933  28.863 179.230  0.00  0.00     0.076 H 
ATOM     11  H16 DZ7 d   1     172.692  28.789 180.857  0.00  0.00     0.076 H 
ATOM     12  H17 DZ7 d   1     170.470  31.111 183.454  0.00  0.00     0.035 H 
ATOM     13  H18 DZ7 d   1     169.635  31.200 181.867  0.00  0.00     0.035 H 
ATOM     14  H19 DZ7 d   1     172.657  30.759 182.308  0.00  0.00     0.076 H 
ATOM     15  H20 DZ7 d   1     171.897  32.282 181.736  0.00  0.00     0.076 H 
ATOM     16  H21 DZ7 d   1     171.105  31.037 179.827  0.00  0.00     0.280 HD
ENDROOT
BRANCH   1  17
ATOM     17  CAD DZ7 d   1     169.280  28.548 182.943  0.00  0.00    -0.034 C 
ATOM     18  H10 DZ7 d   1     168.906  27.964 182.089  0.00  0.00     0.040 H 
ATOM     19  H11 DZ7 d   1     169.765  27.874 183.664  0.00  0.00     0.040 H 
BRANCH  17  20
ATOM     20  CAT DZ7 d   1     168.124  28.892 183.593  0.00  0.00    -0.006 A 
ATOM     21  CAU DZ7 d   1     167.189  28.030 184.032  0.00  0.00     0.189 A 
ATOM     22  OAC DZ7 d   1     167.247  26.800 183.886  0.00  0.00    -0.287 OA
ATOM     23  CAZ DZ7 d   1     166.198  28.738 184.674  0.00  0.00     0.028 A 
ATOM     24  CAK DZ7 d   1     165.108  28.245 185.268  0.00  0.00    -0.033 A 
ATOM     25  CAW DZ7 d   1     166.499  30.071 184.598  0.00  0.00    -0.018 A 
ATOM     26  CAY DZ7 d   1     164.181  29.081 185.878  0.00  0.00     0.102 A 
ATOM     27  H1  DZ7 d   1     164.944  27.174 185.274  0.00  0.00     0.089 H 
ATOM     28  CAX DZ7 d   1     164.466  30.412 185.873  0.00  0.00     0.102 A 
ATOM     29  CAJ DZ7 d   1     165.640  30.910 185.217  0.00  0.00    -0.037 A 
ATOM     30  H8  DZ7 d   1     165.841  31.975 185.218  0.00  0.00     0.089 H 
ATOM     31  CAP DZ7 d   1     167.709  30.191 183.936  0.00  0.00    -0.062 A 
ATOM     32  H9  DZ7 d   1     168.240  31.117 183.721  0.00  0.00     0.085 H 
BRANCH  26  33
ATOM     33  OAS DZ7 d   1     163.010  28.720 186.523  0.00  0.00    -0.353 OA
BRANCH  33  34
ATOM     34  CAB DZ7 d   1     162.579  27.342 186.388  0.00  0.00     0.010 C 
ATOM     35  H2  DZ7 d   1     161.643  27.194 186.946  0.00  0.00     0.066 H 
ATOM     36  H3  DZ7 d   1     163.355  26.674 186.791  0.00  0.00     0.066 H 
ATOM     37  H4  DZ7 d   1     162.413  27.112 185.325  0.00  0.00     0.066 H 
ENDBRANCH  33  34
ENDBRANCH  26  33
BRANCH  28  38
ATOM     38  OAR DZ7 d   1     163.477  31.083 186.478  0.00  0.00    -0.353 OA
BRANCH  38  39
ATOM     39  CAA DZ7 d   1     163.651  32.504 186.519  0.00  0.00     0.010 C 
ATOM     40  H5  DZ7 d   1     162.793  32.964 187.032  0.00  0.00     0.066 H 
ATOM     41  H6  DZ7 d   1     163.717  32.895 185.493  0.00  0.00     0.066 H 
ATOM     42  H7  DZ7 d   1     164.576  32.745 187.064  0.00  0.00     0.066 H 
ENDBRANCH  38  39
ENDBRANCH  28  38
ENDBRANCH  17  20
ENDBRANCH   1  17
BRANCH   6  43
ATOM     43  CAQ DZ7 d   1     173.111  31.285 179.582  0.00  0.00     0.107 C 
ATOM     44  H22 DZ7 d   1     174.032  30.889 180.034  0.00  0.00     0.083 H 
ATOM     45  H23 DZ7 d   1     173.090  32.379 179.692  0.00  0.00     0.083 H 
BRANCH  43  46
ATOM     46  CAV DZ7 d   1     173.109  30.959 178.169  0.00  0.00    -0.033 A 
ATOM     47  CAH DZ7 d   1     172.273  31.705 177.302  0.00  0.00    -0.075 A 
ATOM     48  CAF DZ7 d   1     172.192  31.435 175.926  0.00  0.00    -0.082 A 
ATOM     49  H24 DZ7 d   1     171.676  32.511 177.714  0.00  0.00     0.084 H 
ATOM     50  CAE DZ7 d   1     172.951  30.376 175.423  0.00  0.00    -0.083 A 
ATOM     51  H25 DZ7 d   1     171.561  32.029 175.275  0.00  0.00     0.083 H 
ATOM     52  CAG DZ7 d   1     173.806  29.656 176.280  0.00  0.00    -0.082 A 
ATOM     53  H26 DZ7 d   1     172.882  30.109 174.375  0.00  0.00     0.083 H 
ATOM     54  CAI DZ7 d   1     173.890  29.931 177.646  0.00  0.00    -0.075 A 
ATOM     55  H27 DZ7 d   1     174.418  28.863 175.866  0.00  0.00     0.083 H 
ATOM     56  H28 DZ7 d   1     174.549  29.357 178.286  0.00  0.00     0.084 H 
ENDBRANCH  43  46
ENDBRANCH   6  43
TORSDOF 8
