REMARK  6 active torsions:
REMARK  status: ('A' for Active; 'I' for Inactive)
REMARK    1  A    between atoms: CAX_6  and  OAR_7 
REMARK    2  A    between atoms: OAR_7  and  CAA_8 
REMARK    3  A    between atoms: CAT_12  and  CAD_13 
REMARK    4  A    between atoms: CAD_13  and  CBA_14 
REMARK    5  A    between atoms: NBB_19  and  CAQ_20 
REMARK    6  A    between atoms: CAQ_20  and  CAV_21 
ROOT
ATOM      1  CBA DZ0 d   1     115.014 125.902 182.144  0.00  0.00    -0.047 C 
ATOM      2  CAM DZ0 d   1     115.208 125.241 180.814  0.00  0.00    -0.039 C 
ATOM      3  CAO DZ0 d   1     116.395 125.815 180.135  0.00  0.00     0.084 C 
ATOM      4  CAL DZ0 d   1     114.849 127.361 181.972  0.00  0.00    -0.039 C 
ATOM      5  CAN DZ0 d   1     116.034 127.939 181.170  0.00  0.00     0.084 C 
ATOM      6  NBB DZ0 d   1     116.244 127.237 179.896  0.00  0.00    -0.067 N 
ATOM      7  H10 DZ0 d   1     115.893 125.741 182.786  0.00  0.00     0.040 H 
ATOM      8  H11 DZ0 d   1     114.316 125.405 180.191  0.00  0.00     0.035 H 
ATOM      9  H12 DZ0 d   1     115.359 124.161 180.961  0.00  0.00     0.035 H 
ATOM     10  H13 DZ0 d   1     116.535 125.305 179.171  0.00  0.00     0.076 H 
ATOM     11  H14 DZ0 d   1     117.280 125.652 180.768  0.00  0.00     0.076 H 
ATOM     12  H15 DZ0 d   1     114.810 127.842 182.961  0.00  0.00     0.035 H 
ATOM     13  H16 DZ0 d   1     113.912 127.560 181.431  0.00  0.00     0.035 H 
ATOM     14  H17 DZ0 d   1     116.947 127.851 181.776  0.00  0.00     0.076 H 
ATOM     15  H18 DZ0 d   1     115.834 129.000 180.960  0.00  0.00     0.076 H 
ATOM     16  H19 DZ0 d   1     115.442 127.395 179.306  0.00  0.00     0.280 HD
ENDROOT
BRANCH   1  17
ATOM     17  CAD DZ0 d   1     113.837 125.136 182.716  0.00  0.00    -0.034 C 
ATOM     18  H8  DZ0 d   1     113.454 124.557 181.863  0.00  0.00     0.040 H 
ATOM     19  H9  DZ0 d   1     114.292 124.453 183.448  0.00  0.00     0.040 H 
BRANCH  17  20
ATOM     20  CAT DZ0 d   1     112.750 125.576 183.320  0.00  0.00    -0.006 A 
ATOM     21  CAU DZ0 d   1     111.778 124.835 183.777  0.00  0.00     0.189 A 
ATOM     22  OAC DZ0 d   1     111.725 123.633 183.723  0.00  0.00    -0.287 OA
ATOM     23  CAZ DZ0 d   1     110.873 125.617 184.321  0.00  0.00     0.025 A 
ATOM     24  CAK DZ0 d   1     109.753 125.274 184.904  0.00  0.00    -0.066 A 
ATOM     25  CAW DZ0 d   1     111.273 126.853 184.197  0.00  0.00    -0.019 A 
ATOM     26  CAY DZ0 d   1     108.924 126.237 185.408  0.00  0.00    -0.050 A 
ATOM     27  H1  DZ0 d   1     109.483 124.228 184.987  0.00  0.00     0.085 H 
ATOM     28  CAX DZ0 d   1     109.319 127.543 185.295  0.00  0.00     0.069 A 
ATOM     29  H2  DZ0 d   1     107.985 125.975 185.882  0.00  0.00     0.087 H 
ATOM     30  CAJ DZ0 d   1     110.512 127.814 184.675  0.00  0.00    -0.040 A 
ATOM     31  H6  DZ0 d   1     110.835 128.844 184.577  0.00  0.00     0.089 H 
ATOM     32  CAP DZ0 d   1     112.452 126.838 183.575  0.00  0.00    -0.062 A 
ATOM     33  H7  DZ0 d   1     113.058 127.707 183.323  0.00  0.00     0.085 H 
BRANCH  28  34
ATOM     34  OAR DZ0 d   1     108.549 128.553 185.785  0.00  0.00    -0.356 OA
BRANCH  34  35
ATOM     35  CAA DZ0 d   1     107.264 128.325 186.382  0.00  0.00     0.010 C 
ATOM     36  H3  DZ0 d   1     106.833 129.285 186.702  0.00  0.00     0.066 H 
ATOM     37  H4  DZ0 d   1     107.377 127.665 187.255  0.00  0.00     0.066 H 
ATOM     38  H5  DZ0 d   1     106.597 127.850 185.647  0.00  0.00     0.066 H 
ENDBRANCH  34  35
ENDBRANCH  28  34
ENDBRANCH  17  20
ENDBRANCH   1  17
BRANCH   6  39
ATOM     39  CAQ DZ0 d   1     117.450 127.706 179.200  0.00  0.00     0.107 C 
ATOM     40  H20 DZ0 d   1     118.324 127.197 179.632  0.00  0.00     0.083 H 
ATOM     41  H21 DZ0 d   1     117.544 128.791 179.355  0.00  0.00     0.083 H 
BRANCH  39  42
ATOM     42  CAV DZ0 d   1     117.424 127.457 177.840  0.00  0.00    -0.033 A 
ATOM     43  CAH DZ0 d   1     116.636 128.225 177.006  0.00  0.00    -0.075 A 
ATOM     44  CAF DZ0 d   1     116.577 128.009 175.650  0.00  0.00    -0.082 A 
ATOM     45  H22 DZ0 d   1     116.044 129.025 177.435  0.00  0.00     0.084 H 
ATOM     46  CAE DZ0 d   1     117.328 126.994 175.115  0.00  0.00    -0.083 A 
ATOM     47  H23 DZ0 d   1     115.951 128.627 175.017  0.00  0.00     0.083 H 
ATOM     48  CAG DZ0 d   1     118.124 126.238 175.947  0.00  0.00    -0.082 A 
ATOM     49  H24 DZ0 d   1     117.296 126.789 174.051  0.00  0.00     0.083 H 
ATOM     50  CAI DZ0 d   1     118.188 126.453 177.303  0.00  0.00    -0.075 A 
ATOM     51  H25 DZ0 d   1     118.722 125.444 175.516  0.00  0.00     0.083 H 
ATOM     52  H26 DZ0 d   1     118.827 125.844 177.932  0.00  0.00     0.084 H 
ENDBRANCH  39  42
ENDBRANCH   6  39
TORSDOF 6
