REMARK  1 active torsions:
REMARK  status: ('A' for Active; 'I' for Inactive)
REMARK    1  A    between atoms: CAL_20  and  OAA_21 
ROOT
ATOM      1  CAM 8SK d   1      13.150 -32.084   4.488  0.00  0.00    -0.071 A 
ATOM      2  CAN 8SK d   1      13.052 -33.306   3.815  0.00  0.00    -0.069 A 
ATOM      3  CAF 8SK d   1      12.418 -34.404   4.433  0.00  0.00     0.009 A 
ATOM      4  CAC 8SK d   1      11.891 -34.259   5.736  0.00  0.00    -0.001 A 
ATOM      5  CAB 8SK d   1      12.003 -33.028   6.436  0.00  0.00    -0.003 A 
ATOM      6  CAE 8SK d   1      12.642 -31.945   5.799  0.00  0.00    -0.023 A 
ATOM      7  CAJ 8SK d   1      12.766 -30.723   6.467  0.00  0.00    -0.061 A 
ATOM      8  CAI 8SK d   1      12.264 -30.558   7.762  0.00  0.00    -0.024 A 
ATOM      9  CAS 8SK d   1      12.403 -29.303   8.385  0.00  0.00    -0.072 A 
ATOM     10  CAU 8SK d   1      11.927 -29.115   9.688  0.00  0.00    -0.082 A 
ATOM     11  CAT 8SK d   1      11.301 -30.186  10.351  0.00  0.00    -0.082 A 
ATOM     12  CAR 8SK d   1      11.132 -31.433   9.737  0.00  0.00    -0.071 A 
ATOM     13  CAH 8SK d   1      11.622 -31.644   8.426  0.00  0.00    -0.015 A 
ATOM     14  CAD 8SK d   1      11.486 -32.890   7.764  0.00  0.00    -0.013 A 
ATOM     15  CAK 8SK d   1      10.848 -34.000   8.371  0.00  0.00    -0.070 A 
ATOM     16  CAO 8SK d   1      10.733 -35.217   7.679  0.00  0.00    -0.071 A 
ATOM     17  CAG 8SK d   1      11.259 -35.351   6.359  0.00  0.00    -0.024 A 
ATOM     18  CAP 8SK d   1      11.160 -36.566   5.657  0.00  0.00    -0.070 A 
ATOM     19  CAQ 8SK d   1      11.676 -36.722   4.370  0.00  0.00    -0.049 A 
ATOM     20  CAL 8SK d   1      12.301 -35.642   3.756  0.00  0.00     0.076 A 
ATOM     21  H1  8SK d   1      13.619 -31.237   4.000  0.00  0.00     0.084 H 
ATOM     22  H2  8SK d   1      13.464 -33.409   2.817  0.00  0.00     0.085 H 
ATOM     23  H3  8SK d   1      13.258 -29.892   5.974  0.00  0.00     0.086 H 
ATOM     24  H4  8SK d   1      12.878 -28.484   7.857  0.00  0.00     0.084 H 
ATOM     25  H5  8SK d   1      12.040 -28.156  10.180  0.00  0.00     0.083 H 
ATOM     26  H6  8SK d   1      10.940 -30.042  11.363  0.00  0.00     0.083 H 
ATOM     27  H7  8SK d   1      10.627 -32.234  10.264  0.00  0.00     0.084 H 
ATOM     28  H8  8SK d   1      10.447 -33.910   9.374  0.00  0.00     0.084 H 
ATOM     29  H9  8SK d   1      10.241 -36.060   8.151  0.00  0.00     0.084 H 
ATOM     30  H10 8SK d   1      10.667 -37.407   6.131  0.00  0.00     0.085 H 
ATOM     31  H11 8SK d   1      11.591 -37.672   3.856  0.00  0.00     0.087 H 
ENDROOT
BRANCH  20  32
ATOM     32  OAA 8SK d   1      12.796 -35.801   2.505  0.00  0.00    -0.360 OA
ATOM     33  H12 8SK d   1      13.191 -34.987   2.216  0.00  0.00     0.217 HD
ENDBRANCH  20  32
TORSDOF 1
