REMARK  4 active torsions:
REMARK  status: ('A' for Active; 'I' for Inactive)
REMARK    1  A    between atoms: C2_3  and  O1_2 
REMARK    2  A    between atoms: C4_7  and  O2_4 
REMARK    3  A    between atoms: C13_19  and  O6_12 
REMARK    4  A    between atoms: C10_16  and  C9_15 
ROOT
ATOM      1  C1  LU2 d   1      18.501 -44.257 -37.203  0.00  0.00    -0.017 A 
ATOM      2  C2  LU2 d   1      18.309 -45.116 -36.095  0.00  0.00     0.071 A 
ATOM      3  C3  LU2 d   1      18.695 -44.775 -34.860  0.00  0.00    -0.018 A 
ATOM      4  O3  LU2 d   1      20.155 -41.069 -34.517  0.00  0.00    -0.287 OA
ATOM      5  C4  LU2 d   1      19.264 -43.557 -34.764  0.00  0.00     0.085 A 
ATOM      6  O4  LU2 d   1      19.361 -42.040 -38.178  0.00  0.00    -0.309 OA
ATOM      7  C5  LU2 d   1      19.477 -42.681 -35.852  0.00  0.00     0.081 A 
ATOM      8  C6  LU2 d   1      19.094 -42.986 -37.132  0.00  0.00     0.095 A 
ATOM      9  C7  LU2 d   1      20.016 -41.450 -35.636  0.00  0.00     0.190 C 
ATOM     10  C8  LU2 d   1      20.082 -40.451 -36.537  0.00  0.00    -0.000 C 
ATOM     11  C9  LU2 d   1      19.842 -40.761 -37.833  0.00  0.00     0.086 C 
ATOM     12  H1  LU2 d   1      18.167 -44.604 -38.174  0.00  0.00     0.092 H 
ATOM     13  H4  LU2 d   1      18.561 -45.427 -34.004  0.00  0.00     0.092 H 
ATOM     14  H6  LU2 d   1      20.320 -39.432 -36.234  0.00  0.00     0.094 H 
ENDROOT
BRANCH  11  15
ATOM     15  C10 LU2 d   1      20.002 -39.661 -38.687  0.00  0.00    -0.018 A 
ATOM     16  C11 LU2 d   1      20.632 -39.761 -39.910  0.00  0.00    -0.036 A 
ATOM     17  C12 LU2 d   1      20.746 -38.619 -40.663  0.00  0.00     0.140 A 
ATOM     18  H7  LU2 d   1      21.025 -40.712 -40.266  0.00  0.00     0.089 H 
ATOM     19  O5  LU2 d   1      21.311 -38.682 -41.848  0.00  0.00    -0.189 OA
ATOM     20  C13 LU2 d   1      20.306 -37.379 -40.246  0.00  0.00     0.098 A 
ATOM     21  C14 LU2 d   1      19.692 -37.234 -39.023  0.00  0.00    -0.064 A 
ATOM     22  C15 LU2 d   1      19.549 -38.374 -38.249  0.00  0.00    -0.021 A 
ATOM     23  H8  LU2 d   1      19.334 -36.265 -38.678  0.00  0.00     0.081 H 
ATOM     24  H9  LU2 d   1      20.074 -38.170 -37.304  0.00  0.00     0.046 H 
ATOM     25  H10 LU2 d   1      18.471 -38.479 -38.055  0.00  0.00     0.046 H 
BRANCH  20  26
ATOM     26  O6  LU2 d   1      20.491 -36.320 -41.073  0.00  0.00    -0.358 OA
ATOM     27  H5  LU2 d   1      20.039 -36.477 -41.893  0.00  0.00     0.217 HD
ENDBRANCH  20  26
ENDBRANCH  11  15
BRANCH   2  28
ATOM     28  O1  LU2 d   1      17.739 -46.313 -36.115  0.00  0.00    -0.361 OA
ATOM     29  H2  LU2 d   1      18.228 -46.886 -36.695  0.00  0.00     0.217 HD
ENDBRANCH   2  28
BRANCH   5  30
ATOM     30  O2  LU2 d   1      19.640 -43.205 -33.522  0.00  0.00    -0.360 OA
ATOM     31  H3  LU2 d   1      20.029 -42.339 -33.544  0.00  0.00     0.217 HD
ENDBRANCH   5  30
TORSDOF 4
