REMARK  5 active torsions:
REMARK  status: ('A' for Active; 'I' for Inactive)
REMARK    1  A    between atoms: C4_1  and  O4_2 
REMARK    2  A    between atoms: C3_3  and  O3_4 
REMARK    3  A    between atoms: C2_5  and  O2_6 
REMARK    4  A    between atoms: C5_14  and  C6_15 
REMARK    5  A    between atoms: C6_15  and  O6_16 
ROOT
ATOM      1  C4  KIF d   1      23.905  18.754  47.910  0.00  0.00     0.084 C 
ATOM      2  C3  KIF d   1      24.942  17.626  48.155  0.00  0.00     0.090 C 
ATOM      3  C2  KIF d   1      25.952  17.500  46.990  0.00  0.00     0.099 C 
ATOM      4  C1  KIF d   1      26.614  18.858  46.750  0.00  0.00     0.111 A 
ATOM      5  N9  KIF d   1      27.430  18.913  45.505  0.00  0.00    -0.329 N 
ATOM      6  C8  KIF d   1      26.918  19.787  44.644  0.00  0.00     0.311 A 
ATOM      7  O8  KIF d   1      27.371  20.030  43.497  0.00  0.00    -0.262 OA
ATOM      8  C7  KIF d   1      25.692  20.413  45.233  0.00  0.00     0.313 A 
ATOM      9  O7  KIF d   1      24.982  21.280  44.729  0.00  0.00    -0.262 OA
ATOM     10  N   KIF d   1      25.588  19.869  46.485  0.00  0.00    -0.311 N 
ATOM     11  C5  KIF d   1      24.521  20.088  47.493  0.00  0.00     0.064 C 
ATOM     12  H1  KIF d   1      23.360  18.918  48.852  0.00  0.00     0.090 H 
ATOM     13  H3  KIF d   1      24.398  16.677  48.270  0.00  0.00     0.091 H 
ATOM     14  H5  KIF d   1      25.435  17.179  46.074  0.00  0.00     0.093 H 
ATOM     15  H7  KIF d   1      27.224  19.122  47.626  0.00  0.00     0.111 H 
ATOM     16  H8  KIF d   1      28.251  18.367  45.339  0.00  0.00     0.165 HD
ATOM     17  H9  KIF d   1      23.731  20.685  47.014  0.00  0.00     0.080 H 
ENDROOT
BRANCH  11  18
ATOM     18  C6  KIF d   1      25.017  20.880  48.701  0.00  0.00     0.038 C 
ATOM     19  H10 KIF d   1      25.630  20.214  49.326  0.00  0.00     0.077 H 
ATOM     20  H11 KIF d   1      24.144  21.222  49.276  0.00  0.00     0.077 H 
BRANCH  18  21
ATOM     21  O6  KIF d   1      25.806  22.026  48.348  0.00  0.00    -0.399 OA
ATOM     22  H12 KIF d   1      26.570  21.744  47.858  0.00  0.00     0.209 HD
ENDBRANCH  18  21
ENDBRANCH  11  18
BRANCH   1  23
ATOM     23  O4  KIF d   1      22.967  18.327  46.904  0.00  0.00    -0.391 OA
ATOM     24  H2  KIF d   1      22.521  17.543  47.201  0.00  0.00     0.210 HD
ENDBRANCH   1  23
BRANCH   2  25
ATOM     25  O3  KIF d   1      25.733  17.877  49.344  0.00  0.00    -0.390 OA
ATOM     26  H4  KIF d   1      25.160  17.927  50.100  0.00  0.00     0.210 HD
ENDBRANCH   2  25
BRANCH   3  27
ATOM     27  O2  KIF d   1      26.922  16.512  47.372  0.00  0.00    -0.389 OA
ATOM     28  H6  KIF d   1      27.560  16.410  46.675  0.00  0.00     0.210 HD
ENDBRANCH   3  27
TORSDOF 5
