REMARK  4 active torsions:
REMARK  status: ('A' for Active; 'I' for Inactive)
REMARK    1  A    between atoms: C1_5  and  C11_6 
REMARK    2  A    between atoms: C14_9  and  C16_11 
REMARK    3  A    between atoms: C4_12  and  S7_13 
REMARK    4  A    between atoms: S7_13  and  N10_16 
ROOT
ATOM      1  C2  8V8 d   1      -3.313   3.333  14.861  0.00  0.00    -0.069 A 
ATOM      2  C6  8V8 d   1      -5.489   4.311  14.628  0.00  0.00    -0.069 A 
ATOM      3  C5  8V8 d   1      -6.047   3.255  15.326  0.00  0.00    -0.059 A 
ATOM      4  C3  8V8 d   1      -3.862   2.265  15.554  0.00  0.00    -0.059 A 
ATOM      5  C1  8V8 d   1      -4.120   4.361  14.376  0.00  0.00    -0.001 A 
ATOM      6  C4  8V8 d   1      -5.231   2.233  15.787  0.00  0.00     0.079 A 
ATOM      7  H1  8V8 d   1      -2.243   3.369  14.694  0.00  0.00     0.085 H 
ATOM      8  H2  8V8 d   1      -6.127   5.112  14.272  0.00  0.00     0.085 H 
ATOM      9  H3  8V8 d   1      -7.115   3.227  15.511  0.00  0.00     0.085 H 
ATOM     10  H4  8V8 d   1      -3.228   1.462  15.911  0.00  0.00     0.085 H 
ENDROOT
BRANCH   5  11
ATOM     11  C11 8V8 d   1      -3.547   5.501  13.658  0.00  0.00     0.105 C 
ATOM     12  C12 8V8 d   1      -4.027   6.448  12.829  0.00  0.00     0.038 C 
ATOM     13  N13 8V8 d   1      -3.039   7.339  12.483  0.00  0.00    -0.238 NA
ATOM     14  H5  8V8 d   1      -5.057   6.501  12.480  0.00  0.00     0.119 H 
ATOM     15  C14 8V8 d   1      -1.999   6.879  13.095  0.00  0.00     0.141 C 
ATOM     16  O15 8V8 d   1      -2.174   5.650  13.680  0.00  0.00    -0.294 OA
BRANCH  15  17
ATOM     17  C16 8V8 d   1      -0.635   7.454  13.142  0.00  0.00    -0.015 C 
ATOM     18  H6  8V8 d   1      -0.633   8.434  12.642  0.00  0.00     0.038 H 
ATOM     19  H7  8V8 d   1       0.066   6.779  12.629  0.00  0.00     0.038 H 
ATOM     20  H8  8V8 d   1      -0.325   7.577  14.190  0.00  0.00     0.038 H 
ENDBRANCH  15  17
ENDBRANCH   5  11
BRANCH   6  21
ATOM     21  S7  8V8 d   1      -5.943   0.909  16.720  0.00  0.00     0.256 S 
ATOM     22  O8  8V8 d   1      -5.423   1.026  18.052  0.00  0.00    -0.201 OA
ATOM     23  O9  8V8 d   1      -7.369   0.995  16.536  0.00  0.00    -0.201 OA
BRANCH  21  24
ATOM     24  N10 8V8 d   1      -5.437  -0.481  16.089  0.00  0.00    -0.324 N 
ATOM     25  H9  8V8 d   1      -5.737  -1.349  16.486  0.00  0.00     0.169 HD
ATOM     26  H10 8V8 d   1      -4.823  -0.478  15.300  0.00  0.00     0.169 HD
ENDBRANCH  21  24
ENDBRANCH   6  21
TORSDOF 4
