REMARK  3 active torsions:
REMARK  status: ('A' for Active; 'I' for Inactive)
REMARK    1  A    between atoms: N1_1  and  C6_5 
REMARK    2  A    between atoms: C5_4  and  C8_7 
REMARK    3  A    between atoms: C1_8  and  C7_6 
ROOT
ATOM      1  N1  8VE d   1      -6.030 -24.426 -32.216  0.00  0.00    -0.205 NA
ATOM      2  N3  8VE d   1      -5.082 -25.145 -29.126  0.00  0.00    -0.059 N 
ATOM      3  C4  8VE d   1      -6.656 -26.143 -30.672  0.00  0.00     0.052 A 
ATOM      4  C5  8VE d   1      -6.258 -26.142 -29.165  0.00  0.00     0.195 C 
ATOM      5  C1  8VE d   1      -7.810 -25.249 -31.170  0.00  0.00     0.133 A 
ATOM      6  N2  8VE d   1      -7.466 -24.319 -31.992  0.00  0.00    -0.196 NA
ATOM      7  C2  8VE d   1      -4.324 -25.366 -30.438  0.00  0.00     0.100 C 
ATOM      8  C3  8VE d   1      -5.459 -25.631 -31.455  0.00  0.00     0.049 A 
ATOM      9  H1  8VE d   1      -4.484 -25.334 -28.337  0.00  0.00     0.278 HD
ATOM     10  H2  8VE d   1      -5.423 -24.198 -29.070  0.00  0.00     0.278 HD
ATOM     11  H3  8VE d   1      -6.887 -27.182 -30.948  0.00  0.00     0.056 H 
ATOM     12  H4  8VE d   1      -7.109 -25.749 -28.590  0.00  0.00     0.103 H 
ATOM     13  H8  8VE d   1      -3.650 -26.232 -30.364  0.00  0.00     0.078 H 
ATOM     14  H9  8VE d   1      -3.745 -24.473 -30.715  0.00  0.00     0.078 H 
ATOM     15  H10 8VE d   1      -5.106 -26.380 -32.179  0.00  0.00     0.070 H 
ENDROOT
BRANCH   1  16
ATOM     16  C6  8VE d   1      -5.412 -23.050 -31.921  0.00  0.00    -0.013 C 
ATOM     17  H5  8VE d   1      -4.325 -23.095 -32.081  0.00  0.00     0.051 H 
ATOM     18  H6  8VE d   1      -5.618 -22.772 -30.877  0.00  0.00     0.051 H 
ATOM     19  H7  8VE d   1      -5.851 -22.299 -32.594  0.00  0.00     0.051 H 
ENDBRANCH   1  16
BRANCH   5  20
ATOM     20  C7  8VE d   1      -9.223 -25.499 -30.677  0.00  0.00     0.226 C 
ATOM     21  O1  8VE d   1      -9.445 -26.562 -30.050  0.00  0.00    -0.643 OA
ATOM     22  O3  8VE d   1     -10.093 -24.631 -30.930  0.00  0.00    -0.643 OA
ENDBRANCH   5  20
BRANCH   4  23
ATOM     23  C8  8VE d   1      -5.822 -27.472 -28.473  0.00  0.00     0.205 C 
ATOM     24  O2  8VE d   1      -6.602 -28.447 -28.529  0.00  0.00    -0.646 OA
ATOM     25  O4  8VE d   1      -4.717 -27.543 -27.880  0.00  0.00    -0.646 OA
ENDBRANCH   4  23
TORSDOF 3
