REMARK  4 active torsions:
REMARK  status: ('A' for Active; 'I' for Inactive)
REMARK    1  A    between atoms: S1_1  and  C1_2 
REMARK    2  A    between atoms: S1_1  and  N24_15 
REMARK    3  A    between atoms: C3_4  and  C11_7 
REMARK    4  A    between atoms: C14_10  and  C16_12 
REMARK       I    between atoms: C16_12  and  N2_17 
ROOT
ATOM      1  C11 8V5 d   1      -4.186   5.302  13.429  0.00  0.00     0.112 A 
ATOM      2  C12 8V5 d   1      -3.220   6.200  13.154  0.00  0.00     0.039 A 
ATOM      3  N13 8V5 d   1      -3.697   7.175  12.305  0.00  0.00    -0.229 NA
ATOM      4  C14 8V5 d   1      -4.945   6.836  12.087  0.00  0.00     0.239 A 
ATOM      5  O15 8V5 d   1      -5.317   5.713  12.744  0.00  0.00    -0.285 OA
ATOM      6  H3  8V5 d   1      -2.205   6.161  13.547  0.00  0.00     0.119 H 
ENDROOT
BRANCH   4   7
ATOM      7  C16 8V5 d   1      -5.904   7.504  11.139  0.00  0.00     0.297 C 
ATOM      8  O25 8V5 d   1      -6.996   6.980  10.915  0.00  0.00    -0.263 OA
ATOM      9  N2  8V5 d   1      -5.513   8.625  10.532  0.00  0.00    -0.341 N 
ATOM     10  C6  8V5 d   1      -5.297   9.751  11.260  0.00  0.00     0.018 C 
ATOM     11  C10 8V5 d   1      -4.928   8.572   9.220  0.00  0.00     0.018 C 
ATOM     12  C7  8V5 d   1      -3.846  10.234  11.239  0.00  0.00     0.034 C 
ATOM     13  H6  8V5 d   1      -5.579   9.548  12.304  0.00  0.00     0.067 H 
ATOM     14  H7  8V5 d   1      -5.934  10.552  10.857  0.00  0.00     0.067 H 
ATOM     15  O8  8V5 d   1      -2.987   9.257  10.647  0.00  0.00    -0.388 OA
ATOM     16  H8  8V5 d   1      -3.516  10.425  12.271  0.00  0.00     0.076 H 
ATOM     17  H9  8V5 d   1      -3.786  11.165  10.657  0.00  0.00     0.076 H 
ATOM     18  C9  8V5 d   1      -3.438   8.798   9.300  0.00  0.00     0.034 C 
ATOM     19  H10 8V5 d   1      -2.927   7.853   9.063  0.00  0.00     0.076 H 
ATOM     20  H11 8V5 d   1      -3.159   9.561   8.559  0.00  0.00     0.076 H 
ATOM     21  H12 8V5 d   1      -5.380   9.352   8.590  0.00  0.00     0.067 H 
ATOM     22  H13 8V5 d   1      -5.122   7.584   8.776  0.00  0.00     0.067 H 
ENDBRANCH   4   7
BRANCH   1  23
ATOM     23  C3  8V5 d   1      -4.324   4.092  14.215  0.00  0.00     0.041 A 
ATOM     24  S2  8V5 d   1      -5.814   3.421  14.817  0.00  0.00    -0.074 SA
ATOM     25  C1  8V5 d   1      -4.977   2.122  15.580  0.00  0.00     0.120 A 
ATOM     26  C5  8V5 d   1      -3.620   2.193  15.375  0.00  0.00    -0.052 A 
ATOM     27  C4  8V5 d   1      -3.252   3.309  14.603  0.00  0.00    -0.062 A 
ATOM     28  H2  8V5 d   1      -2.909   1.466  15.767  0.00  0.00     0.086 H 
ATOM     29  H1  8V5 d   1      -2.221   3.535  14.336  0.00  0.00     0.085 H 
BRANCH  25  30
ATOM     30  S1  8V5 d   1      -5.830   0.927  16.553  0.00  0.00     0.263 S 
ATOM     31  O22 8V5 d   1      -7.231   1.105  16.331  0.00  0.00    -0.200 OA
ATOM     32  O23 8V5 d   1      -5.290   1.040  17.872  0.00  0.00    -0.200 OA
BRANCH  30  33
ATOM     33  N24 8V5 d   1      -5.416  -0.490  15.980  0.00  0.00    -0.324 N 
ATOM     34  H4  8V5 d   1      -5.788  -1.323  16.389  0.00  0.00     0.169 HD
ATOM     35  H5  8V5 d   1      -4.782  -0.552  15.209  0.00  0.00     0.169 HD
ENDBRANCH  30  33
ENDBRANCH  25  30
ENDBRANCH   1  23
TORSDOF 4
