REMARK  2 active torsions:
REMARK  status: ('A' for Active; 'I' for Inactive)
REMARK    1  A    between atoms: CAI_9  and  CAF_10 
REMARK    2  A    between atoms: CAF_10  and  NAA_11 
ROOT
ATOM      1  NAG 2BG d   1      -0.393  11.557   1.413  0.00  0.00    -0.243 NA
ATOM      2  CAJ 2BG d   1      -0.208  12.015   0.111  0.00  0.00     0.074 A 
ATOM      3  CAD 2BG d   1      -0.629  11.414  -1.104  0.00  0.00    -0.054 A 
ATOM      4  CAB 2BG d   1      -0.355  12.008  -2.307  0.00  0.00    -0.081 A 
ATOM      5  CAC 2BG d   1       0.363  13.210  -2.354  0.00  0.00    -0.082 A 
ATOM      6  CAE 2BG d   1       0.782  13.832  -1.191  0.00  0.00    -0.064 A 
ATOM      7  CAK 2BG d   1       0.504  13.235   0.044  0.00  0.00     0.035 A 
ATOM      8  SAH 2BG d   1       0.935  13.777   1.648  0.00  0.00    -0.071 SA
ATOM      9  CAI 2BG d   1       0.142  12.349   2.275  0.00  0.00     0.101 A 
ATOM     10  H1  2BG d   1      -1.172  10.476  -1.079  0.00  0.00     0.087 H 
ATOM     11  H2  2BG d   1      -0.695  11.546  -3.227  0.00  0.00     0.083 H 
ATOM     12  H3  2BG d   1       0.593  13.659  -3.314  0.00  0.00     0.083 H 
ATOM     13  H4  2BG d   1       1.320  14.772  -1.236  0.00  0.00     0.085 H 
ENDROOT
BRANCH   9  14
ATOM     14  CAF 2BG d   1       0.069  12.081   3.753  0.00  0.00     0.125 C 
ATOM     15  H5  2BG d   1      -0.760  12.664   4.181  0.00  0.00     0.086 H 
ATOM     16  H6  2BG d   1       1.015  12.393   4.219  0.00  0.00     0.086 H 
BRANCH  14  17
ATOM     17  NAA 2BG d   1      -0.154  10.661   4.036  0.00  0.00    -0.073 N 
ATOM     18  H7  2BG d   1      -0.197  10.520   5.033  0.00  0.00     0.274 HD
ATOM     19  H8  2BG d   1       0.604  10.119   3.652  0.00  0.00     0.274 HD
ATOM     20  H9  2BG d   1      -1.022  10.367   3.617  0.00  0.00     0.274 HD
ENDBRANCH  14  17
ENDBRANCH   9  14
TORSDOF 2
