REMARK  3 active torsions:
REMARK  status: ('A' for Active; 'I' for Inactive)
REMARK    1  A    between atoms: N1_1  and  C6_5 
REMARK    2  A    between atoms: C5_4  and  C8_7 
REMARK    3  A    between atoms: C1_8  and  C7_6 
ROOT
ATOM      1  N1  8VE d   1     -31.243  84.131  33.635  0.00  0.00    -0.205 NA
ATOM      2  N3  8VE d   1     -33.335  85.123  31.632  0.00  0.00    -0.059 N 
ATOM      3  C4  8VE d   1     -31.227  86.056  32.212  0.00  0.00     0.052 C 
ATOM      4  C5  8VE d   1     -32.564  86.381  31.510  0.00  0.00     0.195 C 
ATOM      5  C1  8VE d   1     -31.176  86.312  33.702  0.00  0.00     0.133 C 
ATOM      6  N2  8VE d   1     -31.152  85.278  34.439  0.00  0.00    -0.196 NA
ATOM      7  C2  8VE d   1     -32.370  84.032  31.433  0.00  0.00     0.100 C 
ATOM      8  C3  8VE d   1     -31.149  84.537  32.211  0.00  0.00     0.049 C 
ATOM      9  H1  8VE d   1     -34.056  85.085  30.928  0.00  0.00     0.278 HD
ATOM     10  H2  8VE d   1     -33.754  85.057  32.546  0.00  0.00     0.278 HD
ATOM     11  H3  8VE d   1     -30.390  86.545  31.692  0.00  0.00     0.056 H 
ATOM     12  H4  8VE d   1     -33.072  87.213  32.019  0.00  0.00     0.103 H 
ATOM     13  H8  8VE d   1     -32.136  83.896  30.367  0.00  0.00     0.078 H 
ATOM     14  H9  8VE d   1     -32.745  83.086  31.850  0.00  0.00     0.078 H 
ATOM     15  H10 8VE d   1     -30.215  84.175  31.756  0.00  0.00     0.070 H 
ENDROOT
BRANCH   1  16
ATOM     16  C6  8VE d   1     -30.341  83.036  34.054  0.00  0.00    -0.013 C 
ATOM     17  H5  8VE d   1     -30.470  82.177  33.379  0.00  0.00     0.051 H 
ATOM     18  H6  8VE d   1     -30.585  82.734  35.083  0.00  0.00     0.051 H 
ATOM     19  H7  8VE d   1     -29.298  83.383  34.011  0.00  0.00     0.051 H 
ENDBRANCH   1  16
BRANCH   5  20
ATOM     20  C7  8VE d   1     -31.101  87.680  34.306  0.00  0.00     0.226 C 
ATOM     21  O1  8VE d   1     -31.298  87.754  35.554  0.00  0.00    -0.643 OA
ATOM     22  O3  8VE d   1     -30.827  88.638  33.550  0.00  0.00    -0.643 OA
ENDBRANCH   5  20
BRANCH   4  23
ATOM     23  C8  8VE d   1     -32.401  86.718  30.013  0.00  0.00     0.205 C 
ATOM     24  O2  8VE d   1     -33.095  86.088  29.180  0.00  0.00    -0.646 OA
ATOM     25  O4  8VE d   1     -31.591  87.622  29.721  0.00  0.00    -0.646 OA
ENDBRANCH   4  23
TORSDOF 3
