REMARK  7 active torsions:
REMARK  status: ('A' for Active; 'I' for Inactive)
REMARK    1  A    between atoms: CAU_6  and  NAT_7 
REMARK       I    between atoms: NAT_7  and  CAR_8 
REMARK    2  A    between atoms: CAR_8  and  CAN_10 
REMARK    3  A    between atoms: CAL_15  and  NAK_16 
REMARK    4  A    between atoms: NAK_16  and  CAJ_17 
REMARK    5  A    between atoms: CAG_21  and  CAE_22 
REMARK       I    between atoms: CAE_22  and  NAD_24 
REMARK    6  A    between atoms: NAD_24  and  CAC_25 
REMARK    7  A    between atoms: CAB_31  and  CAA_32 
ROOT
ATOM      1  CAN 8ZH d   1     -95.769 -18.203  43.375  0.00  0.00     0.034 A 
ATOM      2  CAM 8ZH d   1     -97.113 -18.227  43.025  0.00  0.00    -0.042 A 
ATOM      3  CAO 8ZH d   1     -95.375 -18.268  44.705  0.00  0.00    -0.068 A 
ATOM      4  CAP 8ZH d   1     -96.338 -18.374  45.693  0.00  0.00    -0.080 A 
ATOM      5  CAQ 8ZH d   1     -97.677 -18.404  45.334  0.00  0.00    -0.057 A 
ATOM      6  CAL 8ZH d   1     -98.092 -18.344  44.005  0.00  0.00     0.035 A 
ATOM      7  H13 8ZH d   1     -97.400 -18.154  41.982  0.00  0.00     0.088 H 
ATOM      8  H14 8ZH d   1     -94.323 -18.236  44.967  0.00  0.00     0.085 H 
ATOM      9  H15 8ZH d   1     -96.049 -18.433  46.736  0.00  0.00     0.083 H 
ATOM     10  H16 8ZH d   1     -98.427 -18.477  46.114  0.00  0.00     0.086 H 
ENDROOT
BRANCH   6  11
ATOM     11  NAK 8ZH d   1     -99.379 -18.355  43.595  0.00  0.00    -0.335 N 
ATOM     12  H17 8ZH d   1     -99.585 -17.933  42.678  0.00  0.00     0.168 HD
BRANCH  11  13
ATOM     13  CAJ 8ZH d   1    -100.416 -18.870  44.282  0.00  0.00     0.171 A 
ATOM     14  SBA 8ZH d   1    -100.436 -19.651  45.771  0.00  0.00    -0.045 SA
ATOM     15  CAG 8ZH d   1    -102.096 -19.922  45.766  0.00  0.00     0.094 A 
ATOM     16  CAH 8ZH d   1    -102.602 -19.410  44.630  0.00  0.00     0.027 A 
ATOM     17  NAI 8ZH d   1    -101.678 -18.842  43.811  0.00  0.00    -0.235 NA
ATOM     18  H18 8ZH d   1    -103.663 -19.447  44.387  0.00  0.00     0.117 H 
BRANCH  15  19
ATOM     19  CAE 8ZH d   1    -102.758 -20.547  46.765  0.00  0.00     0.264 C 
ATOM     20  OAF 8ZH d   1    -102.150 -20.838  47.795  0.00  0.00    -0.267 OA
ATOM     21  NAD 8ZH d   1    -104.073 -20.839  46.582  0.00  0.00    -0.320 N 
ATOM     22  H19 8ZH d   1    -104.526 -20.611  45.721  0.00  0.00     0.169 HD
BRANCH  21  23
ATOM     23  CAC 8ZH d   1    -104.767 -21.447  47.587  0.00  0.00     0.062 A 
ATOM     24  CBB 8ZH d   1    -104.989 -22.831  47.565  0.00  0.00     0.061 A 
ATOM     25 CL   8ZH d   1    -104.393 -23.849  46.299  0.00  0.00    -0.082 Cl
ATOM     26  CBC 8ZH d   1    -105.708 -23.429  48.599  0.00  0.00    -0.060 A 
ATOM     27  CBD 8ZH d   1    -106.211 -22.667  49.648  0.00  0.00    -0.081 A 
ATOM     28  H20 8ZH d   1    -105.877 -24.500  48.585  0.00  0.00     0.086 H 
ATOM     29  CBE 8ZH d   1    -105.996 -21.289  49.658  0.00  0.00    -0.075 A 
ATOM     30  H21 8ZH d   1    -106.765 -23.140  50.451  0.00  0.00     0.083 H 
ATOM     31  CAB 8ZH d   1    -105.278 -20.672  48.634  0.00  0.00    -0.034 A 
ATOM     32  H22 8ZH d   1    -106.391 -20.691  50.471  0.00  0.00     0.084 H 
BRANCH  31  33
ATOM     33  CAA 8ZH d   1    -105.086 -19.287  48.687  0.00  0.00    -0.049 C 
ATOM     34  H23 8ZH d   1    -104.505 -18.964  47.811  0.00  0.00     0.033 H 
ATOM     35  H24 8ZH d   1    -104.540 -19.027  49.606  0.00  0.00     0.033 H 
ATOM     36  H25 8ZH d   1    -106.063 -18.781  48.686  0.00  0.00     0.033 H 
ENDBRANCH  31  33
ENDBRANCH  21  23
ENDBRANCH  15  19
ENDBRANCH  11  13
ENDBRANCH   6  11
BRANCH   1  37
ATOM     37  CAR 8ZH d   1     -94.791 -18.069  42.401  0.00  0.00     0.252 C 
ATOM     38  NAT 8ZH d   1     -93.776 -17.301  42.822  0.00  0.00    -0.352 N 
ATOM     39  H12 8ZH d   1     -93.825 -16.965  43.762  0.00  0.00     0.163 HD
ATOM     40  OAS 8ZH d   1     -94.910 -18.572  41.283  0.00  0.00    -0.268 OA
BRANCH  38  41
ATOM     41  CAU 8ZH d   1     -92.598 -16.905  42.037  0.00  0.00     0.015 C 
ATOM     42  CAV 8ZH d   1     -93.011 -16.028  40.876  0.00  0.00    -0.024 C 
ATOM     43  CAW 8ZH d   1     -91.747 -15.387  40.325  0.00  0.00     0.083 C 
ATOM     44  H1  8ZH d   1     -93.495 -16.636  40.098  0.00  0.00     0.038 H 
ATOM     45  H2  8ZH d   1     -93.709 -15.250  41.221  0.00  0.00     0.038 H 
ATOM     46  NAX 8ZH d   1     -90.546 -16.169  40.673  0.00  0.00    -0.075 N 
ATOM     47  H3  8ZH d   1     -91.648 -14.375  40.744  0.00  0.00     0.075 H 
ATOM     48  H4  8ZH d   1     -91.827 -15.324  39.230  0.00  0.00     0.075 H 
ATOM     49  CAY 8ZH d   1     -90.797 -17.612  40.501  0.00  0.00     0.083 C 
ATOM     50  H5  8ZH d   1     -90.300 -15.988  41.634  0.00  0.00     0.277 HD
ATOM     51  H6  8ZH d   1     -89.785 -15.892  40.073  0.00  0.00     0.277 HD
ATOM     52  CAZ 8ZH d   1     -91.820 -18.110  41.519  0.00  0.00    -0.024 C 
ATOM     53  H7  8ZH d   1     -89.854 -18.161  40.639  0.00  0.00     0.075 H 
ATOM     54  H8  8ZH d   1     -91.181 -17.793  39.486  0.00  0.00     0.075 H 
ATOM     55  H9  8ZH d   1     -91.304 -18.607  42.353  0.00  0.00     0.038 H 
ATOM     56  H10 8ZH d   1     -92.509 -18.820  41.038  0.00  0.00     0.038 H 
ATOM     57  H11 8ZH d   1     -91.933 -16.325  42.693  0.00  0.00     0.072 H 
ENDBRANCH  38  41
ENDBRANCH   1  37
TORSDOF 7
