REMARK  7 active torsions:
REMARK  status: ('A' for Active; 'I' for Inactive)
REMARK    1  A    between atoms: CAR_7  and  NAQ_8 
REMARK       I    between atoms: NAQ_8  and  CAP_9 
REMARK    2  A    between atoms: CAP_9  and  CAO_11 
REMARK    3  A    between atoms: CAK_16  and  NAJ_17 
REMARK    4  A    between atoms: NAJ_17  and  CAI_18 
REMARK    5  A    between atoms: CAF_22  and  CAE_23 
REMARK       I    between atoms: CAE_23  and  NAD_25 
REMARK    6  A    between atoms: NAD_25  and  CAC_26 
REMARK    7  A    between atoms: CBC_32  and  CBD_33 
ROOT
ATOM      1  CAO 8ZZ d   1     -84.063 -15.224   7.518  0.00  0.00     0.034 A 
ATOM      2  CAZ 8ZZ d   1     -85.403 -15.213   7.120  0.00  0.00    -0.042 A 
ATOM      3  CAN 8ZZ d   1     -83.072 -15.336   6.556  0.00  0.00    -0.068 A 
ATOM      4  CAM 8ZZ d   1     -83.422 -15.424   5.215  0.00  0.00    -0.080 A 
ATOM      5  CAL 8ZZ d   1     -84.759 -15.423   4.824  0.00  0.00    -0.057 A 
ATOM      6  CAK 8ZZ d   1     -85.769 -15.335   5.777  0.00  0.00     0.035 A 
ATOM      7  H12 8ZZ d   1     -86.177 -15.107   7.872  0.00  0.00     0.088 H 
ATOM      8  H13 8ZZ d   1     -82.028 -15.355   6.849  0.00  0.00     0.085 H 
ATOM      9  H14 8ZZ d   1     -82.645 -15.494   4.463  0.00  0.00     0.083 H 
ATOM     10  H15 8ZZ d   1     -85.014 -15.491   3.772  0.00  0.00     0.086 H 
ENDROOT
BRANCH   6  11
ATOM     11  NAJ 8ZZ d   1     -87.044 -15.317   5.327  0.00  0.00    -0.335 N 
ATOM     12  H16 8ZZ d   1     -87.229 -14.850   4.428  0.00  0.00     0.168 HD
BRANCH  11  13
ATOM     13  CAI 8ZZ d   1     -88.091 -15.869   5.976  0.00  0.00     0.171 A 
ATOM     14  SBA 8ZZ d   1     -88.134 -16.669   7.467  0.00  0.00    -0.045 SA
ATOM     15  CAF 8ZZ d   1     -89.814 -16.980   7.414  0.00  0.00     0.094 A 
ATOM     16  CAG 8ZZ d   1     -90.281 -16.462   6.265  0.00  0.00     0.027 A 
ATOM     17  NAH 8ZZ d   1     -89.348 -15.855   5.486  0.00  0.00    -0.235 NA
ATOM     18  H17 8ZZ d   1     -91.330 -16.524   5.979  0.00  0.00     0.117 H 
BRANCH  15  19
ATOM     19  CAE 8ZZ d   1     -90.484 -17.642   8.398  0.00  0.00     0.264 C 
ATOM     20  OBB 8ZZ d   1     -89.870 -17.966   9.418  0.00  0.00    -0.267 OA
ATOM     21  NAD 8ZZ d   1     -91.814 -17.909   8.239  0.00  0.00    -0.320 N 
ATOM     22  H18 8ZZ d   1     -92.288 -17.639   7.401  0.00  0.00     0.169 HD
BRANCH  21  23
ATOM     23  CAC 8ZZ d   1     -92.490 -18.552   9.244  0.00  0.00     0.062 A 
ATOM     24  CAB 8ZZ d   1     -92.592 -19.944   9.258  0.00  0.00     0.061 A 
ATOM     25 CLA  8ZZ d   1     -91.851 -20.937   8.022  0.00  0.00    -0.082 Cl
ATOM     26  CBG 8ZZ d   1     -93.292 -20.585  10.284  0.00  0.00    -0.060 A 
ATOM     27  CBF 8ZZ d   1     -93.896 -19.841  11.297  0.00  0.00    -0.081 A 
ATOM     28  H19 8ZZ d   1     -93.366 -21.666  10.292  0.00  0.00     0.086 H 
ATOM     29  CBE 8ZZ d   1     -93.807 -18.448  11.270  0.00  0.00    -0.075 A 
ATOM     30  H20 8ZZ d   1     -94.430 -20.340  12.098  0.00  0.00     0.083 H 
ATOM     31  CBC 8ZZ d   1     -93.106 -17.802  10.251  0.00  0.00    -0.034 A 
ATOM     32  H21 8ZZ d   1     -94.286 -17.863  12.047  0.00  0.00     0.084 H 
BRANCH  31  33
ATOM     33  CBD 8ZZ d   1     -93.042 -16.407  10.251  0.00  0.00    -0.049 C 
ATOM     34  H22 8ZZ d   1     -92.456 -16.067   9.385  0.00  0.00     0.033 H 
ATOM     35  H23 8ZZ d   1     -92.561 -16.062  11.178  0.00  0.00     0.033 H 
ATOM     36  H24 8ZZ d   1     -94.059 -15.993  10.190  0.00  0.00     0.033 H 
ENDBRANCH  31  33
ENDBRANCH  21  23
ENDBRANCH  15  19
ENDBRANCH  11  13
ENDBRANCH   6  11
BRANCH   1  37
ATOM     37  CAP 8ZZ d   1     -83.713 -15.118   8.868  0.00  0.00     0.252 C 
ATOM     38  NAQ 8ZZ d   1     -82.485 -15.585   9.177  0.00  0.00    -0.349 N 
ATOM     39  H11 8ZZ d   1     -81.939 -15.950   8.423  0.00  0.00     0.163 HD
ATOM     40  OAY 8ZZ d   1     -84.502 -14.626   9.672  0.00  0.00    -0.268 OA
BRANCH  38  41
ATOM     41  CAR 8ZZ d   1     -81.861 -15.611  10.530  0.00  0.00     0.045 C 
ATOM     42  CAW 8ZZ d   1     -81.509 -14.206  11.013  0.00  0.00     0.121 C 
ATOM     43  FAX 8ZZ d   1     -80.573 -13.963  10.224  0.00  0.00    -0.245 F 
ATOM     44  CAV 8ZZ d   1     -80.929 -14.249  12.426  0.00  0.00     0.112 C 
ATOM     45  H1  8ZZ d   1     -82.348 -13.498  10.942  0.00  0.00     0.097 H 
ATOM     46  NAU 8ZZ d   1     -80.676 -15.637  12.829  0.00  0.00    -0.072 N 
ATOM     47  H2  8ZZ d   1     -81.644 -13.792  13.126  0.00  0.00     0.080 H 
ATOM     48  H3  8ZZ d   1     -79.984 -13.687  12.448  0.00  0.00     0.080 H 
ATOM     49  CAT 8ZZ d   1     -81.979 -16.313  12.897  0.00  0.00     0.084 C 
ATOM     50  H4  8ZZ d   1     -80.228 -15.659  13.732  0.00  0.00     0.277 HD
ATOM     51  H5  8ZZ d   1     -80.086 -16.092  12.150  0.00  0.00     0.277 HD
ATOM     52  CAS 8ZZ d   1     -82.717 -16.321  11.557  0.00  0.00    -0.021 C 
ATOM     53  H6  8ZZ d   1     -82.605 -15.795  13.639  0.00  0.00     0.075 H 
ATOM     54  H7  8ZZ d   1     -81.818 -17.354  13.215  0.00  0.00     0.075 H 
ATOM     55  H8  8ZZ d   1     -83.680 -15.800  11.661  0.00  0.00     0.038 H 
ATOM     56  H9  8ZZ d   1     -82.894 -17.359  11.238  0.00  0.00     0.038 H 
ATOM     57  H10 8ZZ d   1     -80.921 -16.176  10.441  0.00  0.00     0.077 H 
ENDBRANCH  38  41
ENDBRANCH   1  37
TORSDOF 7
