REMARK  7 active torsions:
REMARK  status: ('A' for Active; 'I' for Inactive)
REMARK    1  A    between atoms: CAR_5  and  NAQ_6 
REMARK       I    between atoms: NAQ_6  and  CAP_7 
REMARK    2  A    between atoms: CAP_7  and  CAO_9 
REMARK    3  A    between atoms: CAK_14  and  NAJ_15 
REMARK    4  A    between atoms: NAJ_15  and  CAI_16 
REMARK    5  A    between atoms: CAF_20  and  CAE_21 
REMARK       I    between atoms: CAE_21  and  NAD_23 
REMARK    6  A    between atoms: NAD_23  and  CAC_24 
REMARK    7  A    between atoms: CBA_30  and  CBB_31 
ROOT
ATOM      1  CAO 92Q d   1     124.242  34.098 -22.845  0.00  0.00     0.034 A 
ATOM      2  CAX 92Q d   1     125.606  33.800 -22.889  0.00  0.00    -0.042 A 
ATOM      3  CAN 92Q d   1     123.312  33.077 -22.999  0.00  0.00    -0.068 A 
ATOM      4  CAM 92Q d   1     123.737  31.767 -23.204  0.00  0.00    -0.080 A 
ATOM      5  CAL 92Q d   1     125.103  31.481 -23.251  0.00  0.00    -0.057 A 
ATOM      6  CAK 92Q d   1     126.047  32.490 -23.107  0.00  0.00     0.035 A 
ATOM      7  H11 92Q d   1     126.332  34.593 -22.753  0.00  0.00     0.088 H 
ATOM      8  H12 92Q d   1     122.252  33.301 -22.959  0.00  0.00     0.085 H 
ATOM      9  H13 92Q d   1     123.010  30.972 -23.327  0.00  0.00     0.083 H 
ATOM     10  H14 92Q d   1     125.431  30.459 -23.402  0.00  0.00     0.086 H 
ENDROOT
BRANCH   6  11
ATOM     11  NAJ 92Q d   1     127.349  32.115 -23.153  0.00  0.00    -0.335 N 
ATOM     12  H15 92Q d   1     127.599  31.203 -22.743  0.00  0.00     0.168 HD
BRANCH  11  13
ATOM     13  CAI 92Q d   1     128.331  32.842 -23.691  0.00  0.00     0.171 A 
ATOM     14  SAY 92Q d   1     128.248  34.315 -24.532  0.00  0.00    -0.045 SA
ATOM     15  CAF 92Q d   1     129.934  34.399 -24.782  0.00  0.00     0.094 A 
ATOM     16  CAG 92Q d   1     130.502  33.320 -24.203  0.00  0.00     0.027 A 
ATOM     17  NAH 92Q d   1     129.615  32.462 -23.620  0.00  0.00    -0.235 NA
ATOM     18  H16 92Q d   1     131.577  33.148 -24.201  0.00  0.00     0.117 H 
BRANCH  15  19
ATOM     19  CAE 92Q d   1     130.547  35.421 -25.426  0.00  0.00     0.264 C 
ATOM     20  OAZ 92Q d   1     129.888  36.411 -25.746  0.00  0.00    -0.267 OA
ATOM     21  NAD 92Q d   1     131.889  35.337 -25.650  0.00  0.00    -0.320 N 
ATOM     22  H17 92Q d   1     132.382  34.506 -25.391  0.00  0.00     0.169 HD
BRANCH  21  23
ATOM     23  CAC 92Q d   1     132.569  36.374 -26.224  0.00  0.00     0.062 A 
ATOM     24  CAB 92Q d   1     132.931  36.343 -27.580  0.00  0.00     0.061 A 
ATOM     25 CL   92Q d   1     132.525  35.026 -28.631  0.00  0.00    -0.082 Cl
ATOM     26  CBE 92Q d   1     133.644  37.412 -28.126  0.00  0.00    -0.060 A 
ATOM     27  CBD 92Q d   1     134.006  38.499 -27.341  0.00  0.00    -0.081 A 
ATOM     28  H18 92Q d   1     133.918  37.393 -29.175  0.00  0.00     0.086 H 
ATOM     29  CBC 92Q d   1     133.654  38.524 -25.997  0.00  0.00    -0.075 A 
ATOM     30  H19 92Q d   1     134.560  39.324 -27.774  0.00  0.00     0.083 H 
ATOM     31  CBA 92Q d   1     132.943  37.464 -25.429  0.00  0.00    -0.034 A 
ATOM     32  H20 92Q d   1     133.934  39.373 -25.384  0.00  0.00     0.084 H 
BRANCH  31  33
ATOM     33  CBB 92Q d   1     132.620  37.541 -24.074  0.00  0.00    -0.049 C 
ATOM     34  H21 92Q d   1     132.065  36.639 -23.777  0.00  0.00     0.033 H 
ATOM     35  H22 92Q d   1     131.997  38.430 -23.895  0.00  0.00     0.033 H 
ATOM     36  H23 92Q d   1     133.543  37.615 -23.481  0.00  0.00     0.033 H 
ENDBRANCH  31  33
ENDBRANCH  21  23
ENDBRANCH  15  19
ENDBRANCH  11  13
ENDBRANCH   6  11
BRANCH   1  37
ATOM     37  CAP 92Q d   1     123.788  35.407 -22.631  0.00  0.00     0.252 C 
ATOM     38  NAQ 92Q d   1     122.784  35.806 -23.425  0.00  0.00    -0.351 N 
ATOM     39  H10 92Q d   1     122.448  35.177 -24.126  0.00  0.00     0.163 HD
ATOM     40  OAW 92Q d   1     124.248  36.104 -21.728  0.00  0.00    -0.268 OA
BRANCH  38  41
ATOM     41  CAR 92Q d   1     122.151  37.143 -23.307  0.00  0.00     0.037 C 
ATOM     42  CAV 92Q d   1     123.010  38.223 -23.905  0.00  0.00    -0.022 C 
ATOM     43  CAU 92Q d   1     121.987  39.364 -24.005  0.00  0.00     0.084 C 
ATOM     44  H1  92Q d   1     123.850  38.486 -23.246  0.00  0.00     0.038 H 
ATOM     45  H2  92Q d   1     123.396  37.935 -24.894  0.00  0.00     0.038 H 
ATOM     46  NAT 92Q d   1     120.672  38.698 -24.158  0.00  0.00    -0.073 N 
ATOM     47  H3  92Q d   1     122.201  39.998 -24.878  0.00  0.00     0.075 H 
ATOM     48  H4  92Q d   1     122.004  39.978 -23.092  0.00  0.00     0.075 H 
ATOM     49  CAS 92Q d   1     120.990  37.255 -24.256  0.00  0.00     0.100 C 
ATOM     50  H5  92Q d   1     120.207  39.017 -24.994  0.00  0.00     0.277 HD
ATOM     51  H6  92Q d   1     120.087  38.879 -23.358  0.00  0.00     0.277 HD
ATOM     52  H7  92Q d   1     121.279  36.975 -25.280  0.00  0.00     0.078 H 
ATOM     53  H8  92Q d   1     120.143  36.633 -23.931  0.00  0.00     0.078 H 
ATOM     54  H9  92Q d   1     121.876  37.346 -22.261  0.00  0.00     0.075 H 
ENDBRANCH  38  41
ENDBRANCH   1  37
TORSDOF 7
