REMARK  7 active torsions:
REMARK  status: ('A' for Active; 'I' for Inactive)
REMARK    1  A    between atoms: CAR_8  and  NAQ_9 
REMARK       I    between atoms: NAQ_9  and  CAP_10 
REMARK    2  A    between atoms: CAP_10  and  CAO_12 
REMARK    3  A    between atoms: CAK_17  and  NAJ_18 
REMARK    4  A    between atoms: NAJ_18  and  CAI_19 
REMARK    5  A    between atoms: CAF_23  and  CAE_24 
REMARK       I    between atoms: CAE_24  and  NAD_26 
REMARK    6  A    between atoms: NAD_26  and  CAC_27 
REMARK    7  A    between atoms: CBD_33  and  CBE_34 
ROOT
ATOM      1  CAO 90E d   1     -83.253 -11.497   5.181  0.00  0.00     0.034 A 
ATOM      2  CBA 90E d   1     -84.585 -11.421   4.791  0.00  0.00    -0.042 A 
ATOM      3  CAN 90E d   1     -82.901 -11.542   6.520  0.00  0.00    -0.068 A 
ATOM      4  CAM 90E d   1     -83.889 -11.540   7.488  0.00  0.00    -0.080 A 
ATOM      5  CAL 90E d   1     -85.218 -11.480   7.097  0.00  0.00    -0.057 A 
ATOM      6  CAK 90E d   1     -85.594 -11.438   5.752  0.00  0.00     0.035 A 
ATOM      7  H11 90E d   1     -84.839 -11.348   3.740  0.00  0.00     0.088 H 
ATOM      8  H12 90E d   1     -81.856 -11.579   6.808  0.00  0.00     0.085 H 
ATOM      9  H13 90E d   1     -83.628 -11.585   8.539  0.00  0.00     0.083 H 
ATOM     10  H14 90E d   1     -85.989 -11.465   7.859  0.00  0.00     0.086 H 
ENDROOT
BRANCH   6  11
ATOM     11  NAJ 90E d   1     -86.866 -11.367   5.305  0.00  0.00    -0.335 N 
ATOM     12  H15 90E d   1     -87.027 -10.881   4.411  0.00  0.00     0.168 HD
BRANCH  11  13
ATOM     13  CAI 90E d   1     -87.943 -11.881   5.935  0.00  0.00     0.171 A 
ATOM     14  SBB 90E d   1     -88.023 -12.708   7.355  0.00  0.00    -0.045 SA
ATOM     15  CAF 90E d   1     -89.618 -12.947   7.358  0.00  0.00     0.094 A 
ATOM     16  CAG 90E d   1     -90.129 -12.376   6.250  0.00  0.00     0.027 A 
ATOM     17  NAH 90E d   1     -89.195 -11.786   5.460  0.00  0.00    -0.235 NA
ATOM     18  H16 90E d   1     -91.191 -12.386   6.010  0.00  0.00     0.117 H 
BRANCH  15  19
ATOM     19  CAE 90E d   1     -90.233 -13.609   8.356  0.00  0.00     0.264 C 
ATOM     20  OBC 90E d   1     -89.577 -13.912   9.354  0.00  0.00    -0.267 OA
ATOM     21  NAD 90E d   1     -91.551 -13.911   8.226  0.00  0.00    -0.320 N 
ATOM     22  H17 90E d   1     -92.051 -13.674   7.393  0.00  0.00     0.169 HD
BRANCH  21  23
ATOM     23  CAC 90E d   1     -92.174 -14.542   9.254  0.00  0.00     0.062 A 
ATOM     24  CAB 90E d   1     -92.262 -15.935   9.293  0.00  0.00     0.061 A 
ATOM     25 CLA  90E d   1     -91.587 -16.934   8.059  0.00  0.00    -0.082 Cl
ATOM     26  CBH 90E d   1     -92.916 -16.552  10.355  0.00  0.00    -0.060 A 
ATOM     27  CBG 90E d   1     -93.478 -15.790  11.374  0.00  0.00    -0.081 A 
ATOM     28  H18 90E d   1     -92.988 -17.633  10.388  0.00  0.00     0.086 H 
ATOM     29  CBF 90E d   1     -93.394 -14.402  11.329  0.00  0.00    -0.075 A 
ATOM     30  H19 90E d   1     -93.981 -16.277  12.202  0.00  0.00     0.083 H 
ATOM     31  CBD 90E d   1     -92.747 -13.774  10.269  0.00  0.00    -0.034 A 
ATOM     32  H20 90E d   1     -93.834 -13.808  12.122  0.00  0.00     0.084 H 
BRANCH  31  33
ATOM     33  CBE 90E d   1     -92.684 -12.386  10.249  0.00  0.00    -0.049 C 
ATOM     34  H21 90E d   1     -92.143 -12.056   9.350  0.00  0.00     0.033 H 
ATOM     35  H22 90E d   1     -92.156 -12.030  11.146  0.00  0.00     0.033 H 
ATOM     36  H23 90E d   1     -93.703 -11.973  10.235  0.00  0.00     0.033 H 
ENDBRANCH  31  33
ENDBRANCH  21  23
ENDBRANCH  15  19
ENDBRANCH  11  13
ENDBRANCH   6  11
BRANCH   1  37
ATOM     37  CAP 90E d   1     -82.222 -11.467   4.262  0.00  0.00     0.252 C 
ATOM     38  NAQ 90E d   1     -82.165 -10.276   3.645  0.00  0.00    -0.346 N 
ATOM     39  H10 90E d   1     -82.915  -9.649   3.856  0.00  0.00     0.163 HD
ATOM     40  OAZ 90E d   1     -81.451 -12.419   4.139  0.00  0.00    -0.268 OA
BRANCH  38  41
ATOM     41  CAR 90E d   1     -81.161  -9.760   2.706  0.00  0.00     0.078 C 
ATOM     42  CAW 90E d   1     -80.340  -8.820   3.573  0.00  0.00     0.287 C 
ATOM     43  FAX 90E d   1     -81.152  -7.843   3.917  0.00  0.00    -0.202 F 
ATOM     44  FAY 90E d   1     -79.938  -9.363   4.789  0.00  0.00    -0.202 F 
ATOM     45  CAV 90E d   1     -79.169  -8.337   2.771  0.00  0.00     0.143 C 
ATOM     46  NAU 90E d   1     -78.259  -9.445   2.423  0.00  0.00    -0.069 N 
ATOM     47  H1  90E d   1     -78.615  -7.591   3.360  0.00  0.00     0.085 H 
ATOM     48  H2  90E d   1     -79.537  -7.872   1.845  0.00  0.00     0.085 H 
ATOM     49  CAT 90E d   1     -78.866 -10.787   2.531  0.00  0.00     0.084 C 
ATOM     50  H3  90E d   1     -77.465  -9.407   3.042  0.00  0.00     0.277 HD
ATOM     51  H4  90E d   1     -77.951  -9.314   1.472  0.00  0.00     0.277 HD
ATOM     52  CAS 90E d   1     -80.289 -10.815   1.998  0.00  0.00    -0.018 C 
ATOM     53  H5  90E d   1     -78.878 -11.087   3.589  0.00  0.00     0.075 H 
ATOM     54  H6  90E d   1     -78.257 -11.499   1.955  0.00  0.00     0.075 H 
ATOM     55  H7  90E d   1     -80.719 -11.813   2.171  0.00  0.00     0.038 H 
ATOM     56  H8  90E d   1     -80.274 -10.604   0.918  0.00  0.00     0.038 H 
ATOM     57  H9  90E d   1     -81.673  -9.185   1.920  0.00  0.00     0.082 H 
ENDBRANCH  38  41
ENDBRANCH   1  37
TORSDOF 7
