REMARK  8 active torsions:
REMARK  status: ('A' for Active; 'I' for Inactive)
REMARK    1  A    between atoms: CAU_3  and  OAV_4 
REMARK    2  A    between atoms: CAR_7  and  NAQ_8 
REMARK       I    between atoms: NAQ_8  and  CAP_9 
REMARK    3  A    between atoms: CAP_9  and  CAO_11 
REMARK    4  A    between atoms: CAK_16  and  NAJ_17 
REMARK    5  A    between atoms: NAJ_17  and  CAI_18 
REMARK    6  A    between atoms: CAF_22  and  CAE_23 
REMARK       I    between atoms: CAE_23  and  NAD_25 
REMARK    7  A    between atoms: NAD_25  and  CAC_26 
REMARK    8  A    between atoms: CBC_32  and  CBD_33 
ROOT
ATOM      1  CAO 90W d   1     -83.990 -13.515   7.467  0.00  0.00     0.034 A 
ATOM      2  CAZ 90W d   1     -85.321 -13.526   7.071  0.00  0.00    -0.042 A 
ATOM      3  CAN 90W d   1     -82.979 -13.570   6.515  0.00  0.00    -0.068 A 
ATOM      4  CAM 90W d   1     -83.326 -13.628   5.167  0.00  0.00    -0.080 A 
ATOM      5  CAL 90W d   1     -84.665 -13.638   4.781  0.00  0.00    -0.057 A 
ATOM      6  CAK 90W d   1     -85.681 -13.602   5.731  0.00  0.00     0.035 A 
ATOM      7  H13 90W d   1     -86.098 -13.474   7.825  0.00  0.00     0.088 H 
ATOM      8  H14 90W d   1     -81.938 -13.568   6.816  0.00  0.00     0.085 H 
ATOM      9  H15 90W d   1     -82.549 -13.666   4.413  0.00  0.00     0.083 H 
ATOM     10  H16 90W d   1     -84.918 -13.674   3.728  0.00  0.00     0.086 H 
ENDROOT
BRANCH   6  11
ATOM     11  NAJ 90W d   1     -86.956 -13.596   5.291  0.00  0.00    -0.335 N 
ATOM     12  H17 90W d   1     -87.128 -13.170   4.369  0.00  0.00     0.168 HD
BRANCH  11  13
ATOM     13  CAI 90W d   1     -88.028 -14.094   5.941  0.00  0.00     0.171 A 
ATOM     14  SBA 90W d   1     -88.146 -14.856   7.458  0.00  0.00    -0.045 SA
ATOM     15  CAF 90W d   1     -89.798 -15.096   7.365  0.00  0.00     0.094 A 
ATOM     16  CAG 90W d   1     -90.230 -14.596   6.175  0.00  0.00     0.027 A 
ATOM     17  NAH 90W d   1     -89.258 -14.044   5.396  0.00  0.00    -0.235 NA
ATOM     18  H18 90W d   1     -91.274 -14.634   5.869  0.00  0.00     0.117 H 
BRANCH  15  19
ATOM     19  CAE 90W d   1     -90.464 -15.718   8.378  0.00  0.00     0.264 C 
ATOM     20  OBB 90W d   1     -89.864 -15.941   9.426  0.00  0.00    -0.267 OA
ATOM     21  NAD 90W d   1     -91.756 -16.093   8.210  0.00  0.00    -0.320 N 
ATOM     22  H19 90W d   1     -92.233 -15.904   7.351  0.00  0.00     0.169 HD
BRANCH  21  23
ATOM     23  CAC 90W d   1     -92.397 -16.734   9.235  0.00  0.00     0.062 A 
ATOM     24  CAB 90W d   1     -93.010 -16.001  10.258  0.00  0.00     0.061 A 
ATOM     25 CLA  90W d   1     -92.963 -14.273  10.306  0.00  0.00    -0.082 Cl
ATOM     26  CBG 90W d   1     -93.672 -16.681  11.280  0.00  0.00    -0.060 A 
ATOM     27  CBF 90W d   1     -93.730 -18.072  11.287  0.00  0.00    -0.081 A 
ATOM     28  H20 90W d   1     -94.146 -16.120  12.077  0.00  0.00     0.086 H 
ATOM     29  CBE 90W d   1     -93.129 -18.799  10.266  0.00  0.00    -0.075 A 
ATOM     30  H21 90W d   1     -94.244 -18.588  12.089  0.00  0.00     0.083 H 
ATOM     31  CBC 90W d   1     -92.461 -18.135   9.238  0.00  0.00    -0.034 A 
ATOM     32  H22 90W d   1     -93.180 -19.882  10.269  0.00  0.00     0.084 H 
BRANCH  31  33
ATOM     33  CBD 90W d   1     -91.870 -18.894   8.230  0.00  0.00    -0.049 C 
ATOM     34  H23 90W d   1     -91.388 -18.225   7.502  0.00  0.00     0.033 H 
ATOM     35  H24 90W d   1     -92.640 -19.494   7.723  0.00  0.00     0.033 H 
ATOM     36  H25 90W d   1     -91.115 -19.563   8.669  0.00  0.00     0.033 H 
ENDBRANCH  31  33
ENDBRANCH  21  23
ENDBRANCH  15  19
ENDBRANCH  11  13
ENDBRANCH   6  11
BRANCH   1  37
ATOM     37  CAP 90W d   1     -83.744 -13.461   8.834  0.00  0.00     0.252 C 
ATOM     38  NAQ 90W d   1     -82.480 -13.609   9.251  0.00  0.00    -0.352 N 
ATOM     39  H12 90W d   1     -81.735 -13.722   8.594  0.00  0.00     0.163 HD
ATOM     40  OAY 90W d   1     -84.681 -13.307   9.614  0.00  0.00    -0.268 OA
BRANCH  38  41
ATOM     41  CAR 90W d   1     -82.211 -13.602  10.701  0.00  0.00     0.012 C 
ATOM     42  CAS 90W d   1     -81.736 -14.992  11.136  0.00  0.00    -0.044 C 
ATOM     43  CAT 90W d   1     -81.388 -14.918  12.605  0.00  0.00    -0.039 C 
ATOM     44  H1  90W d   1     -82.537 -15.729  10.977  0.00  0.00     0.036 H 
ATOM     45  H2  90W d   1     -80.849 -15.284  10.555  0.00  0.00     0.036 H 
ATOM     46  CAU 90W d   1     -80.121 -14.085  12.780  0.00  0.00     0.035 C 
ATOM     47  H3  90W d   1     -81.218 -15.933  12.994  0.00  0.00     0.036 H 
ATOM     48  H4  90W d   1     -82.216 -14.448  13.156  0.00  0.00     0.036 H 
ATOM     49  CAW 90W d   1     -79.894 -13.163  11.564  0.00  0.00    -0.039 C 
ATOM     50  H5  90W d   1     -79.259 -14.763  12.866  0.00  0.00     0.082 H 
ATOM     51  CAX 90W d   1     -81.206 -12.515  11.125  0.00  0.00    -0.044 C 
ATOM     52  H7  90W d   1     -79.488 -13.757  10.732  0.00  0.00     0.036 H 
ATOM     53  H8  90W d   1     -79.176 -12.376  11.837  0.00  0.00     0.036 H 
ATOM     54  H9  90W d   1     -81.015 -11.844  10.275  0.00  0.00     0.036 H 
ATOM     55  H10 90W d   1     -81.625 -11.937  11.962  0.00  0.00     0.036 H 
ATOM     56  H11 90W d   1     -83.160 -13.389  11.215  0.00  0.00     0.072 H 
BRANCH  46  57
ATOM     57  OAV 90W d   1     -80.236 -13.326  13.995  0.00  0.00    -0.396 OA
ATOM     58  H6  90W d   1     -79.452 -12.803  14.115  0.00  0.00     0.210 HD
ENDBRANCH  46  57
ENDBRANCH  38  41
ENDBRANCH   1  37
TORSDOF 8
