REMARK  11 active torsions:
REMARK  status: ('A' for Active; 'I' for Inactive)
REMARK    1  A    between atoms: CAT_2  and  CAU_3 
REMARK    2  A    between atoms: CAT_2  and  CAV_4 
REMARK    3  A    between atoms: CAY_7  and  CAZ_8 
REMARK    4  A    between atoms: CAY_7  and  CBA_9 
REMARK    5  A    between atoms: CAR_11  and  NAQ_12 
REMARK       I    between atoms: NAQ_12  and  CAP_13 
REMARK    6  A    between atoms: CAP_13  and  CAO_15 
REMARK    7  A    between atoms: CAK_20  and  NAJ_21 
REMARK    8  A    between atoms: NAJ_21  and  CAI_22 
REMARK    9  A    between atoms: CAF_26  and  CAE_27 
REMARK       I    between atoms: CAE_27  and  NAD_29 
REMARK   10  A    between atoms: NAD_29  and  CAC_30 
REMARK   11  A    between atoms: CBG_36  and  CBH_37 
ROOT
ATOM      1  CAO 90Z d   1     119.904  14.316  44.352  0.00  0.00     0.034 A 
ATOM      2  CBD 90Z d   1     121.262  14.463  44.111  0.00  0.00    -0.042 A 
ATOM      3  CAN 90Z d   1     119.509  14.475  45.640  0.00  0.00    -0.068 A 
ATOM      4  CAM 90Z d   1     120.410  14.732  46.646  0.00  0.00    -0.080 A 
ATOM      5  CAL 90Z d   1     121.749  14.854  46.365  0.00  0.00    -0.057 A 
ATOM      6  CAK 90Z d   1     122.202  14.733  45.090  0.00  0.00     0.035 A 
ATOM      7  H19 90Z d   1     121.609  14.360  43.089  0.00  0.00     0.088 H 
ATOM      8  H20 90Z d   1     118.455  14.397  45.882  0.00  0.00     0.085 H 
ATOM      9  H21 90Z d   1     120.062  14.839  47.667  0.00  0.00     0.083 H 
ATOM     10  H22 90Z d   1     122.451  15.049  47.168  0.00  0.00     0.086 H 
ENDROOT
BRANCH   1  11
ATOM     11  CAP 90Z d   1     118.972  13.980  43.342  0.00  0.00     0.252 C 
ATOM     12  NAQ 90Z d   1     118.111  12.988  43.626  0.00  0.00    -0.352 N 
ATOM     13  H18 90Z d   1     118.142  12.591  44.543  0.00  0.00     0.163 HD
ATOM     14  OBC 90Z d   1     119.031  14.446  42.236  0.00  0.00    -0.268 OA
BRANCH  12  15
ATOM     15  CAR 90Z d   1     117.127  12.449  42.678  0.00  0.00     0.017 C 
ATOM     16  CAS 90Z d   1     115.740  12.519  43.204  0.00  0.00    -0.021 C 
ATOM     17  CAT 90Z d   1     114.708  11.968  42.284  0.00  0.00     0.052 C 
ATOM     18  H1  90Z d   1     115.700  11.952  44.146  0.00  0.00     0.039 H 
ATOM     19  H2  90Z d   1     115.499  13.574  43.400  0.00  0.00     0.039 H 
ATOM     20  NAW 90Z d   1     115.122  10.856  41.431  0.00  0.00    -0.242 N 
ATOM     21  OAX 90Z d   1     114.295   9.906  41.357  0.00  0.00    -0.089 OA
ATOM     22  CAY 90Z d   1     116.560  10.490  41.369  0.00  0.00     0.052 C 
ATOM     23  CBB 90Z d   1     117.395  11.051  42.446  0.00  0.00    -0.021 C 
ATOM     24  H15 90Z d   1     118.453  10.935  42.169  0.00  0.00     0.039 H 
ATOM     25  H16 90Z d   1     117.196  10.495  43.374  0.00  0.00     0.039 H 
ATOM     26  H17 90Z d   1     117.194  13.011  41.735  0.00  0.00     0.072 H 
BRANCH  17  27
ATOM     27  CAU 90Z d   1     114.400  13.039  41.282  0.00  0.00    -0.051 C 
ATOM     28  H3  90Z d   1     113.638  12.674  40.578  0.00  0.00     0.030 H 
ATOM     29  H4  90Z d   1     115.315  13.299  40.730  0.00  0.00     0.030 H 
ATOM     30  H5  90Z d   1     114.021  13.931  41.803  0.00  0.00     0.030 H 
ENDBRANCH  17  27
BRANCH  17  31
ATOM     31  CAV 90Z d   1     113.431  11.748  43.101  0.00  0.00    -0.051 C 
ATOM     32  H6  90Z d   1     113.608  10.966  43.854  0.00  0.00     0.030 H 
ATOM     33  H7  90Z d   1     112.617  11.434  42.431  0.00  0.00     0.030 H 
ATOM     34  H8  90Z d   1     113.151  12.685  43.604  0.00  0.00     0.030 H 
ENDBRANCH  17  31
BRANCH  22  35
ATOM     35  CAZ 90Z d   1     117.036  11.101  40.086  0.00  0.00    -0.051 C 
ATOM     36  H9  90Z d   1     118.105  10.881  39.950  0.00  0.00     0.030 H 
ATOM     37  H10 90Z d   1     116.887  12.190  40.121  0.00  0.00     0.030 H 
ATOM     38  H11 90Z d   1     116.465  10.680  39.245  0.00  0.00     0.030 H 
ENDBRANCH  22  35
BRANCH  22  39
ATOM     39  CBA 90Z d   1     116.820   8.987  41.306  0.00  0.00    -0.051 C 
ATOM     40  H12 90Z d   1     117.904   8.804  41.263  0.00  0.00     0.030 H 
ATOM     41  H13 90Z d   1     116.341   8.569  40.408  0.00  0.00     0.030 H 
ATOM     42  H14 90Z d   1     116.402   8.505  42.202  0.00  0.00     0.030 H 
ENDBRANCH  22  39
ENDBRANCH  12  15
ENDBRANCH   1  11
BRANCH   6  43
ATOM     43  NAJ 90Z d   1     123.493  14.827  44.776  0.00  0.00    -0.335 N 
ATOM     44  H23 90Z d   1     123.751  14.493  43.837  0.00  0.00     0.168 HD
BRANCH  43  45
ATOM     45  CAI 90Z d   1     124.490  15.296  45.517  0.00  0.00     0.171 A 
ATOM     46  SBE 90Z d   1     124.472  15.933  47.091  0.00  0.00    -0.045 SA
ATOM     47  CAF 90Z d   1     126.060  16.271  47.156  0.00  0.00     0.094 A 
ATOM     48  CAG 90Z d   1     126.600  15.871  46.002  0.00  0.00     0.027 A 
ATOM     49  NAH 90Z d   1     125.749  15.364  45.110  0.00  0.00    -0.235 NA
ATOM     50  H24 90Z d   1     127.667  15.954  45.802  0.00  0.00     0.117 H 
BRANCH  47  51
ATOM     51  CAE 90Z d   1     126.683  16.797  48.236  0.00  0.00     0.264 C 
ATOM     52  OBF 90Z d   1     126.011  16.928  49.211  0.00  0.00    -0.267 OA
ATOM     53  NAD 90Z d   1     128.002  17.091  48.209  0.00  0.00    -0.320 N 
ATOM     54  H25 90Z d   1     128.528  16.930  47.374  0.00  0.00     0.169 HD
BRANCH  53  55
ATOM     55  CAC 90Z d   1     128.607  17.592  49.282  0.00  0.00     0.062 A 
ATOM     56  CAB 90Z d   1     128.920  16.738  50.314  0.00  0.00     0.061 A 
ATOM     57 CLA  90Z d   1     128.619  15.157  50.220  0.00  0.00    -0.082 Cl
ATOM     58  CBK 90Z d   1     129.551  17.196  51.461  0.00  0.00    -0.060 A 
ATOM     59  CBJ 90Z d   1     129.856  18.534  51.584  0.00  0.00    -0.081 A 
ATOM     60  H26 90Z d   1     129.803  16.505  52.257  0.00  0.00     0.086 H 
ATOM     61  CBI 90Z d   1     129.531  19.374  50.532  0.00  0.00    -0.075 A 
ATOM     62  H27 90Z d   1     130.336  18.918  52.477  0.00  0.00     0.083 H 
ATOM     63  CBG 90Z d   1     128.901  18.957  49.379  0.00  0.00    -0.034 A 
ATOM     64  H28 90Z d   1     129.788  20.423  50.621  0.00  0.00     0.084 H 
BRANCH  63  65
ATOM     65  CBH 90Z d   1     128.597  19.899  48.379  0.00  0.00    -0.049 C 
ATOM     66  H29 90Z d   1     128.100  19.393  47.538  0.00  0.00     0.033 H 
ATOM     67  H30 90Z d   1     129.525  20.372  48.026  0.00  0.00     0.033 H 
ATOM     68  H31 90Z d   1     127.928  20.669  48.791  0.00  0.00     0.033 H 
ENDBRANCH  63  65
ENDBRANCH  53  55
ENDBRANCH  47  51
ENDBRANCH  43  45
ENDBRANCH   6  43
TORSDOF 11
