REMARK  9 active torsions:
REMARK  status: ('A' for Active; 'I' for Inactive)
REMARK    1  A    between atoms: CAU_3  and  CAW_4 
REMARK    2  A    between atoms: CAU_3  and  OAV_5 
REMARK    3  A    between atoms: CAR_8  and  NAQ_9 
REMARK       I    between atoms: NAQ_9  and  CAP_10 
REMARK    4  A    between atoms: CAP_10  and  CAO_12 
REMARK    5  A    between atoms: CAK_17  and  NAJ_18 
REMARK    6  A    between atoms: NAJ_18  and  CAI_19 
REMARK    7  A    between atoms: CAF_23  and  CAE_24 
REMARK       I    between atoms: CAE_24  and  NAD_26 
REMARK    8  A    between atoms: NAD_26  and  CAC_27 
REMARK    9  A    between atoms: CBD_33  and  CBE_34 
ROOT
ATOM      1  CAO 912 d   1     -83.666 -11.048   7.169  0.00  0.00     0.034 A 
ATOM      2  CBA 912 d   1     -85.015 -11.105   6.877  0.00  0.00    -0.042 A 
ATOM      3  CAN 912 d   1     -82.788 -11.077   6.115  0.00  0.00    -0.068 A 
ATOM      4  CAM 912 d   1     -83.185 -11.141   4.835  0.00  0.00    -0.080 A 
ATOM      5  CAL 912 d   1     -84.522 -11.197   4.609  0.00  0.00    -0.057 A 
ATOM      6  CAK 912 d   1     -85.457 -11.177   5.563  0.00  0.00     0.035 A 
ATOM      7  H15 912 d   1     -85.738 -11.093   7.685  0.00  0.00     0.088 H 
ATOM      8  H16 912 d   1     -81.725 -11.047   6.326  0.00  0.00     0.085 H 
ATOM      9  H17 912 d   1     -82.471 -11.148   4.019  0.00  0.00     0.083 H 
ATOM     10  H18 912 d   1     -84.856 -11.263   3.580  0.00  0.00     0.086 H 
ENDROOT
BRANCH   6  11
ATOM     11  NAJ 912 d   1     -86.686 -11.206   5.132  0.00  0.00    -0.335 N 
ATOM     12  H19 912 d   1     -86.877 -10.808   4.201  0.00  0.00     0.168 HD
BRANCH  11  13
ATOM     13  CAI 912 d   1     -87.684 -11.700   5.791  0.00  0.00     0.171 A 
ATOM     14  SBB 912 d   1     -87.700 -12.463   7.284  0.00  0.00    -0.045 SA
ATOM     15  CAF 912 d   1     -89.368 -12.736   7.296  0.00  0.00     0.094 A 
ATOM     16  CAG 912 d   1     -89.803 -12.186   6.165  0.00  0.00     0.027 A 
ATOM     17  NAH 912 d   1     -88.898 -11.656   5.350  0.00  0.00    -0.235 NA
ATOM     18  H20 912 d   1     -90.863 -12.171   5.917  0.00  0.00     0.117 H 
BRANCH  15  19
ATOM     19  CAE 912 d   1     -90.012 -13.368   8.348  0.00  0.00     0.264 C 
ATOM     20  OBC 912 d   1     -89.402 -13.548   9.339  0.00  0.00    -0.267 OA
ATOM     21  NAD 912 d   1     -91.283 -13.759   8.233  0.00  0.00    -0.320 N 
ATOM     22  H21 912 d   1     -91.761 -13.585   7.372  0.00  0.00     0.169 HD
BRANCH  21  23
ATOM     23  CAC 912 d   1     -91.959 -14.385   9.239  0.00  0.00     0.062 A 
ATOM     24  CAB 912 d   1     -92.487 -13.663  10.303  0.00  0.00     0.061 A 
ATOM     25 CLA  912 d   1     -92.267 -11.986  10.439  0.00  0.00    -0.082 Cl
ATOM     26  CBH 912 d   1     -93.188 -14.295  11.310  0.00  0.00    -0.060 A 
ATOM     27  CBG 912 d   1     -93.407 -15.657  11.246  0.00  0.00    -0.081 A 
ATOM     28  H22 912 d   1     -93.566 -13.723  12.150  0.00  0.00     0.086 H 
ATOM     29  CBF 912 d   1     -92.911 -16.365  10.172  0.00  0.00    -0.075 A 
ATOM     30  H23 912 d   1     -93.961 -16.162  12.029  0.00  0.00     0.083 H 
ATOM     31  CBD 912 d   1     -92.194 -15.756   9.167  0.00  0.00    -0.034 A 
ATOM     32  H24 912 d   1     -93.091 -17.433  10.117  0.00  0.00     0.084 H 
BRANCH  31  33
ATOM     33  CBE 912 d   1     -91.690 -16.553   8.129  0.00  0.00    -0.049 C 
ATOM     34  H25 912 d   1     -91.146 -15.921   7.412  0.00  0.00     0.033 H 
ATOM     35  H26 912 d   1     -92.523 -17.056   7.615  0.00  0.00     0.033 H 
ATOM     36  H27 912 d   1     -91.006 -17.308   8.545  0.00  0.00     0.033 H 
ENDBRANCH  31  33
ENDBRANCH  21  23
ENDBRANCH  15  19
ENDBRANCH  11  13
ENDBRANCH   6  11
BRANCH   1  37
ATOM     37  CAP 912 d   1     -83.159 -10.988   8.469  0.00  0.00     0.252 C 
ATOM     38  NAQ 912 d   1     -82.075 -11.683   8.602  0.00  0.00    -0.352 N 
ATOM     39  H14 912 d   1     -81.931 -12.279   7.812  0.00  0.00     0.163 HD
ATOM     40  OAZ 912 d   1     -83.685 -10.421   9.374  0.00  0.00    -0.268 OA
BRANCH  38  41
ATOM     41  CAR 912 d   1     -81.022 -11.838   9.565  0.00  0.00     0.013 C 
ATOM     42  CAS 912 d   1     -80.102 -10.715   9.350  0.00  0.00    -0.043 C 
ATOM     43  CAT 912 d   1     -78.835 -11.410   9.501  0.00  0.00    -0.035 C 
ATOM     44  H1  912 d   1     -80.214 -10.279   8.346  0.00  0.00     0.036 H 
ATOM     45  H2  912 d   1     -80.231  -9.928  10.108  0.00  0.00     0.036 H 
ATOM     46  CAU 912 d   1     -78.703 -11.776  10.933  0.00  0.00     0.054 C 
ATOM     47  H3  912 d   1     -78.006 -10.752   9.202  0.00  0.00     0.037 H 
ATOM     48  H4  912 d   1     -78.826 -12.316   8.878  0.00  0.00     0.037 H 
ATOM     49  CAX 912 d   1     -79.939 -12.474  11.529  0.00  0.00    -0.035 C 
ATOM     50  CAY 912 d   1     -81.307 -11.940  10.970  0.00  0.00    -0.043 C 
ATOM     51  H9  912 d   1     -79.929 -12.324  12.619  0.00  0.00     0.037 H 
ATOM     52  H10 912 d   1     -79.870 -13.549  11.306  0.00  0.00     0.037 H 
ATOM     53  H11 912 d   1     -81.562 -10.960  11.400  0.00  0.00     0.036 H 
ATOM     54  H12 912 d   1     -82.125 -12.650  11.164  0.00  0.00     0.036 H 
ATOM     55  H13 912 d   1     -80.503 -12.771   9.301  0.00  0.00     0.072 H 
BRANCH  46  56
ATOM     56  CAW 912 d   1     -78.536 -10.529  11.752  0.00  0.00    -0.048 C 
ATOM     57  H5  912 d   1     -78.438 -10.798  12.814  0.00  0.00     0.031 H 
ATOM     58  H6  912 d   1     -79.415  -9.882  11.618  0.00  0.00     0.031 H 
ATOM     59  H7  912 d   1     -77.633  -9.993  11.425  0.00  0.00     0.031 H 
ENDBRANCH  46  56
BRANCH  46  60
ATOM     60  OAV 912 d   1     -77.545 -12.557  10.918  0.00  0.00    -0.390 OA
ATOM     61  H8  912 d   1     -77.694 -13.333  10.390  0.00  0.00     0.210 HD
ENDBRANCH  46  60
ENDBRANCH  38  41
ENDBRANCH   1  37
TORSDOF 9
