REMARK  8 active torsions:
REMARK  status: ('A' for Active; 'I' for Inactive)
REMARK    1  A    between atoms: CAU_3  and  CAV_4 
REMARK    2  A    between atoms: CAR_9  and  NAQ_10 
REMARK       I    between atoms: NAQ_10  and  CAP_11 
REMARK    3  A    between atoms: CAP_11  and  CAO_13 
REMARK    4  A    between atoms: CAK_18  and  NAJ_19 
REMARK    5  A    between atoms: NAJ_19  and  CAI_20 
REMARK    6  A    between atoms: CAF_24  and  CAE_25 
REMARK       I    between atoms: CAE_25  and  NAD_27 
REMARK    7  A    between atoms: NAD_27  and  CAC_28 
REMARK    8  A    between atoms: CBE_34  and  CBF_35 
ROOT
ATOM      1  CAO 91H d   1      91.648  14.725   5.372  0.00  0.00     0.034 A 
ATOM      2  CBB 91H d   1      92.998  14.765   5.048  0.00  0.00    -0.042 A 
ATOM      3  CAN 91H d   1      91.247  14.514   6.676  0.00  0.00    -0.068 A 
ATOM      4  CAM 91H d   1      92.200  14.313   7.660  0.00  0.00    -0.080 A 
ATOM      5  CAL 91H d   1      93.555  14.352   7.322  0.00  0.00    -0.057 A 
ATOM      6  CAK 91H d   1      93.954  14.610   6.005  0.00  0.00     0.035 A 
ATOM      7  H12 91H d   1      93.295  14.922   4.017  0.00  0.00     0.088 H 
ATOM      8  H13 91H d   1      90.193  14.506   6.928  0.00  0.00     0.085 H 
ATOM      9  H14 91H d   1      91.897  14.127   8.684  0.00  0.00     0.083 H 
ATOM     10  H15 91H d   1      94.304  14.181   8.086  0.00  0.00     0.086 H 
ENDROOT
BRANCH   6  11
ATOM     11  NAJ 91H d   1      95.247  14.630   5.531  0.00  0.00    -0.335 N 
ATOM     12  H16 91H d   1      95.428  14.292   4.575  0.00  0.00     0.168 HD
BRANCH  11  13
ATOM     13  CAI 91H d   1      96.276  15.070   6.261  0.00  0.00     0.171 A 
ATOM     14  SBC 91H d   1      96.153  15.850   7.806  0.00  0.00    -0.045 SA
ATOM     15  CAF 91H d   1      97.882  16.054   7.903  0.00  0.00     0.094 A 
ATOM     16  CAG 91H d   1      98.443  15.524   6.763  0.00  0.00     0.027 A 
ATOM     17  NAH 91H d   1      97.550  15.024   5.850  0.00  0.00    -0.235 NA
ATOM     18  H17 91H d   1      99.519  15.503   6.598  0.00  0.00     0.117 H 
BRANCH  15  19
ATOM     19  CAE 91H d   1      98.446  16.608   9.023  0.00  0.00     0.264 C 
ATOM     20  OBD 91H d   1      97.705  16.821   9.984  0.00  0.00    -0.267 OA
ATOM     21  NAD 91H d   1      99.783  16.877   9.089  0.00  0.00    -0.320 N 
ATOM     22  H18 91H d   1     100.351  16.716   8.282  0.00  0.00     0.169 HD
BRANCH  21  23
ATOM     23  CAC 91H d   1     100.369  17.361  10.228  0.00  0.00     0.062 A 
ATOM     24  CAB 91H d   1     100.687  18.718  10.314  0.00  0.00     0.061 A 
ATOM     25 CLA  91H d   1     100.296  19.825   9.044  0.00  0.00    -0.082 Cl
ATOM     26  CBI 91H d   1     101.364  19.209  11.443  0.00  0.00    -0.060 A 
ATOM     27  CBH 91H d   1     101.677  18.357  12.497  0.00  0.00    -0.081 A 
ATOM     28  H19 91H d   1     101.643  20.255  11.493  0.00  0.00     0.086 H 
ATOM     29  CBG 91H d   1     101.361  16.999  12.403  0.00  0.00    -0.075 A 
ATOM     30  H20 91H d   1     102.163  18.744  13.386  0.00  0.00     0.083 H 
ATOM     31  CBE 91H d   1     100.734  16.495  11.274  0.00  0.00    -0.034 A 
ATOM     32  H21 91H d   1     101.609  16.333  13.221  0.00  0.00     0.084 H 
BRANCH  31  33
ATOM     33  CBF 91H d   1     100.444  15.108  11.228  0.00  0.00    -0.049 C 
ATOM     34  H22 91H d   1      99.951  14.868  10.275  0.00  0.00     0.033 H 
ATOM     35  H23 91H d   1      99.777  14.845  12.062  0.00  0.00     0.033 H 
ATOM     36  H24 91H d   1     101.379  14.535  11.311  0.00  0.00     0.033 H 
ENDBRANCH  31  33
ENDBRANCH  21  23
ENDBRANCH  15  19
ENDBRANCH  11  13
ENDBRANCH   6  11
BRANCH   1  37
ATOM     37  CAP 91H d   1      90.750  14.936   4.339  0.00  0.00     0.252 C 
ATOM     38  NAQ 91H d   1      90.644  16.226   4.009  0.00  0.00    -0.352 N 
ATOM     39  H11 91H d   1      91.165  16.893   4.541  0.00  0.00     0.163 HD
ATOM     40  OBA 91H d   1      90.200  14.002   3.750  0.00  0.00    -0.268 OA
BRANCH  38  41
ATOM     41  CAR 91H d   1      89.807  16.719   2.912  0.00  0.00     0.012 C 
ATOM     42  CAS 91H d   1      88.405  17.038   3.377  0.00  0.00    -0.045 C 
ATOM     43  CAT 91H d   1      87.529  17.297   2.139  0.00  0.00    -0.051 C 
ATOM     44  H1  91H d   1      88.001  16.189   3.947  0.00  0.00     0.036 H 
ATOM     45  H2  91H d   1      88.420  17.934   4.015  0.00  0.00     0.036 H 
ATOM     46  CAU 91H d   1      88.259  18.140   1.060  0.00  0.00     0.031 C 
ATOM     47  H3  91H d   1      86.623  17.836   2.454  0.00  0.00     0.034 H 
ATOM     48  H4  91H d   1      87.246  16.330   1.699  0.00  0.00     0.034 H 
ATOM     49  CAY 91H d   1      89.457  18.895   1.668  0.00  0.00    -0.051 C 
ATOM     50  H5  91H d   1      87.544  18.900   0.712  0.00  0.00     0.056 H 
ATOM     51  CAZ 91H d   1      90.469  17.983   2.372  0.00  0.00    -0.045 C 
ATOM     52  H6  91H d   1      89.074  19.620   2.401  0.00  0.00     0.034 H 
ATOM     53  H7  91H d   1      89.976  19.431   0.860  0.00  0.00     0.034 H 
ATOM     54  H8  91H d   1      90.923  18.533   3.209  0.00  0.00     0.036 H 
ATOM     55  H9  91H d   1      91.251  17.697   1.654  0.00  0.00     0.036 H 
ATOM     56  H10 91H d   1      89.756  15.957   2.120  0.00  0.00     0.072 H 
BRANCH  46  57
ATOM     57  CAV 91H d   1      88.660  17.310  -0.182  0.00  0.00     0.177 C 
ATOM     58  OAX 91H d   1      89.879  17.202  -0.448  0.00  0.00    -0.648 OA
ATOM     59  OAW 91H d   1      87.722  16.849  -0.871  0.00  0.00    -0.648 OA
ENDBRANCH  46  57
ENDBRANCH  38  41
ENDBRANCH   1  37
TORSDOF 8
