REMARK  7 active torsions:
REMARK  status: ('A' for Active; 'I' for Inactive)
REMARK    1  A    between atoms: NAK_6  and  CAJ_7 
REMARK    2  A    between atoms: CAR_10  and  NAS_11 
REMARK    3  A    between atoms: CAH_18  and  NAG_19 
REMARK    4  A    between atoms: NAG_19  and  CAF_20 
REMARK    5  A    between atoms: CAC_24  and  CAB_25 
REMARK       I    between atoms: CAB_25  and  NBA_27 
REMARK    6  A    between atoms: NBA_27  and  CBB_28 
REMARK    7  A    between atoms: CBH_34  and  CBI_35 
ROOT
ATOM      1  CAJ 8ZT d   1     -83.252 -15.845   5.230  0.00  0.00     0.034 A 
ATOM      2  CAI 8ZT d   1     -84.590 -15.840   4.813  0.00  0.00    -0.032 A 
ATOM      3  CAQ 8ZT d   1     -82.978 -15.941   6.581  0.00  0.00    -0.032 A 
ATOM      4  CAR 8ZT d   1     -83.973 -16.025   7.548  0.00  0.00     0.034 A 
ATOM      5  CAY 8ZT d   1     -85.290 -16.035   7.136  0.00  0.00    -0.032 A 
ATOM      6  CAH 8ZT d   1     -85.614 -15.960   5.784  0.00  0.00     0.038 A 
ATOM      7  H9  8ZT d   1     -84.838 -15.746   3.762  0.00  0.00     0.090 H 
ATOM      8  H10 8ZT d   1     -81.942 -15.951   6.901  0.00  0.00     0.090 H 
ATOM      9  H19 8ZT d   1     -86.082 -16.102   7.874  0.00  0.00     0.090 H 
ENDROOT
BRANCH   6  10
ATOM     10  NAG 8ZT d   1     -86.873 -15.951   5.249  0.00  0.00    -0.335 N 
ATOM     11  H20 8ZT d   1     -86.999 -15.520   4.322  0.00  0.00     0.168 HD
BRANCH  10  12
ATOM     12  CAF 8ZT d   1     -87.955 -16.467   5.853  0.00  0.00     0.171 A 
ATOM     13  SAZ 8ZT d   1     -88.061 -17.271   7.373  0.00  0.00    -0.045 SA
ATOM     14  CAC 8ZT d   1     -89.742 -17.460   7.344  0.00  0.00     0.094 A 
ATOM     15  CAD 8ZT d   1     -90.157 -16.887   6.177  0.00  0.00     0.027 A 
ATOM     16  NAE 8ZT d   1     -89.210 -16.330   5.373  0.00  0.00    -0.235 NA
ATOM     17  H21 8ZT d   1     -91.210 -16.876   5.898  0.00  0.00     0.117 H 
BRANCH  14  18
ATOM     18  CAB 8ZT d   1     -90.439 -18.095   8.359  0.00  0.00     0.264 C 
ATOM     19  OAA 8ZT d   1     -89.864 -18.251   9.441  0.00  0.00    -0.267 OA
ATOM     20  NBA 8ZT d   1     -91.728 -18.503   8.199  0.00  0.00    -0.320 N 
ATOM     21  H22 8ZT d   1     -92.183 -18.368   7.319  0.00  0.00     0.169 HD
BRANCH  20  22
ATOM     22  CBB 8ZT d   1     -92.427 -19.111   9.253  0.00  0.00     0.062 A 
ATOM     23  CBC 8ZT d   1     -92.957 -18.360  10.296  0.00  0.00     0.061 A 
ATOM     24 CLB  8ZT d   1     -92.740 -16.635  10.410  0.00  0.00    -0.082 Cl
ATOM     25  CBE 8ZT d   1     -93.665 -19.027  11.309  0.00  0.00    -0.060 A 
ATOM     26  CBF 8ZT d   1     -93.844 -20.413  11.286  0.00  0.00    -0.081 A 
ATOM     27  H23 8ZT d   1     -94.083 -18.453  12.128  0.00  0.00     0.086 H 
ATOM     28  CBG 8ZT d   1     -93.351 -21.180  10.211  0.00  0.00    -0.075 A 
ATOM     29  H24 8ZT d   1     -94.366 -20.902  12.101  0.00  0.00     0.083 H 
ATOM     30  CBH 8ZT d   1     -92.634 -20.491   9.212  0.00  0.00    -0.034 A 
ATOM     31  H25 8ZT d   1     -93.516 -22.250  10.155  0.00  0.00     0.084 H 
BRANCH  30  32
ATOM     32  CBI 8ZT d   1     -92.123 -21.220   8.120  0.00  0.00    -0.049 C 
ATOM     33  H26 8ZT d   1     -91.595 -20.537   7.438  0.00  0.00     0.033 H 
ATOM     34  H27 8ZT d   1     -92.951 -21.705   7.583  0.00  0.00     0.033 H 
ATOM     35  H28 8ZT d   1     -91.424 -21.986   8.486  0.00  0.00     0.033 H 
ENDBRANCH  30  32
ENDBRANCH  20  22
ENDBRANCH  14  18
ENDBRANCH  10  12
ENDBRANCH   6  10
BRANCH   1  36
ATOM     36  NAK 8ZT d   1     -82.222 -15.707   4.330  0.00  0.00    -0.377 N 
ATOM     37  CAL 8ZT d   1     -82.411 -14.939   3.125  0.00  0.00     0.015 C 
ATOM     38  CAM 8ZT d   1     -81.362 -15.243   2.042  0.00  0.00     0.034 C 
ATOM     39  H1  8ZT d   1     -83.408 -15.165   2.719  0.00  0.00     0.067 H 
ATOM     40  H2  8ZT d   1     -82.352 -13.870   3.379  0.00  0.00     0.067 H 
ATOM     41  OAN 8ZT d   1     -80.065 -15.092   2.657  0.00  0.00    -0.388 OA
ATOM     42  H3  8ZT d   1     -81.468 -14.537   1.205  0.00  0.00     0.076 H 
ATOM     43  H4  8ZT d   1     -81.487 -16.271   1.673  0.00  0.00     0.076 H 
ATOM     44  CAO 8ZT d   1     -79.920 -16.252   3.523  0.00  0.00     0.034 C 
ATOM     45  CAP 8ZT d   1     -80.852 -16.078   4.732  0.00  0.00     0.015 C 
ATOM     46  H5  8ZT d   1     -78.878 -16.331   3.866  0.00  0.00     0.076 H 
ATOM     47  H6  8ZT d   1     -80.194 -17.163   2.971  0.00  0.00     0.076 H 
ATOM     48  H7  8ZT d   1     -80.447 -15.288   5.381  0.00  0.00     0.067 H 
ATOM     49  H8  8ZT d   1     -80.891 -17.026   5.289  0.00  0.00     0.067 H 
ENDBRANCH   1  36
BRANCH   4  50
ATOM     50  NAS 8ZT d   1     -83.698 -16.133   8.871  0.00  0.00    -0.377 N 
ATOM     51  CAT 8ZT d   1     -82.586 -16.967   9.300  0.00  0.00     0.015 C 
ATOM     52  CAU 8ZT d   1     -82.193 -16.736  10.719  0.00  0.00     0.034 C 
ATOM     53  H11 8ZT d   1     -81.719 -16.752   8.658  0.00  0.00     0.067 H 
ATOM     54  H12 8ZT d   1     -82.875 -18.022   9.184  0.00  0.00     0.067 H 
ATOM     55  OAV 8ZT d   1     -83.367 -16.689  11.550  0.00  0.00    -0.388 OA
ATOM     56  H13 8ZT d   1     -81.652 -15.781  10.797  0.00  0.00     0.076 H 
ATOM     57  H14 8ZT d   1     -81.541 -17.555  11.055  0.00  0.00     0.076 H 
ATOM     58  CAW 8ZT d   1     -84.202 -15.544  11.232  0.00  0.00     0.034 C 
ATOM     59  CAX 8ZT d   1     -84.715 -15.651   9.802  0.00  0.00     0.015 C 
ATOM     60  H15 8ZT d   1     -83.611 -14.622  11.338  0.00  0.00     0.076 H 
ATOM     61  H16 8ZT d   1     -85.057 -15.514  11.924  0.00  0.00     0.076 H 
ATOM     62  H17 8ZT d   1     -85.566 -16.348   9.785  0.00  0.00     0.067 H 
ATOM     63  H18 8ZT d   1     -85.049 -14.656   9.473  0.00  0.00     0.067 H 
ENDBRANCH   4  50
TORSDOF 7
