REMARK  7 active torsions:
REMARK  status: ('A' for Active; 'I' for Inactive)
REMARK    1  A    between atoms: CAU_2  and  CAT_4 
REMARK       I    between atoms: NAQ_8  and  CAP_9 
REMARK    2  A    between atoms: CAP_9  and  CAO_11 
REMARK    3  A    between atoms: CAK_16  and  NAJ_17 
REMARK    4  A    between atoms: NAJ_17  and  CAI_18 
REMARK    5  A    between atoms: CAF_22  and  CAE_23 
REMARK       I    between atoms: CAE_23  and  NAD_25 
REMARK    6  A    between atoms: NAD_25  and  CAC_26 
REMARK    7  A    between atoms: CBC_32  and  CBD_33 
ROOT
ATOM      1  CAO 90T d   1     -83.250 -12.172   4.893  0.00  0.00     0.034 A 
ATOM      2  CAZ 90T d   1     -84.611 -12.312   4.605  0.00  0.00    -0.042 A 
ATOM      3  CAN 90T d   1     -82.844 -12.325   6.219  0.00  0.00    -0.068 A 
ATOM      4  CAM 90T d   1     -83.767 -12.616   7.215  0.00  0.00    -0.080 A 
ATOM      5  CAL 90T d   1     -85.121 -12.740   6.909  0.00  0.00    -0.057 A 
ATOM      6  CAK 90T d   1     -85.548 -12.604   5.594  0.00  0.00     0.035 A 
ATOM      7  H8  90T d   1     -84.947 -12.190   3.582  0.00  0.00     0.088 H 
ATOM      8  H9  90T d   1     -81.796 -12.216   6.475  0.00  0.00     0.085 H 
ATOM      9  H10 90T d   1     -83.432 -12.748   8.238  0.00  0.00     0.083 H 
ATOM     10  H11 90T d   1     -85.839 -12.942   7.695  0.00  0.00     0.086 H 
ENDROOT
BRANCH   6  11
ATOM     11  NAJ 90T d   1     -86.829 -12.671   5.162  0.00  0.00    -0.335 N 
ATOM     12  H12 90T d   1     -87.030 -12.308   4.219  0.00  0.00     0.168 HD
BRANCH  11  13
ATOM     13  CAI 90T d   1     -87.859 -13.172   5.863  0.00  0.00     0.171 A 
ATOM     14  SBA 90T d   1     -87.889 -13.955   7.385  0.00  0.00    -0.045 SA
ATOM     15  CAF 90T d   1     -89.590 -14.191   7.348  0.00  0.00     0.094 A 
ATOM     16  CAG 90T d   1     -90.066 -13.673   6.196  0.00  0.00     0.027 A 
ATOM     17  NAH 90T d   1     -89.120 -13.109   5.386  0.00  0.00    -0.235 NA
ATOM     18  H13 90T d   1     -91.122 -13.702   5.932  0.00  0.00     0.117 H 
BRANCH  15  19
ATOM     19  CAE 90T d   1     -90.244 -14.826   8.373  0.00  0.00     0.264 C 
ATOM     20  OBB 90T d   1     -89.608 -15.070   9.396  0.00  0.00    -0.267 OA
ATOM     21  NAD 90T d   1     -91.538 -15.207   8.223  0.00  0.00    -0.320 N 
ATOM     22  H14 90T d   1     -92.010 -15.020   7.362  0.00  0.00     0.169 HD
BRANCH  21  23
ATOM     23  CAC 90T d   1     -92.214 -15.852   9.247  0.00  0.00     0.062 A 
ATOM     24  CAB 90T d   1     -92.725 -15.124  10.322  0.00  0.00     0.061 A 
ATOM     25 CL1  90T d   1     -92.486 -13.410  10.431  0.00  0.00    -0.082 Cl
ATOM     26  CBG 90T d   1     -93.434 -15.784  11.331  0.00  0.00    -0.060 A 
ATOM     27  CBF 90T d   1     -93.646 -17.165  11.259  0.00  0.00    -0.081 A 
ATOM     28  H15 90T d   1     -93.821 -15.222  12.173  0.00  0.00     0.086 H 
ATOM     29  CBE 90T d   1     -93.150 -17.899  10.179  0.00  0.00    -0.075 A 
ATOM     30  H16 90T d   1     -94.198 -17.668  12.045  0.00  0.00     0.083 H 
ATOM     31  CBC 90T d   1     -92.438 -17.228   9.177  0.00  0.00    -0.034 A 
ATOM     32  H17 90T d   1     -93.313 -18.969  10.118  0.00  0.00     0.084 H 
BRANCH  31  33
ATOM     33  CBD 90T d   1     -91.948 -17.956   8.088  0.00  0.00    -0.049 C 
ATOM     34  H18 90T d   1     -91.418 -17.278   7.402  0.00  0.00     0.033 H 
ATOM     35  H19 90T d   1     -92.786 -18.432   7.558  0.00  0.00     0.033 H 
ATOM     36  H20 90T d   1     -91.254 -18.730   8.447  0.00  0.00     0.033 H 
ENDBRANCH  31  33
ENDBRANCH  21  23
ENDBRANCH  15  19
ENDBRANCH  11  13
ENDBRANCH   6  11
BRANCH   1  37
ATOM     37  CAP 90T d   1     -82.337 -11.829   3.870  0.00  0.00     0.253 C 
ATOM     38  NAQ 90T d   1     -81.503 -12.723   3.327  0.00  0.00    -0.347 N 
ATOM     39  CAX 90T d   1     -81.274 -14.153   3.633  0.00  0.00     0.011 C 
ATOM     40  CAR 90T d   1     -80.555 -12.309   2.246  0.00  0.00    -0.001 C 
ATOM     41  CAT 90T d   1     -80.421 -14.619   2.471  0.00  0.00     0.047 C 
ATOM     42  H2  90T d   1     -80.741 -14.272   4.588  0.00  0.00     0.065 H 
ATOM     43  H3  90T d   1     -82.224 -14.706   3.672  0.00  0.00     0.065 H 
ATOM     44  CAS 90T d   1     -79.527 -13.423   2.281  0.00  0.00    -0.036 C 
ATOM     45  H1  90T d   1     -79.856 -15.537   2.691  0.00  0.00     0.059 H 
ATOM     46  H4  90T d   1     -78.963 -13.484   1.339  0.00  0.00     0.036 H 
ATOM     47  H5  90T d   1     -78.827 -13.303   3.121  0.00  0.00     0.036 H 
ATOM     48  H6  90T d   1     -81.059 -12.261   1.270  0.00  0.00     0.064 H 
ATOM     49  H7  90T d   1     -80.096 -11.335   2.469  0.00  0.00     0.064 H 
ATOM     50  OAY 90T d   1     -82.308 -10.664   3.459  0.00  0.00    -0.267 OA
BRANCH  41  51
ATOM     51  CAU 90T d   1     -81.326 -14.811   1.267  0.00  0.00     0.178 C 
ATOM     52  OAV 90T d   1     -82.452 -15.293   1.514  0.00  0.00    -0.648 OA
ATOM     53  OAW 90T d   1     -80.882 -14.487   0.138  0.00  0.00    -0.648 OA
ENDBRANCH  41  51
ENDBRANCH   1  37
TORSDOF 7
