REMARK  8 active torsions:
REMARK  status: ('A' for Active; 'I' for Inactive)
REMARK    1  A    between atoms: CAV_2  and  CAU_4 
REMARK    2  A    between atoms: CAU_4  and  CAT_5 
REMARK       I    between atoms: NAQ_9  and  CAP_10 
REMARK    3  A    between atoms: CAP_10  and  CAO_12 
REMARK    4  A    between atoms: CAK_17  and  NAJ_18 
REMARK    5  A    between atoms: NAJ_18  and  CAI_19 
REMARK    6  A    between atoms: CAF_23  and  CAE_24 
REMARK       I    between atoms: CAE_24  and  NAD_26 
REMARK    7  A    between atoms: NAD_26  and  CAC_27 
REMARK    8  A    between atoms: CBD_33  and  CBE_34 
ROOT
ATOM      1  CAO 91K d   1     -83.120 -15.034   4.860  0.00  0.00     0.034 A 
ATOM      2  CBA 91K d   1     -84.500 -15.117   4.580  0.00  0.00    -0.042 A 
ATOM      3  CAN 91K d   1     -82.693 -15.226   6.167  0.00  0.00    -0.068 A 
ATOM      4  CAM 91K d   1     -83.639 -15.520   7.139  0.00  0.00    -0.080 A 
ATOM      5  CAL 91K d   1     -85.009 -15.598   6.856  0.00  0.00    -0.057 A 
ATOM      6  CAK 91K d   1     -85.461 -15.418   5.547  0.00  0.00     0.035 A 
ATOM      7  H10 91K d   1     -84.831 -14.938   3.563  0.00  0.00     0.088 H 
ATOM      8  H11 91K d   1     -81.643 -15.148   6.423  0.00  0.00     0.085 H 
ATOM      9  H12 91K d   1     -83.305 -15.696   8.155  0.00  0.00     0.083 H 
ATOM     10  H13 91K d   1     -85.717 -15.798   7.652  0.00  0.00     0.086 H 
ENDROOT
BRANCH   6  11
ATOM     11  NAJ 91K d   1     -86.753 -15.462   5.128  0.00  0.00    -0.335 N 
ATOM     12  H14 91K d   1     -86.955 -15.089   4.189  0.00  0.00     0.168 HD
BRANCH  11  13
ATOM     13  CAI 91K d   1     -87.799 -15.953   5.835  0.00  0.00     0.171 A 
ATOM     14  SBB 91K d   1     -87.819 -16.728   7.334  0.00  0.00    -0.045 SA
ATOM     15  CAF 91K d   1     -89.523 -16.953   7.321  0.00  0.00     0.094 A 
ATOM     16  CAG 91K d   1     -90.004 -16.443   6.164  0.00  0.00     0.027 A 
ATOM     17  NAH 91K d   1     -89.059 -15.888   5.357  0.00  0.00    -0.235 NA
ATOM     18  H15 91K d   1     -91.060 -16.474   5.900  0.00  0.00     0.117 H 
BRANCH  15  19
ATOM     19  CAE 91K d   1     -90.175 -17.600   8.334  0.00  0.00     0.264 C 
ATOM     20  OBC 91K d   1     -89.561 -17.852   9.366  0.00  0.00    -0.267 OA
ATOM     21  NAD 91K d   1     -91.469 -17.994   8.185  0.00  0.00    -0.320 N 
ATOM     22  H16 91K d   1     -91.951 -17.802   7.330  0.00  0.00     0.169 HD
BRANCH  21  23
ATOM     23  CAC 91K d   1     -92.121 -18.658   9.206  0.00  0.00     0.062 A 
ATOM     24  CAB 91K d   1     -92.625 -17.946  10.288  0.00  0.00     0.061 A 
ATOM     25 CL1  91K d   1     -92.397 -16.222  10.363  0.00  0.00    -0.082 Cl
ATOM     26  CBH 91K d   1     -93.313 -18.599  11.315  0.00  0.00    -0.060 A 
ATOM     27  CBG 91K d   1     -93.494 -19.981  11.238  0.00  0.00    -0.081 A 
ATOM     28  H17 91K d   1     -93.700 -18.040  12.159  0.00  0.00     0.086 H 
ATOM     29  CBF 91K d   1     -93.006 -20.697  10.145  0.00  0.00    -0.075 A 
ATOM     30  H18 91K d   1     -94.017 -20.501  12.033  0.00  0.00     0.083 H 
ATOM     31  CBD 91K d   1     -92.317 -20.040   9.132  0.00  0.00    -0.034 A 
ATOM     32  H19 91K d   1     -93.164 -21.768  10.085  0.00  0.00     0.084 H 
BRANCH  31  33
ATOM     33  CBE 91K d   1     -91.840 -20.783   8.046  0.00  0.00    -0.049 C 
ATOM     34  H20 91K d   1     -91.323 -20.114   7.343  0.00  0.00     0.033 H 
ATOM     35  H21 91K d   1     -92.684 -21.270   7.536  0.00  0.00     0.033 H 
ATOM     36  H22 91K d   1     -91.138 -21.549   8.406  0.00  0.00     0.033 H 
ENDBRANCH  31  33
ENDBRANCH  21  23
ENDBRANCH  15  19
ENDBRANCH  11  13
ENDBRANCH   6  11
BRANCH   1  37
ATOM     37  CAP 91K d   1     -82.209 -14.664   3.848  0.00  0.00     0.253 C 
ATOM     38  NAQ 91K d   1     -81.380 -15.529   3.243  0.00  0.00    -0.348 N 
ATOM     39  CAY 91K d   1     -80.449 -15.037   2.186  0.00  0.00     0.002 C 
ATOM     40  CAR 91K d   1     -81.152 -16.975   3.367  0.00  0.00    -0.002 C 
ATOM     41  CAT 91K d   1     -80.209 -16.265   1.299  0.00  0.00    -0.028 C 
ATOM     42  H4  91K d   1     -80.909 -14.222   1.609  0.00  0.00     0.065 H 
ATOM     43  H5  91K d   1     -79.506 -14.685   2.629  0.00  0.00     0.065 H 
ATOM     44  CAS 91K d   1     -81.071 -17.362   1.914  0.00  0.00    -0.045 C 
ATOM     45  H3  91K d   1     -80.519 -16.061   0.264  0.00  0.00     0.043 H 
ATOM     46  H6  91K d   1     -80.596 -18.347   1.796  0.00  0.00     0.036 H 
ATOM     47  H7  91K d   1     -82.071 -17.379   1.456  0.00  0.00     0.036 H 
ATOM     48  H8  91K d   1     -80.215 -17.195   3.899  0.00  0.00     0.064 H 
ATOM     49  H9  91K d   1     -81.989 -17.477   3.875  0.00  0.00     0.064 H 
ATOM     50  OAZ 91K d   1     -82.143 -13.466   3.538  0.00  0.00    -0.267 OA
BRANCH  41  51
ATOM     51  CAU 91K d   1     -78.736 -16.671   1.319  0.00  0.00     0.021 C 
ATOM     52  H1  91K d   1     -78.110 -15.786   1.134  0.00  0.00     0.049 H 
ATOM     53  H2  91K d   1     -78.487 -17.097   2.302  0.00  0.00     0.049 H 
BRANCH  51  54
ATOM     54  CAV 91K d   1     -78.476 -17.723   0.222  0.00  0.00     0.172 C 
ATOM     55  OAW 91K d   1     -79.283 -17.778  -0.740  0.00  0.00    -0.648 OA
ATOM     56  OAX 91K d   1     -77.468 -18.453   0.375  0.00  0.00    -0.648 OA
ENDBRANCH  51  54
ENDBRANCH  41  51
ENDBRANCH   1  37
TORSDOF 8
