REMARK  9 active torsions:
REMARK  status: ('A' for Active; 'I' for Inactive)
REMARK    1  A    between atoms: CAT_6  and  NAS_7 
REMARK       I    between atoms: NAS_7  and  CAR_8 
REMARK    2  A    between atoms: CAR_8  and  CAQ_10 
REMARK    3  A    between atoms: CAM_13  and  CAN_14 
REMARK    4  A    between atoms: CAN_14  and  CAO_15 
REMARK    5  A    between atoms: CAK_17  and  NAJ_18 
REMARK    6  A    between atoms: NAJ_18  and  CAI_19 
REMARK    7  A    between atoms: CAF_23  and  CAE_24 
REMARK       I    between atoms: CAE_24  and  NAD_26 
REMARK    8  A    between atoms: NAD_26  and  CAC_27 
REMARK    9  A    between atoms: CBD_33  and  CBE_34 
ROOT
ATOM      1  CAQ 8ZK d   1     -82.787 -14.861   5.075  0.00  0.00     0.034 A 
ATOM      2  CBA 8ZK d   1     -84.122 -14.846   4.658  0.00  0.00    -0.042 A 
ATOM      3  CAP 8ZK d   1     -82.487 -14.617   6.407  0.00  0.00    -0.061 A 
ATOM      4  CAM 8ZK d   1     -83.471 -14.312   7.326  0.00  0.00    -0.055 A 
ATOM      5  CAL 8ZK d   1     -84.793 -14.302   6.896  0.00  0.00    -0.051 A 
ATOM      6  CAK 8ZK d   1     -85.127 -14.582   5.585  0.00  0.00     0.035 A 
ATOM      7  H13 8ZK d   1     -84.372 -15.038   3.621  0.00  0.00     0.088 H 
ATOM      8  H14 8ZK d   1     -81.455 -14.667   6.734  0.00  0.00     0.085 H 
ATOM      9  H20 8ZK d   1     -85.579 -14.069   7.605  0.00  0.00     0.087 H 
ENDROOT
BRANCH   6  10
ATOM     10  NAJ 8ZK d   1     -86.385 -14.566   5.136  0.00  0.00    -0.335 N 
ATOM     11  H21 8ZK d   1     -86.566 -14.132   4.219  0.00  0.00     0.168 HD
BRANCH  10  12
ATOM     12  CAI 8ZK d   1     -87.430 -15.081   5.807  0.00  0.00     0.171 A 
ATOM     13  SBB 8ZK d   1     -87.370 -15.915   7.328  0.00  0.00    -0.045 SA
ATOM     14  CAF 8ZK d   1     -89.135 -16.165   7.261  0.00  0.00     0.094 A 
ATOM     15  CAG 8ZK d   1     -89.580 -15.600   6.094  0.00  0.00     0.027 A 
ATOM     16  NAH 8ZK d   1     -88.659 -15.019   5.282  0.00  0.00    -0.235 NA
ATOM     17  H22 8ZK d   1     -90.636 -15.616   5.827  0.00  0.00     0.117 H 
BRANCH  14  18
ATOM     18  CAE 8ZK d   1     -89.833 -16.808   8.304  0.00  0.00     0.264 C 
ATOM     19  OBC 8ZK d   1     -89.237 -16.991   9.373  0.00  0.00    -0.267 OA
ATOM     20  NAD 8ZK d   1     -91.134 -17.203   8.144  0.00  0.00    -0.320 N 
ATOM     21  H23 8ZK d   1     -91.600 -17.046   7.273  0.00  0.00     0.169 HD
BRANCH  20  22
ATOM     22  CAC 8ZK d   1     -91.813 -17.825   9.196  0.00  0.00     0.062 A 
ATOM     23  CAB 8ZK d   1     -92.258 -17.065  10.279  0.00  0.00     0.061 A 
ATOM     24 CL   8ZK d   1     -91.983 -15.334  10.334  0.00  0.00    -0.082 Cl
ATOM     25  CBH 8ZK d   1     -92.964 -17.695  11.312  0.00  0.00    -0.060 A 
ATOM     26  CBG 8ZK d   1     -93.206 -19.067  11.282  0.00  0.00    -0.081 A 
ATOM     27  H24 8ZK d   1     -93.327 -17.107  12.147  0.00  0.00     0.086 H 
ATOM     28  CBF 8ZK d   1     -92.783 -19.828  10.196  0.00  0.00    -0.075 A 
ATOM     29  H25 8ZK d   1     -93.725 -19.543  12.106  0.00  0.00     0.083 H 
ATOM     30  CBD 8ZK d   1     -92.089 -19.205   9.145  0.00  0.00    -0.034 A 
ATOM     31  H26 8ZK d   1     -92.987 -20.892  10.161  0.00  0.00     0.084 H 
BRANCH  30  32
ATOM     32  CBE 8ZK d   1     -91.654 -19.983   8.067  0.00  0.00    -0.049 C 
ATOM     33  H27 8ZK d   1     -91.133 -19.343   7.340  0.00  0.00     0.033 H 
ATOM     34  H28 8ZK d   1     -92.521 -20.457   7.583  0.00  0.00     0.033 H 
ATOM     35  H29 8ZK d   1     -90.966 -20.761   8.430  0.00  0.00     0.033 H 
ENDBRANCH  30  32
ENDBRANCH  20  22
ENDBRANCH  14  18
ENDBRANCH  10  12
ENDBRANCH   6  10
BRANCH   1  36
ATOM     36  CAR 8ZK d   1     -81.700 -15.240   4.282  0.00  0.00     0.252 C 
ATOM     37  NAS 8ZK d   1     -81.162 -14.527   3.313  0.00  0.00    -0.352 N 
ATOM     38  H12 8ZK d   1     -80.366 -14.974   2.905  0.00  0.00     0.163 HD
ATOM     39  OAZ 8ZK d   1     -81.179 -16.323   4.543  0.00  0.00    -0.268 OA
BRANCH  37  40
ATOM     40  CAT 8ZK d   1     -81.451 -13.263   2.709  0.00  0.00     0.015 C 
ATOM     41  CAU 8ZK d   1     -80.310 -13.169   1.721  0.00  0.00    -0.024 C 
ATOM     42  CAV 8ZK d   1     -78.996 -13.188   2.501  0.00  0.00     0.083 C 
ATOM     43  H1  8ZK d   1     -80.345 -14.024   1.030  0.00  0.00     0.038 H 
ATOM     44  H2  8ZK d   1     -80.389 -12.233   1.149  0.00  0.00     0.038 H 
ATOM     45  NAW 8ZK d   1     -78.892 -11.985   3.339  0.00  0.00    -0.075 N 
ATOM     46  H3  8ZK d   1     -78.153 -13.214   1.795  0.00  0.00     0.075 H 
ATOM     47  H4  8ZK d   1     -78.965 -14.082   3.141  0.00  0.00     0.075 H 
ATOM     48  CAX 8ZK d   1     -79.987 -12.033   4.323  0.00  0.00     0.083 C 
ATOM     49  H5  8ZK d   1     -78.979 -11.159   2.768  0.00  0.00     0.277 HD
ATOM     50  H6  8ZK d   1     -78.003 -11.973   3.814  0.00  0.00     0.277 HD
ATOM     51  CAY 8ZK d   1     -81.350 -12.112   3.669  0.00  0.00    -0.024 C 
ATOM     52  H7  8ZK d   1     -79.945 -11.125   4.942  0.00  0.00     0.075 H 
ATOM     53  H8  8ZK d   1     -79.850 -12.919   4.961  0.00  0.00     0.075 H 
ATOM     54  H9  8ZK d   1     -81.535 -11.176   3.121  0.00  0.00     0.038 H 
ATOM     55  H10 8ZK d   1     -82.112 -12.236   4.452  0.00  0.00     0.038 H 
ATOM     56  H11 8ZK d   1     -82.436 -13.262   2.220  0.00  0.00     0.072 H 
ENDBRANCH  37  40
ENDBRANCH   1  36
BRANCH   4  57
ATOM     57  CAN 8ZK d   1     -83.120 -14.045   8.654  0.00  0.00    -0.044 C 
ATOM     58  H15 8ZK d   1     -83.172 -12.957   8.808  0.00  0.00     0.039 H 
ATOM     59  H16 8ZK d   1     -82.087 -14.388   8.809  0.00  0.00     0.039 H 
BRANCH  57  60
ATOM     60  CAO 8ZK d   1     -84.001 -14.713   9.701  0.00  0.00    -0.073 C 
ATOM     61  H17 8ZK d   1     -83.645 -14.443  10.706  0.00  0.00     0.028 H 
ATOM     62  H18 8ZK d   1     -83.954 -15.805   9.577  0.00  0.00     0.028 H 
ATOM     63  H19 8ZK d   1     -85.040 -14.374   9.576  0.00  0.00     0.028 H 
ENDBRANCH  57  60
ENDBRANCH   4  57
TORSDOF 9
