REMARK  11 active torsions:
REMARK  status: ('A' for Active; 'I' for Inactive)
REMARK    1  A    between atoms: CAQ_13  and  CAA_1 
REMARK    2  A    between atoms: CAW_14  and  CAB_2 
REMARK    3  A    between atoms: CAX_15  and  CAC_3 
REMARK    4  A    between atoms: OAU_32  and  CAQ_13 
REMARK       I    between atoms: NAR_25  and  CAW_14 
REMARK    5  A    between atoms: CBC_20  and  CAX_15 
REMARK    6  A    between atoms: CAY_16  and  CBD_21 
REMARK       I    between atoms: NAT_27  and  CAY_16 
REMARK    7  A    between atoms: CAZ_17  and  CBG_24 
REMARK       I    between atoms: NAS_26  and  CAZ_17 
REMARK    8  A    between atoms: CBA_18  and  NAR_25 
REMARK    9  A    between atoms: CBB_19  and  NAS_26 
REMARK   10  A    between atoms: CBE_22  and  NAT_27 
REMARK   11  A    between atoms: CBF_23  and  OAU_32 
ROOT
ATOM      1  CAM 92E d   1      14.978   9.281   8.755  0.00  0.00    -0.031 A 
ATOM      2  CAN 92E d   1      13.339  10.753   9.724  0.00  0.00    -0.042 A 
ATOM      3  CAO 92E d   1      13.890  10.902   7.381  0.00  0.00    -0.042 A 
ATOM      4  CBA 92E d   1      14.265   9.711   9.872  0.00  0.00     0.037 A 
ATOM      5  CBB 92E d   1      14.799   9.847   7.500  0.00  0.00     0.038 A 
ATOM      6  CBD 92E d   1      13.151  11.367   8.482  0.00  0.00     0.036 A 
ATOM      7  H15 92E d   1      15.697   8.478   8.870  0.00  0.00     0.090 H 
ATOM      8  H16 92E d   1      12.764  11.086  10.580  0.00  0.00     0.088 H 
ATOM      9  H17 92E d   1      13.752  11.373   6.415  0.00  0.00     0.088 H 
ENDROOT
BRANCH   6  10
ATOM     10  CAY 92E d   1      12.225  12.414   8.299  0.00  0.00     0.256 C 
ATOM     11  NAT 92E d   1      11.331  12.610   9.294  0.00  0.00    -0.320 N 
ATOM     12  H23 92E d   1      11.408  12.077  10.136  0.00  0.00     0.169 HD
ATOM     13  OAF 92E d   1      12.226  13.068   7.259  0.00  0.00    -0.267 OA
BRANCH  11  14
ATOM     14  CBE 92E d   1      10.333  13.517   9.168  0.00  0.00     0.069 A 
ATOM     15  CAP 92E d   1       9.002  13.097   9.233  0.00  0.00    -0.041 A 
ATOM     16  CBC 92E d   1       7.948  14.001   9.110  0.00  0.00     0.012 A 
ATOM     17  H18 92E d   1       8.784  12.046   9.382  0.00  0.00     0.088 H 
ATOM     18  CAK 92E d   1       8.225  15.352   8.922  0.00  0.00    -0.067 A 
ATOM     19  CAL 92E d   1       9.549  15.788   8.855  0.00  0.00    -0.048 A 
ATOM     20  H13 92E d   1       7.413  16.064   8.828  0.00  0.00     0.085 H 
ATOM     21  CBF 92E d   1      10.602  14.884   8.983  0.00  0.00     0.095 A 
ATOM     22  H14 92E d   1       9.761  16.840   8.702  0.00  0.00     0.087 H 
BRANCH  16  23
ATOM     23  CAX 92E d   1       6.624  13.563   9.158  0.00  0.00     0.155 C 
ATOM     24  OAE 92E d   1       5.677  14.336   9.029  0.00  0.00    -0.293 OA
BRANCH  23  25
ATOM     25  CAC 92E d   1       6.408  12.050   9.314  0.00  0.00    -0.017 C 
ATOM     26  H7  92E d   1       5.330  11.834   9.339  0.00  0.00     0.038 H 
ATOM     27  H8  92E d   1       6.872  11.708  10.251  0.00  0.00     0.038 H 
ATOM     28  H9  92E d   1       6.868  11.524   8.464  0.00  0.00     0.038 H 
ENDBRANCH  23  25
ENDBRANCH  16  23
BRANCH  21  29
ATOM     29  OAU 92E d   1      11.909  15.272   8.927  0.00  0.00    -0.349 OA
BRANCH  29  30
ATOM     30  CAQ 92E d   1      12.092  16.686   8.799  0.00  0.00     0.023 C 
ATOM     31  H19 92E d   1      11.631  17.038   7.864  0.00  0.00     0.074 H 
ATOM     32  H20 92E d   1      11.628  17.201   9.653  0.00  0.00     0.074 H 
BRANCH  30  33
ATOM     33  CAA 92E d   1      13.595  16.972   8.776  0.00  0.00    -0.056 C 
ATOM     34  H1  92E d   1      13.761  18.055   8.678  0.00  0.00     0.030 H 
ATOM     35  H2  92E d   1      14.054  16.452   7.922  0.00  0.00     0.030 H 
ATOM     36  H3  92E d   1      14.051  16.614   9.711  0.00  0.00     0.030 H 
ENDBRANCH  30  33
ENDBRANCH  29  30
ENDBRANCH  21  29
ENDBRANCH  11  14
ENDBRANCH   6  10
BRANCH   4  37
ATOM     37  NAR 92E d   1      14.525   9.052  11.026  0.00  0.00    -0.327 N 
ATOM     38  CAW 92E d   1      14.281   9.557  12.263  0.00  0.00     0.218 C 
ATOM     39  OAD 92E d   1      13.799  10.660  12.527  0.00  0.00    -0.274 OA
ATOM     40  H21 92E d   1      14.921   8.136  10.964  0.00  0.00     0.169 HD
BRANCH  38  41
ATOM     41  CAB 92E d   1      14.670   8.608  13.405  0.00  0.00    -0.003 C 
ATOM     42  H4  92E d   1      14.444   9.084  14.370  0.00  0.00     0.040 H 
ATOM     43  H5  92E d   1      15.746   8.387  13.348  0.00  0.00     0.040 H 
ATOM     44  H6  92E d   1      14.099   7.672  13.315  0.00  0.00     0.040 H 
ENDBRANCH  38  41
ENDBRANCH   4  37
BRANCH   5  45
ATOM     45  NAS 92E d   1      15.566   9.371   6.489  0.00  0.00    -0.321 N 
ATOM     46  CAZ 92E d   1      15.194   9.416   5.183  0.00  0.00     0.279 C 
ATOM     47  OAG 92E d   1      14.119   9.844   4.764  0.00  0.00    -0.265 OA
ATOM     48  H22 92E d   1      16.451   8.966   6.716  0.00  0.00     0.169 HD
BRANCH  46  49
ATOM     49  CBG 92E d   1      16.099   8.947   4.303  0.00  0.00     0.142 A 
ATOM     50  CAJ 92E d   1      17.253   8.353   4.593  0.00  0.00    -0.043 A 
ATOM     51  CAH 92E d   1      17.869   8.040   3.445  0.00  0.00    -0.059 A 
ATOM     52  H12 92E d   1      17.633   8.155   5.594  0.00  0.00     0.088 H 
ATOM     53  CAI 92E d   1      17.112   8.437   2.416  0.00  0.00     0.020 A 
ATOM     54  H10 92E d   1      18.834   7.541   3.363  0.00  0.00     0.086 H 
ATOM     55  OAV 92E d   1      15.955   9.029   2.953  0.00  0.00    -0.317 OA
ATOM     56  H11 92E d   1      17.348   8.323   1.359  0.00  0.00     0.123 H 
ENDBRANCH  46  49
ENDBRANCH   5  45
TORSDOF 11
