REMARK  8 active torsions:
REMARK  status: ('A' for Active; 'I' for Inactive)
REMARK    1  A    between atoms: CAF_6  and  OAA_1 
REMARK    2  A    between atoms: CAG_7  and  OAB_2 
REMARK    3  A    between atoms: CAJ_10  and  OAC_3 
REMARK    4  A    between atoms: CAK_11  and  OAD_4 
REMARK    5  A    between atoms: CAL_12  and  OAE_5 
REMARK    6  A    between atoms: CAH_8  and  CAF_6 
REMARK    7  A    between atoms: CAM_13  and  CAG_7 
REMARK    8  A    between atoms: NAN_14  and  CAH_8 
ROOT
ATOM      1  CAI MIG d   1     -13.685 -32.696  94.551  0.00  0.00     0.110 C 
ATOM      2  CAJ MIG d   1     -12.496 -31.818  94.875  0.00  0.00     0.086 C 
ATOM      3  CAK MIG d   1     -12.401 -31.660  96.387  0.00  0.00     0.088 C 
ATOM      4  CAL MIG d   1     -13.704 -31.115  96.955  0.00  0.00     0.092 C 
ATOM      5  CAM MIG d   1     -14.916 -31.956  96.526  0.00  0.00     0.151 C 
ATOM      6  NAN MIG d   1     -14.914 -32.051  95.054  0.00  0.00    -0.058 N 
ATOM      7  H12 MIG d   1     -13.560 -33.677  95.033  0.00  0.00     0.080 H 
ATOM      8  H13 MIG d   1     -13.758 -32.829  93.462  0.00  0.00     0.080 H 
ATOM      9  H14 MIG d   1     -12.646 -30.824  94.428  0.00  0.00     0.089 H 
ATOM     10  H15 MIG d   1     -12.205 -32.646  96.833  0.00  0.00     0.091 H 
ATOM     11  H16 MIG d   1     -13.847 -30.097  96.563  0.00  0.00     0.090 H 
ATOM     12  H17 MIG d   1     -14.816 -32.966  96.951  0.00  0.00     0.092 H 
ATOM     13  H18 MIG d   1     -14.915 -31.103  94.711  0.00  0.00     0.280 HD
ENDROOT
BRANCH   6  14
ATOM     14  CAH MIG d   1     -16.105 -32.715  94.466  0.00  0.00     0.103 C 
ATOM     15  H10 MIG d   1     -16.997 -32.136  94.748  0.00  0.00     0.079 H 
ATOM     16  H11 MIG d   1     -15.997 -32.711  93.371  0.00  0.00     0.079 H 
BRANCH  14  17
ATOM     17  CAF MIG d   1     -16.307 -34.164  94.924  0.00  0.00     0.039 C 
ATOM     18  H6  MIG d   1     -15.357 -34.715  94.857  0.00  0.00     0.076 H 
ATOM     19  H7  MIG d   1     -16.669 -34.182  95.963  0.00  0.00     0.076 H 
BRANCH  17  20
ATOM     20  OAA MIG d   1     -17.277 -34.758  94.060  0.00  0.00    -0.399 OA
ATOM     21  H1  MIG d   1     -16.959 -34.734  93.165  0.00  0.00     0.209 HD
ENDBRANCH  17  20
ENDBRANCH  14  17
ENDBRANCH   6  14
BRANCH   5  22
ATOM     22  CAG MIG d   1     -16.227 -31.352  97.026  0.00  0.00     0.046 C 
ATOM     23  H8  MIG d   1     -17.038 -32.079  96.874  0.00  0.00     0.077 H 
ATOM     24  H9  MIG d   1     -16.132 -31.128  98.099  0.00  0.00     0.077 H 
BRANCH  22  25
ATOM     25  OAB MIG d   1     -16.544 -30.144  96.322  0.00  0.00    -0.399 OA
ATOM     26  H2  MIG d   1     -16.631 -30.333  95.395  0.00  0.00     0.209 HD
ENDBRANCH  22  25
ENDBRANCH   5  22
BRANCH   2  27
ATOM     27  OAC MIG d   1     -11.319 -32.398  94.306  0.00  0.00    -0.391 OA
ATOM     28  H3  MIG d   1     -11.186 -33.265  94.671  0.00  0.00     0.210 HD
ENDBRANCH   2  27
BRANCH   4  29
ATOM     29  OAE MIG d   1     -13.613 -31.037  98.370  0.00  0.00    -0.391 OA
ATOM     30  H5  MIG d   1     -12.898 -30.459  98.609  0.00  0.00     0.210 HD
ENDBRANCH   4  29
BRANCH   3  31
ATOM     31  OAD MIG d   1     -11.333 -30.780  96.723  0.00  0.00    -0.390 OA
ATOM     32  H4  MIG d   1     -10.516 -31.136  96.395  0.00  0.00     0.210 HD
ENDBRANCH   3  31
TORSDOF 8
