REMARK  14 active torsions:
REMARK  status: ('A' for Active; 'I' for Inactive)
REMARK    1  A    between atoms: CAA_1  and  CBA_2 
REMARK    2  A    between atoms: CBC_6  and  CBB_7 
REMARK    3  A    between atoms: CAZ_12  and  CAP_13 
REMARK    4  A    between atoms: CAP_13  and  NAT_14 
REMARK       I    between atoms: NAT_14  and  C_15 
REMARK    5  A    between atoms: C_15  and  CA_17 
REMARK    6  A    between atoms: CG_19  and  OD1_20 
REMARK       I    between atoms: N_22  and  CAY_23 
REMARK    7  A    between atoms: CAY_23  and  CBF_25 
REMARK    8  A    between atoms: CBF_25  and  CBH_26 
REMARK    9  A    between atoms: CBF_25  and  NAU_30 
REMARK   10  A    between atoms: CBH_26  and  CAC_27 
REMARK   11  A    between atoms: CBH_26  and  CAD_28 
REMARK   12  A    between atoms: CBH_26  and  CAB_29 
REMARK       I    between atoms: NAU_30  and  CAW_31 
REMARK   13  A    between atoms: CAW_31  and  CAO_33 
REMARK   14  A    between atoms: CAO_33  and  OAH_34 
ROOT
ATOM      1  CA  9BT d   1      12.829  54.321  89.575  0.00  0.00     0.094 C 
ATOM      2  CB  9BT d   1      14.162  54.748  88.915  0.00  0.00    -0.012 C 
ATOM      3  CG  9BT d   1      14.997  55.377  90.015  0.00  0.00     0.053 C 
ATOM      4  CD2 9BT d   1      14.578  54.599  91.271  0.00  0.00     0.022 C 
ATOM      5  N   9BT d   1      13.143  54.208  91.043  0.00  0.00    -0.334 N 
ATOM      6  CAY 9BT d   1      12.179  53.841  91.918  0.00  0.00     0.244 C 
ATOM      7  OAG 9BT d   1      11.027  53.601  91.568  0.00  0.00    -0.271 OA
ATOM      8  H12 9BT d   1      12.053  55.086  89.422  0.00  0.00     0.088 H 
ATOM      9  H13 9BT d   1      13.974  55.478  88.114  0.00  0.00     0.040 H 
ATOM     10  H14 9BT d   1      14.679  53.871  88.498  0.00  0.00     0.040 H 
ATOM     11  H15 9BT d   1      16.073  55.255  89.820  0.00  0.00     0.085 H 
ATOM     12  H17 9BT d   1      14.666  55.235  92.164  0.00  0.00     0.068 H 
ATOM     13  H18 9BT d   1      15.205  53.704  91.395  0.00  0.00     0.068 H 
ENDROOT
BRANCH   1  14
ATOM     14  C   9BT d   1      12.408  53.113  88.972  0.00  0.00     0.241 C 
ATOM     15  NAT 9BT d   1      11.594  53.242  87.913  0.00  0.00    -0.355 N 
ATOM     16  H11 9BT d   1      11.295  54.162  87.658  0.00  0.00     0.162 HD
ATOM     17  O   9BT d   1      12.836  52.024  89.340  0.00  0.00    -0.271 OA
BRANCH  15  18
ATOM     18  CAP 9BT d   1      11.112  52.100  87.099  0.00  0.00     0.019 C 
ATOM     19  H9  9BT d   1      11.133  51.185  87.709  0.00  0.00     0.071 H 
ATOM     20  H10 9BT d   1      10.081  52.298  86.771  0.00  0.00     0.071 H 
BRANCH  18  21
ATOM     21  CAZ 9BT d   1      11.930  51.924  85.973  0.00  0.00    -0.040 A 
ATOM     22  CAK 9BT d   1      11.866  50.702  85.305  0.00  0.00    -0.074 A 
ATOM     23  CAM 9BT d   1      12.636  50.440  84.171  0.00  0.00    -0.071 A 
ATOM     24  H6  9BT d   1      11.199  49.933  85.677  0.00  0.00     0.084 H 
ATOM     25  CBB 9BT d   1      13.514  51.404  83.651  0.00  0.00    -0.017 A 
ATOM     26  H5  9BT d   1      12.555  49.475  83.683  0.00  0.00     0.084 H 
ATOM     27  CAL 9BT d   1      13.585  52.623  84.318  0.00  0.00    -0.071 A 
ATOM     28  CAJ 9BT d   1      12.808  52.888  85.463  0.00  0.00    -0.074 A 
ATOM     29  H7  9BT d   1      14.256  53.389  83.947  0.00  0.00     0.084 H 
ATOM     30  H8  9BT d   1      12.891  53.850  85.955  0.00  0.00     0.084 H 
BRANCH  25  31
ATOM     31  CBC 9BT d   1      14.258  51.181  82.546  0.00  0.00     0.040 A 
ATOM     32  CBA 9BT d   1      13.871  50.593  81.401  0.00  0.00     0.049 A 
ATOM     33  NAS 9BT d   1      14.816  50.515  80.441  0.00  0.00    -0.258 NA
ATOM     34  CAN 9BT d   1      15.998  51.042  80.760  0.00  0.00     0.041 A 
ATOM     35  SAV 9BT d   1      15.891  51.646  82.289  0.00  0.00    -0.080 SA
ATOM     36  H4  9BT d   1      16.880  51.069  80.122  0.00  0.00     0.126 H 
BRANCH  32  37
ATOM     37  CAA 9BT d   1      12.480  50.004  81.118  0.00  0.00    -0.034 C 
ATOM     38  H1  9BT d   1      11.834  50.150  81.997  0.00  0.00     0.035 H 
ATOM     39  H2  9BT d   1      12.573  48.929  80.906  0.00  0.00     0.035 H 
ATOM     40  H3  9BT d   1      12.037  50.512  80.249  0.00  0.00     0.035 H 
ENDBRANCH  32  37
ENDBRANCH  25  31
ENDBRANCH  18  21
ENDBRANCH  15  18
ENDBRANCH   1  14
BRANCH   3  41
ATOM     41  OD1 9BT d   1      14.682  56.769  90.119  0.00  0.00    -0.394 OA
ATOM     42  H16 9BT d   1      15.206  57.160  90.808  0.00  0.00     0.210 HD
ENDBRANCH   3  41
BRANCH   6  43
ATOM     43  CBF 9BT d   1      12.545  53.769  93.423  0.00  0.00     0.096 C 
ATOM     44  H19 9BT d   1      13.476  54.323  93.612  0.00  0.00     0.088 H 
BRANCH  43  45
ATOM     45  CBH 9BT d   1      12.709  52.317  93.940  0.00  0.00    -0.022 C 
BRANCH  45  46
ATOM     46  CAC 9BT d   1      11.385  51.492  93.896  0.00  0.00    -0.067 C 
ATOM     47  H20 9BT d   1      11.573  50.477  94.275  0.00  0.00     0.028 H 
ATOM     48  H21 9BT d   1      11.023  51.435  92.859  0.00  0.00     0.028 H 
ATOM     49  H22 9BT d   1      10.626  51.983  94.523  0.00  0.00     0.028 H 
ENDBRANCH  45  46
BRANCH  45  50
ATOM     50  CAD 9BT d   1      13.196  52.388  95.410  0.00  0.00    -0.067 C 
ATOM     51  H23 9BT d   1      14.130  52.967  95.459  0.00  0.00     0.028 H 
ATOM     52  H24 9BT d   1      13.375  51.370  95.786  0.00  0.00     0.028 H 
ATOM     53  H25 9BT d   1      12.428  52.877  96.027  0.00  0.00     0.028 H 
ENDBRANCH  45  50
BRANCH  45  54
ATOM     54  CAB 9BT d   1      13.770  51.552  93.111  0.00  0.00    -0.067 C 
ATOM     55  H26 9BT d   1      13.442  51.491  92.063  0.00  0.00     0.028 H 
ATOM     56  H27 9BT d   1      13.891  50.537  93.517  0.00  0.00     0.028 H 
ATOM     57  H28 9BT d   1      14.731  52.085  93.164  0.00  0.00     0.028 H 
ENDBRANCH  45  54
ENDBRANCH  43  45
BRANCH  43  58
ATOM     58  NAU 9BT d   1      11.416  54.408  94.095  0.00  0.00    -0.345 N 
ATOM     59  CAW 9BT d   1      11.422  55.597  94.692  0.00  0.00     0.241 C 
ATOM     60  OAE 9BT d   1      12.414  56.306  94.869  0.00  0.00    -0.271 OA
ATOM     61  H29 9BT d   1      10.554  53.902  94.108  0.00  0.00     0.163 HD
BRANCH  59  62
ATOM     62  CAO 9BT d   1      10.050  55.947  95.265  0.00  0.00     0.090 C 
ATOM     63  H30 9BT d   1       9.713  55.170  95.967  0.00  0.00     0.088 H 
ATOM     64  H31 9BT d   1       9.310  56.059  94.459  0.00  0.00     0.088 H 
BRANCH  62  65
ATOM     65  OAH 9BT d   1      10.246  57.185  95.942  0.00  0.00    -0.392 OA
ATOM     66  H32 9BT d   1      10.896  57.071  96.626  0.00  0.00     0.210 HD
ENDBRANCH  62  65
ENDBRANCH  59  62
ENDBRANCH  43  58
ENDBRANCH   6  43
TORSDOF 14
