REMARK  13 active torsions:
REMARK  status: ('A' for Active; 'I' for Inactive)
REMARK    1  A    between atoms: CBE_3  and  CAX_4 
REMARK       I    between atoms: CAX_4  and  NAU_6 
REMARK    2  A    between atoms: NAU_6  and  CBG_7 
REMARK    3  A    between atoms: CBG_7  and  CBI_8 
REMARK    4  A    between atoms: CBG_7  and  CAY_12 
REMARK    5  A    between atoms: CBI_8  and  CAD_9 
REMARK    6  A    between atoms: CBI_8  and  CAB_10 
REMARK    7  A    between atoms: CBI_8  and  CAC_11 
REMARK       I    between atoms: CAY_12  and  N_14 
REMARK    8  A    between atoms: CG_16  and  OD1_17 
REMARK    9  A    between atoms: CA_19  and  C_20 
REMARK       I    between atoms: C_20  and  NAT_22 
REMARK   10  A    between atoms: NAT_22  and  CAP_23 
REMARK   11  A    between atoms: CAP_23  and  CAZ_24 
REMARK   12  A    between atoms: CBB_29  and  CBC_30 
REMARK   13  A    between atoms: CBA_34  and  CAA_35 
ROOT
ATOM      1  CAY 9BW d   1      11.938  53.838  91.945  0.00  0.00     0.244 C 
ATOM      2  OAG 9BW d   1      10.784  53.651  91.603  0.00  0.00    -0.271 OA
ATOM      3  N   9BW d   1      12.906  54.149  91.050  0.00  0.00    -0.334 N 
ATOM      4  CD2 9BW d   1      14.363  54.463  91.239  0.00  0.00     0.022 C 
ATOM      5  CG  9BW d   1      14.735  55.295  90.007  0.00  0.00     0.053 C 
ATOM      6  CB  9BW d   1      13.887  54.706  88.917  0.00  0.00    -0.012 C 
ATOM      7  CA  9BW d   1      12.576  54.266  89.588  0.00  0.00     0.094 C 
ATOM      8  H17 9BW d   1      14.959  53.539  91.279  0.00  0.00     0.068 H 
ATOM      9  H18 9BW d   1      14.520  55.041  92.161  0.00  0.00     0.068 H 
ATOM     10  H19 9BW d   1      15.807  55.203  89.777  0.00  0.00     0.085 H 
ATOM     11  H21 9BW d   1      14.393  53.841  88.465  0.00  0.00     0.040 H 
ATOM     12  H22 9BW d   1      13.685  55.459  88.141  0.00  0.00     0.040 H 
ATOM     13  H23 9BW d   1      11.796  55.030  89.454  0.00  0.00     0.088 H 
ENDROOT
BRANCH   1  14
ATOM     14  CBG 9BW d   1      12.287  53.762  93.457  0.00  0.00     0.096 C 
ATOM     15  H7  9BW d   1      13.191  54.357  93.655  0.00  0.00     0.088 H 
BRANCH  14  16
ATOM     16  NAU 9BW d   1      11.132  54.350  94.145  0.00  0.00    -0.347 N 
ATOM     17  CAX 9BW d   1      11.133  55.519  94.783  0.00  0.00     0.222 C 
ATOM     18  OAF 9BW d   1      12.108  56.253  94.932  0.00  0.00    -0.273 OA
ATOM     19  H6  9BW d   1      10.277  53.832  94.134  0.00  0.00     0.163 HD
BRANCH  17  20
ATOM     20  CBE 9BW d   1       9.795  55.860  95.454  0.00  0.00     0.024 A 
ATOM     21  CAN 9BW d   1       9.912  56.505  96.824  0.00  0.00    -0.053 A 
ATOM     22  CAO 9BW d   1       9.445  57.318  95.631  0.00  0.00    -0.053 A 
ATOM     23  H1  9BW d   1       9.202  56.238  97.621  0.00  0.00     0.034 H 
ATOM     24  H2  9BW d   1      10.903  56.690  97.263  0.00  0.00     0.034 H 
ATOM     25  H3  9BW d   1      10.098  58.095  95.206  0.00  0.00     0.034 H 
ATOM     26  H4  9BW d   1       8.396  57.643  95.564  0.00  0.00     0.034 H 
ATOM     27  H5  9BW d   1       9.023  55.112  95.222  0.00  0.00     0.054 H 
ENDBRANCH  17  20
ENDBRANCH  14  16
BRANCH  14  28
ATOM     28  CBI 9BW d   1      12.529  52.307  93.968  0.00  0.00    -0.022 C 
BRANCH  28  29
ATOM     29  CAD 9BW d   1      12.957  52.341  95.442  0.00  0.00    -0.067 C 
ATOM     30  H8  9BW d   1      13.127  51.314  95.798  0.00  0.00     0.028 H 
ATOM     31  H9  9BW d   1      12.165  52.812  96.043  0.00  0.00     0.028 H 
ATOM     32  H10 9BW d   1      13.886  52.921  95.541  0.00  0.00     0.028 H 
ENDBRANCH  28  29
BRANCH  28  33
ATOM     33  CAB 9BW d   1      13.641  51.621  93.159  0.00  0.00    -0.067 C 
ATOM     34  H11 9BW d   1      13.354  51.586  92.098  0.00  0.00     0.028 H 
ATOM     35  H12 9BW d   1      13.788  50.597  93.533  0.00  0.00     0.028 H 
ATOM     36  H13 9BW d   1      14.577  52.189  93.267  0.00  0.00     0.028 H 
ENDBRANCH  28  33
BRANCH  28  37
ATOM     37  CAC 9BW d   1      11.260  51.410  93.901  0.00  0.00    -0.067 C 
ATOM     38  H14 9BW d   1      10.448  51.881  94.474  0.00  0.00     0.028 H 
ATOM     39  H15 9BW d   1      11.486  50.422  94.329  0.00  0.00     0.028 H 
ATOM     40  H16 9BW d   1      10.949  51.293  92.853  0.00  0.00     0.028 H 
ENDBRANCH  28  37
ENDBRANCH  14  28
ENDBRANCH   1  14
BRANCH   7  41
ATOM     41  C   9BW d   1      12.146  53.072  88.970  0.00  0.00     0.241 C 
ATOM     42  O   9BW d   1      12.585  51.986  89.321  0.00  0.00    -0.271 OA
ATOM     43  NAT 9BW d   1      11.303  53.222  87.929  0.00  0.00    -0.355 N 
ATOM     44  H24 9BW d   1      10.994  54.145  87.700  0.00  0.00     0.162 HD
BRANCH  43  45
ATOM     45  CAP 9BW d   1      10.811  52.099  87.109  0.00  0.00     0.019 C 
ATOM     46  H25 9BW d   1       9.788  52.325  86.775  0.00  0.00     0.071 H 
ATOM     47  H26 9BW d   1      10.803  51.187  87.724  0.00  0.00     0.071 H 
BRANCH  45  48
ATOM     48  CAZ 9BW d   1      11.629  51.873  85.964  0.00  0.00    -0.040 A 
ATOM     49  CAI 9BW d   1      12.470  52.854  85.432  0.00  0.00    -0.074 A 
ATOM     50  CAK 9BW d   1      13.262  52.602  84.306  0.00  0.00    -0.071 A 
ATOM     51  H27 9BW d   1      12.510  53.830  85.901  0.00  0.00     0.084 H 
ATOM     52  CBB 9BW d   1      13.239  51.378  83.661  0.00  0.00    -0.017 A 
ATOM     53  H28 9BW d   1      13.910  53.385  83.930  0.00  0.00     0.084 H 
ATOM     54  CAL 9BW d   1      12.400  50.393  84.195  0.00  0.00    -0.071 A 
ATOM     55  CAJ 9BW d   1      11.609  50.636  85.326  0.00  0.00    -0.074 A 
ATOM     56  H30 9BW d   1      12.361  49.418  83.722  0.00  0.00     0.084 H 
ATOM     57  H29 9BW d   1      10.971  49.848  85.710  0.00  0.00     0.084 H 
BRANCH  52  58
ATOM     58  CBC 9BW d   1      14.002  51.165  82.562  0.00  0.00     0.040 A 
ATOM     59  SAV 9BW d   1      15.638  51.578  82.355  0.00  0.00    -0.080 SA
ATOM     60  CAM 9BW d   1      15.776  50.979  80.810  0.00  0.00     0.041 A 
ATOM     61  NAS 9BW d   1      14.585  50.476  80.459  0.00  0.00    -0.258 NA
ATOM     62  H31 9BW d   1      16.674  50.993  80.194  0.00  0.00     0.126 H 
ATOM     63  CBA 9BW d   1      13.620  50.584  81.404  0.00  0.00     0.049 A 
BRANCH  63  64
ATOM     64  CAA 9BW d   1      12.208  50.031  81.118  0.00  0.00    -0.034 C 
ATOM     65  H32 9BW d   1      12.176  49.615  80.100  0.00  0.00     0.035 H 
ATOM     66  H33 9BW d   1      11.472  50.843  81.205  0.00  0.00     0.035 H 
ATOM     67  H34 9BW d   1      11.970  49.240  81.845  0.00  0.00     0.035 H 
ENDBRANCH  63  64
ENDBRANCH  52  58
ENDBRANCH  45  48
ENDBRANCH  43  45
ENDBRANCH   7  41
BRANCH   5  68
ATOM     68  OD1 9BW d   1      14.390  56.680  90.187  0.00  0.00    -0.394 OA
ATOM     69  H20 9BW d   1      14.632  57.169  89.409  0.00  0.00     0.210 HD
ENDBRANCH   5  68
TORSDOF 13
