REMARK  13 active torsions:
REMARK  status: ('A' for Active; 'I' for Inactive)
REMARK    1  A    between atoms: CBJ_3  and  CAY_5 
REMARK       I    between atoms: CAY_5  and  NAV_7 
REMARK    2  A    between atoms: NAV_7  and  CBG_8 
REMARK    3  A    between atoms: CBG_8  and  CBI_9 
REMARK    4  A    between atoms: CBG_8  and  CAZ_13 
REMARK    5  A    between atoms: CBI_9  and  CAD_10 
REMARK    6  A    between atoms: CBI_9  and  CAB_11 
REMARK    7  A    between atoms: CBI_9  and  CAC_12 
REMARK       I    between atoms: CAZ_13  and  N_15 
REMARK    8  A    between atoms: CG_17  and  OD1_18 
REMARK    9  A    between atoms: CA_20  and  C_21 
REMARK       I    between atoms: C_21  and  NAU_23 
REMARK   10  A    between atoms: NAU_23  and  CAQ_24 
REMARK   11  A    between atoms: CAQ_24  and  CBB_25 
REMARK   12  A    between atoms: CBC_30  and  CBD_31 
REMARK   13  A    between atoms: CBA_35  and  CAA_36 
ROOT
ATOM      1  CAZ 4YY d   1      12.146  53.927  92.004  0.00  0.00     0.244 C 
ATOM      2  OAG 4YY d   1      10.993  53.736  91.645  0.00  0.00    -0.271 OA
ATOM      3  N   4YY d   1      13.120  54.278  91.127  0.00  0.00    -0.334 N 
ATOM      4  CD2 4YY d   1      14.563  54.605  91.347  0.00  0.00     0.022 C 
ATOM      5  CG  4YY d   1      14.956  55.438  90.123  0.00  0.00     0.053 C 
ATOM      6  CB  4YY d   1      14.158  54.812  89.004  0.00  0.00    -0.012 C 
ATOM      7  CA  4YY d   1      12.815  54.420  89.640  0.00  0.00     0.094 C 
ATOM      8  H16 4YY d   1      15.166  53.687  91.403  0.00  0.00     0.068 H 
ATOM      9  H17 4YY d   1      14.694  55.186  92.272  0.00  0.00     0.068 H 
ATOM     10  H18 4YY d   1      16.038  55.382  89.932  0.00  0.00     0.085 H 
ATOM     11  H20 4YY d   1      14.674  53.923  88.612  0.00  0.00     0.040 H 
ATOM     12  H21 4YY d   1      14.003  55.535  88.189  0.00  0.00     0.040 H 
ATOM     13  H22 4YY d   1      12.055  55.200  89.483  0.00  0.00     0.088 H 
ENDROOT
BRANCH   1  14
ATOM     14  CBG 4YY d   1      12.496  53.846  93.514  0.00  0.00     0.096 C 
ATOM     15  H6  4YY d   1      13.418  54.417  93.696  0.00  0.00     0.088 H 
BRANCH  14  16
ATOM     16  NAV 4YY d   1      11.378  54.473  94.246  0.00  0.00    -0.344 N 
ATOM     17  CAY 4YY d   1      11.429  55.650  94.877  0.00  0.00     0.258 C 
ATOM     18  OAF 4YY d   1      12.426  56.350  95.005  0.00  0.00    -0.270 OA
ATOM     19  H5  4YY d   1      10.511  53.976  94.272  0.00  0.00     0.163 HD
BRANCH  17  20
ATOM     20  CBJ 4YY d   1      10.112  56.043  95.563  0.00  0.00     0.183 A 
ATOM     21  CAO 4YY d   1      10.201  56.780  96.896  0.00  0.00    -0.019 A 
ATOM     22  CAP 4YY d   1       9.720  57.501  95.646  0.00  0.00    -0.019 A 
ATOM     23  H1  4YY d   1       9.493  56.545  97.704  0.00  0.00     0.038 H 
ATOM     24  H2  4YY d   1      11.183  57.021  97.328  0.00  0.00     0.038 H 
ATOM     25  H3  4YY d   1      10.354  58.267  95.176  0.00  0.00     0.038 H 
ATOM     26  H4  4YY d   1       8.663  57.791  95.552  0.00  0.00     0.038 H 
ATOM     27  FAI 4YY d   1       9.157  55.198  95.446  0.00  0.00    -0.233 F 
ENDBRANCH  17  20
ENDBRANCH  14  16
BRANCH  14  28
ATOM     28  CBI 4YY d   1      12.720  52.393  94.012  0.00  0.00    -0.022 C 
BRANCH  28  29
ATOM     29  CAD 4YY d   1      13.175  52.479  95.471  0.00  0.00    -0.067 C 
ATOM     30  H7  4YY d   1      13.345  51.465  95.862  0.00  0.00     0.028 H 
ATOM     31  H8  4YY d   1      12.398  52.977  96.069  0.00  0.00     0.028 H 
ATOM     32  H9  4YY d   1      14.109  53.056  95.530  0.00  0.00     0.028 H 
ENDBRANCH  28  29
BRANCH  28  33
ATOM     33  CAB 4YY d   1      13.807  51.717  93.178  0.00  0.00    -0.067 C 
ATOM     34  H10 4YY d   1      13.480  51.655  92.130  0.00  0.00     0.028 H 
ATOM     35  H11 4YY d   1      13.989  50.704  93.565  0.00  0.00     0.028 H 
ATOM     36  H12 4YY d   1      14.735  52.305  93.239  0.00  0.00     0.028 H 
ENDBRANCH  28  33
BRANCH  28  37
ATOM     37  CAC 4YY d   1      11.428  51.525  93.944  0.00  0.00    -0.067 C 
ATOM     38  H13 4YY d   1      10.635  52.000  94.541  0.00  0.00     0.028 H 
ATOM     39  H14 4YY d   1      11.638  50.523  94.345  0.00  0.00     0.028 H 
ATOM     40  H15 4YY d   1      11.098  51.440  92.898  0.00  0.00     0.028 H 
ENDBRANCH  28  37
ENDBRANCH  14  28
ENDBRANCH   1  14
BRANCH   7  41
ATOM     41  C   4YY d   1      12.391  53.221  89.035  0.00  0.00     0.241 C 
ATOM     42  O   4YY d   1      12.846  52.149  89.413  0.00  0.00    -0.271 OA
ATOM     43  NAU 4YY d   1      11.540  53.343  87.988  0.00  0.00    -0.355 N 
ATOM     44  H23 4YY d   1      11.213  54.257  87.748  0.00  0.00     0.162 HD
BRANCH  43  45
ATOM     45  CAQ 4YY d   1      11.068  52.197  87.181  0.00  0.00     0.019 C 
ATOM     46  H24 4YY d   1      10.037  52.396  86.854  0.00  0.00     0.071 H 
ATOM     47  H25 4YY d   1      11.087  51.292  87.806  0.00  0.00     0.071 H 
BRANCH  45  48
ATOM     48  CBB 4YY d   1      11.886  51.973  86.020  0.00  0.00    -0.040 A 
ATOM     49  CAJ 4YY d   1      11.807  50.756  85.353  0.00  0.00    -0.074 A 
ATOM     50  CAL 4YY d   1      12.577  50.503  84.213  0.00  0.00    -0.071 A 
ATOM     51  H26 4YY d   1      11.136  49.989  85.723  0.00  0.00     0.084 H 
ATOM     52  CBC 4YY d   1      13.451  51.465  83.689  0.00  0.00    -0.017 A 
ATOM     53  H27 4YY d   1      12.496  49.539  83.723  0.00  0.00     0.084 H 
ATOM     54  CAM 4YY d   1      13.538  52.684  84.355  0.00  0.00    -0.071 A 
ATOM     55  CAK 4YY d   1      12.764  52.936  85.502  0.00  0.00    -0.074 A 
ATOM     56  H29 4YY d   1      14.211  53.449  83.985  0.00  0.00     0.084 H 
ATOM     57  H28 4YY d   1      12.848  53.897  85.997  0.00  0.00     0.084 H 
BRANCH  52  58
ATOM     58  CBD 4YY d   1      14.200  51.240  82.586  0.00  0.00     0.040 A 
ATOM     59  SAW 4YY d   1      15.826  51.705  82.386  0.00  0.00    -0.080 SA
ATOM     60  CAN 4YY d   1      15.976  51.092  80.846  0.00  0.00     0.041 A 
ATOM     61  NAT 4YY d   1      14.805  50.549  80.496  0.00  0.00    -0.258 NA
ATOM     62  H30 4YY d   1      16.873  51.127  80.230  0.00  0.00     0.126 H 
ATOM     63  CBA 4YY d   1      13.839  50.628  81.434  0.00  0.00     0.049 A 
BRANCH  63  64
ATOM     64  CAA 4YY d   1      12.465  50.016  81.134  0.00  0.00    -0.034 C 
ATOM     65  H31 4YY d   1      12.467  49.590  80.120  0.00  0.00     0.035 H 
ATOM     66  H32 4YY d   1      11.693  50.797  81.203  0.00  0.00     0.035 H 
ATOM     67  H33 4YY d   1      12.250  49.222  81.865  0.00  0.00     0.035 H 
ENDBRANCH  63  64
ENDBRANCH  52  58
ENDBRANCH  45  48
ENDBRANCH  43  45
ENDBRANCH   7  41
BRANCH   5  68
ATOM     68  OD1 4YY d   1      14.550  56.809  90.280  0.00  0.00    -0.394 OA
ATOM     69  H19 4YY d   1      14.972  57.177  91.048  0.00  0.00     0.210 HD
ENDBRANCH   5  68
TORSDOF 13
