REMARK  15 active torsions:
REMARK  status: ('A' for Active; 'I' for Inactive)
REMARK    1  A    between atoms: CAA_1  and  CAZ_2 
REMARK       I    between atoms: CAZ_2  and  NAX_4 
REMARK    2  A    between atoms: NAX_4  and  CBM_5 
REMARK    3  A    between atoms: CBM_5  and  CBB_8 
REMARK       I    between atoms: CBB_8  and  NAW_10 
REMARK    4  A    between atoms: NAW_10  and  CBJ_11 
REMARK    5  A    between atoms: CBJ_11  and  CBL_12 
REMARK    6  A    between atoms: CBJ_11  and  CBC_16 
REMARK    7  A    between atoms: CBL_12  and  CAE_13 
REMARK    8  A    between atoms: CBL_12  and  CAC_14 
REMARK    9  A    between atoms: CBL_12  and  CAD_15 
REMARK       I    between atoms: CBC_16  and  N_18 
REMARK   10  A    between atoms: CG_20  and  OD1_21 
REMARK   11  A    between atoms: CA_23  and  C_24 
REMARK       I    between atoms: C_24  and  NAV_26 
REMARK   12  A    between atoms: NAV_26  and  CAR_27 
REMARK   13  A    between atoms: CAR_27  and  CBD_28 
REMARK   14  A    between atoms: CBF_33  and  CBG_34 
REMARK   15  A    between atoms: CBE_38  and  CAB_39 
ROOT
ATOM      1  CBC 9BK d   1      12.305  54.575  92.787  0.00  0.00     0.244 C 
ATOM      2  OAI 9BK d   1      11.159  54.313  92.428  0.00  0.00    -0.271 OA
ATOM      3  N   9BK d   1      13.272  54.902  91.890  0.00  0.00    -0.334 N 
ATOM      4  CD2 9BK d   1      14.714  55.289  92.114  0.00  0.00     0.022 C 
ATOM      5  CG  9BK d   1      15.119  56.075  90.869  0.00  0.00     0.053 C 
ATOM      6  CB  9BK d   1      14.305  55.457  89.758  0.00  0.00    -0.012 C 
ATOM      7  CA  9BK d   1      12.980  55.002  90.408  0.00  0.00     0.094 C 
ATOM      8  H20 9BK d   1      15.341  54.392  92.224  0.00  0.00     0.068 H 
ATOM      9  H21 9BK d   1      14.809  55.916  93.013  0.00  0.00     0.068 H 
ATOM     10  H22 9BK d   1      16.197  55.982  90.672  0.00  0.00     0.085 H 
ATOM     11  H24 9BK d   1      14.836  54.595  89.328  0.00  0.00     0.040 H 
ATOM     12  H25 9BK d   1      14.110  56.198  88.969  0.00  0.00     0.040 H 
ATOM     13  H26 9BK d   1      12.193  55.753  90.243  0.00  0.00     0.088 H 
ENDROOT
BRANCH   1  14
ATOM     14  CBJ 9BK d   1      12.674  54.539  94.317  0.00  0.00     0.096 C 
ATOM     15  H10 9BK d   1      13.576  55.146  94.481  0.00  0.00     0.088 H 
BRANCH  14  16
ATOM     16  NAW 9BK d   1      11.541  55.123  95.056  0.00  0.00    -0.345 N 
ATOM     17  CBB 9BK d   1      11.572  56.281  95.739  0.00  0.00     0.246 C 
ATOM     18  OAH 9BK d   1      12.572  56.982  95.865  0.00  0.00    -0.271 OA
ATOM     19  H9  9BK d   1      10.678  54.617  95.049  0.00  0.00     0.163 HD
BRANCH  17  20
ATOM     20  CBM 9BK d   1      10.248  56.695  96.449  0.00  0.00     0.114 A 
ATOM     21  CAP 9BK d   1      10.347  57.558  97.684  0.00  0.00    -0.030 A 
ATOM     22  CAQ 9BK d   1       9.808  58.143  96.395  0.00  0.00    -0.030 A 
ATOM     23  H5  9BK d   1      11.333  57.870  98.059  0.00  0.00     0.037 H 
ATOM     24  H6  9BK d   1       9.670  57.382  98.533  0.00  0.00     0.037 H 
ATOM     25  H7  9BK d   1       8.740  58.391  96.307  0.00  0.00     0.037 H 
ATOM     26  H8  9BK d   1      10.403  58.879  95.833  0.00  0.00     0.037 H 
BRANCH  20  27
ATOM     27  NAX 9BK d   1       9.222  55.648  96.550  0.00  0.00    -0.343 N 
ATOM     28  CAZ 9BK d   1       9.400  54.557  97.322  0.00  0.00     0.214 C 
ATOM     29  OAF 9BK d   1      10.413  54.344  97.979  0.00  0.00    -0.274 OA
ATOM     30  H4  9BK d   1       8.371  55.747  96.034  0.00  0.00     0.163 HD
BRANCH  28  31
ATOM     31  CAA 9BK d   1       8.258  53.536  97.311  0.00  0.00    -0.003 C 
ATOM     32  H1  9BK d   1       7.444  53.904  96.669  0.00  0.00     0.040 H 
ATOM     33  H2  9BK d   1       7.882  53.395  98.335  0.00  0.00     0.040 H 
ATOM     34  H3  9BK d   1       8.628  52.576  96.921  0.00  0.00     0.040 H 
ENDBRANCH  28  31
ENDBRANCH  20  27
ENDBRANCH  17  20
ENDBRANCH  14  16
BRANCH  14  35
ATOM     35  CBL 9BK d   1      12.943  53.095  94.845  0.00  0.00    -0.022 C 
BRANCH  35  36
ATOM     36  CAE 9BK d   1      13.973  52.343  93.984  0.00  0.00    -0.067 C 
ATOM     37  H11 9BK d   1      14.128  51.334  94.395  0.00  0.00     0.028 H 
ATOM     38  H12 9BK d   1      14.926  52.892  93.990  0.00  0.00     0.028 H 
ATOM     39  H13 9BK d   1      13.601  52.265  92.952  0.00  0.00     0.028 H 
ENDBRANCH  35  36
BRANCH  35  40
ATOM     40  CAC 9BK d   1      11.644  52.256  94.903  0.00  0.00    -0.067 C 
ATOM     41  H14 9BK d   1      10.896  52.780  95.516  0.00  0.00     0.028 H 
ATOM     42  H15 9BK d   1      11.861  51.275  95.350  0.00  0.00     0.028 H 
ATOM     43  H16 9BK d   1      11.252  52.117  93.885  0.00  0.00     0.028 H 
ENDBRANCH  35  40
BRANCH  35  44
ATOM     44  CAD 9BK d   1      13.524  53.185  96.269  0.00  0.00    -0.067 C 
ATOM     45  H17 9BK d   1      14.450  53.779  96.250  0.00  0.00     0.028 H 
ATOM     46  H18 9BK d   1      13.745  52.173  96.640  0.00  0.00     0.028 H 
ATOM     47  H19 9BK d   1      12.792  53.668  96.934  0.00  0.00     0.028 H 
ENDBRANCH  35  44
ENDBRANCH  14  35
ENDBRANCH   1  14
BRANCH   7  48
ATOM     48  C   9BK d   1      12.579  53.790  89.809  0.00  0.00     0.241 C 
ATOM     49  O   9BK d   1      13.025  52.720  90.204  0.00  0.00    -0.271 OA
ATOM     50  NAV 9BK d   1      11.748  53.907  88.742  0.00  0.00    -0.355 N 
ATOM     51  H27 9BK d   1      11.437  54.823  88.490  0.00  0.00     0.162 HD
BRANCH  50  52
ATOM     52  CAR 9BK d   1      11.272  52.765  87.926  0.00  0.00     0.019 C 
ATOM     53  H28 9BK d   1      10.233  52.958  87.619  0.00  0.00     0.071 H 
ATOM     54  H29 9BK d   1      11.310  51.852  88.539  0.00  0.00     0.071 H 
BRANCH  52  55
ATOM     55  CBD 9BK d   1      12.070  52.565  86.752  0.00  0.00    -0.040 A 
ATOM     56  CAK 9BK d   1      12.048  51.332  86.096  0.00  0.00    -0.074 A 
ATOM     57  CAM 9BK d   1      12.815  51.108  84.947  0.00  0.00    -0.071 A 
ATOM     58  H30 9BK d   1      11.425  50.534  86.484  0.00  0.00     0.084 H 
ATOM     59  CBF 9BK d   1      13.631  52.114  84.404  0.00  0.00    -0.017 A 
ATOM     60  H31 9BK d   1      12.778  50.137  84.466  0.00  0.00     0.084 H 
ATOM     61  CAN 9BK d   1      13.661  53.337  85.064  0.00  0.00    -0.071 A 
ATOM     62  CAL 9BK d   1      12.888  53.564  86.217  0.00  0.00    -0.074 A 
ATOM     63  H33 9BK d   1      14.293  54.131  84.683  0.00  0.00     0.084 H 
ATOM     64  H32 9BK d   1      12.928  54.533  86.700  0.00  0.00     0.084 H 
BRANCH  59  65
ATOM     65  CBG 9BK d   1      14.379  51.919  83.295  0.00  0.00     0.040 A 
ATOM     66  SAY 9BK d   1      15.993  52.428  83.080  0.00  0.00    -0.080 SA
ATOM     67  CAO 9BK d   1      16.143  51.810  81.543  0.00  0.00     0.041 A 
ATOM     68  NAU 9BK d   1      14.985  51.237  81.205  0.00  0.00    -0.258 NA
ATOM     69  H34 9BK d   1      17.034  51.864  80.919  0.00  0.00     0.126 H 
ATOM     70  CBE 9BK d   1      14.022  51.295  82.151  0.00  0.00     0.049 A 
BRANCH  70  71
ATOM     71  CAB 9BK d   1      12.645  50.663  81.870  0.00  0.00    -0.034 C 
ATOM     72  H35 9BK d   1      12.641  50.227  80.860  0.00  0.00     0.035 H 
ATOM     73  H36 9BK d   1      11.866  51.436  81.939  0.00  0.00     0.035 H 
ATOM     74  H37 9BK d   1      12.446  49.874  82.610  0.00  0.00     0.035 H 
ENDBRANCH  70  71
ENDBRANCH  59  65
ENDBRANCH  52  55
ENDBRANCH  50  52
ENDBRANCH   7  48
BRANCH   5  75
ATOM     75  OD1 9BK d   1      14.765  57.452  91.026  0.00  0.00    -0.394 OA
ATOM     76  H23 9BK d   1      15.215  57.809  91.783  0.00  0.00     0.210 HD
ENDBRANCH   5  75
TORSDOF 15
