REMARK  13 active torsions:
REMARK  status: ('A' for Active; 'I' for Inactive)
REMARK    1  A    between atoms: CBF_4  and  CAX_5 
REMARK       I    between atoms: CAX_5  and  NAV_7 
REMARK    2  A    between atoms: NAV_7  and  CBH_8 
REMARK    3  A    between atoms: CBH_8  and  CBJ_9 
REMARK    4  A    between atoms: CBH_8  and  CAZ_13 
REMARK    5  A    between atoms: CBJ_9  and  CAD_10 
REMARK    6  A    between atoms: CBJ_9  and  CAB_11 
REMARK    7  A    between atoms: CBJ_9  and  CAC_12 
REMARK       I    between atoms: CAZ_13  and  N_15 
REMARK    8  A    between atoms: CG_17  and  OD1_18 
REMARK    9  A    between atoms: CA_20  and  C_21 
REMARK       I    between atoms: C_21  and  NAU_23 
REMARK   10  A    between atoms: NAU_23  and  CAQ_24 
REMARK   11  A    between atoms: CAQ_24  and  CBA_25 
REMARK   12  A    between atoms: CBC_30  and  CBD_31 
REMARK   13  A    between atoms: CBB_35  and  CAA_36 
ROOT
ATOM      1  CAZ 9BH d   1      12.395  54.644  92.724  0.00  0.00     0.244 C 
ATOM      2  OAG 9BH d   1      11.244  54.483  92.349  0.00  0.00    -0.271 OA
ATOM      3  N   9BH d   1      13.379  55.000  91.860  0.00  0.00    -0.334 N 
ATOM      4  CD2 9BH d   1      14.819  55.363  92.091  0.00  0.00     0.022 C 
ATOM      5  CG  9BH d   1      15.242  56.149  90.850  0.00  0.00     0.053 C 
ATOM      6  CB  9BH d   1      14.403  55.491  89.753  0.00  0.00    -0.012 C 
ATOM      7  CA  9BH d   1      13.053  55.129  90.401  0.00  0.00     0.094 C 
ATOM      8  H19 9BH d   1      15.432  54.456  92.200  0.00  0.00     0.068 H 
ATOM      9  H20 9BH d   1      14.920  55.984  92.993  0.00  0.00     0.068 H 
ATOM     10  H21 9BH d   1      16.318  56.032  90.656  0.00  0.00     0.085 H 
ATOM     11  H23 9BH d   1      14.903  54.584  89.383  0.00  0.00     0.040 H 
ATOM     12  H24 9BH d   1      14.250  56.191  88.919  0.00  0.00     0.040 H 
ATOM     13  H25 9BH d   1      12.314  55.930  90.252  0.00  0.00     0.088 H 
ENDROOT
BRANCH   1  14
ATOM     14  CBH 9BH d   1      12.741  54.535  94.237  0.00  0.00     0.096 C 
ATOM     15  H9  9BH d   1      13.712  55.027  94.397  0.00  0.00     0.088 H 
BRANCH  14  16
ATOM     16  NAV 9BH d   1      11.706  55.282  94.969  0.00  0.00    -0.347 N 
ATOM     17  CAX 9BH d   1      11.562  56.456  95.582  0.00  0.00     0.222 C 
ATOM     18  OAE 9BH d   1      12.509  57.222  95.797  0.00  0.00    -0.273 OA
ATOM     19  H8  9BH d   1      10.860  54.751  95.022  0.00  0.00     0.163 HD
BRANCH  17  20
ATOM     20  CBF 9BH d   1      10.162  56.758  96.119  0.00  0.00     0.024 C 
ATOM     21  CAO 9BH d   1      10.032  56.329  97.566  0.00  0.00    -0.054 C 
ATOM     22  CAN 9BH d   1      10.130  57.779  97.996  0.00  0.00    -0.064 C 
ATOM     23  H1  9BH d   1       9.072  55.851  97.809  0.00  0.00     0.034 H 
ATOM     24  H2  9BH d   1      10.858  55.696  97.924  0.00  0.00     0.034 H 
ATOM     25  CAP 9BH d   1      10.009  58.205  96.545  0.00  0.00    -0.054 C 
ATOM     26  H3  9BH d   1      11.088  58.046  98.466  0.00  0.00     0.033 H 
ATOM     27  H4  9BH d   1       9.301  58.117  98.635  0.00  0.00     0.033 H 
ATOM     28  H5  9BH d   1      10.819  58.864  96.200  0.00  0.00     0.034 H 
ATOM     29  H6  9BH d   1       9.037  58.651  96.286  0.00  0.00     0.034 H 
ATOM     30  H7  9BH d   1       9.384  56.382  95.438  0.00  0.00     0.054 H 
ENDBRANCH  17  20
ENDBRANCH  14  16
BRANCH  14  31
ATOM     31  CBJ 9BH d   1      12.866  53.105  94.777  0.00  0.00    -0.022 C 
BRANCH  31  32
ATOM     32  CAD 9BH d   1      13.362  53.183  96.233  0.00  0.00    -0.067 C 
ATOM     33  H10 9BH d   1      13.459  52.167  96.642  0.00  0.00     0.028 H 
ATOM     34  H11 9BH d   1      12.640  53.753  96.836  0.00  0.00     0.028 H 
ATOM     35  H12 9BH d   1      14.341  53.685  96.261  0.00  0.00     0.028 H 
ENDBRANCH  31  32
BRANCH  31  36
ATOM     36  CAB 9BH d   1      13.905  52.322  93.956  0.00  0.00    -0.067 C 
ATOM     37  H13 9BH d   1      13.570  52.254  92.910  0.00  0.00     0.028 H 
ATOM     38  H14 9BH d   1      14.014  51.310  94.373  0.00  0.00     0.028 H 
ATOM     39  H15 9BH d   1      14.873  52.842  93.998  0.00  0.00     0.028 H 
ENDBRANCH  31  36
BRANCH  31  40
ATOM     40  CAC 9BH d   1      11.514  52.355  94.786  0.00  0.00    -0.067 C 
ATOM     41  H16 9BH d   1      10.782  52.926  95.376  0.00  0.00     0.028 H 
ATOM     42  H17 9BH d   1      11.650  51.360  95.234  0.00  0.00     0.028 H 
ATOM     43  H18 9BH d   1      11.148  52.246  93.754  0.00  0.00     0.028 H 
ENDBRANCH  31  40
ENDBRANCH  14  31
ENDBRANCH   1  14
BRANCH   7  44
ATOM     44  C   9BH d   1      12.565  53.925  89.794  0.00  0.00     0.241 C 
ATOM     45  O   9BH d   1      12.964  52.823  90.147  0.00  0.00    -0.271 OA
ATOM     46  NAU 9BH d   1      11.748  54.063  88.738  0.00  0.00    -0.355 N 
ATOM     47  H26 9BH d   1      11.447  54.981  88.482  0.00  0.00     0.162 HD
BRANCH  46  48
ATOM     48  CAQ 9BH d   1      11.272  52.905  87.932  0.00  0.00     0.019 C 
ATOM     49  H27 9BH d   1      10.237  53.098  87.614  0.00  0.00     0.071 H 
ATOM     50  H28 9BH d   1      11.300  52.003  88.560  0.00  0.00     0.071 H 
BRANCH  48  51
ATOM     51  CBA 9BH d   1      12.081  52.678  86.761  0.00  0.00    -0.040 A 
ATOM     52  CAI 9BH d   1      12.968  53.631  86.254  0.00  0.00    -0.074 A 
ATOM     53  CAK 9BH d   1      13.744  53.380  85.109  0.00  0.00    -0.071 A 
ATOM     54  H29 9BH d   1      13.060  54.587  86.756  0.00  0.00     0.084 H 
ATOM     55  CBC 9BH d   1      13.659  52.178  84.410  0.00  0.00    -0.017 A 
ATOM     56  H30 9BH d   1      14.429  54.144  84.760  0.00  0.00     0.084 H 
ATOM     57  CAL 9BH d   1      12.774  51.221  84.929  0.00  0.00    -0.071 A 
ATOM     58  CAJ 9BH d   1      12.006  51.466  86.077  0.00  0.00    -0.074 A 
ATOM     59  H32 9BH d   1      12.681  50.264  84.428  0.00  0.00     0.084 H 
ATOM     60  H31 9BH d   1      11.338  50.694  86.441  0.00  0.00     0.084 H 
BRANCH  55  61
ATOM     61  CBD 9BH d   1      14.407  51.965  83.291  0.00  0.00     0.040 A 
ATOM     62  SAW 9BH d   1      16.079  52.427  83.040  0.00  0.00    -0.080 SA
ATOM     63  CAM 9BH d   1      16.177  51.820  81.506  0.00  0.00     0.041 A 
ATOM     64  NAT 9BH d   1      14.987  51.302  81.177  0.00  0.00    -0.258 NA
ATOM     65  H33 9BH d   1      17.061  51.838  80.870  0.00  0.00     0.126 H 
ATOM     66  CBB 9BH d   1      14.031  51.378  82.131  0.00  0.00     0.049 A 
BRANCH  66  67
ATOM     67  CAA 9BH d   1      12.636  50.794  81.821  0.00  0.00    -0.034 C 
ATOM     68  H34 9BH d   1      12.629  50.384  80.800  0.00  0.00     0.035 H 
ATOM     69  H35 9BH d   1      11.880  51.588  81.903  0.00  0.00     0.035 H 
ATOM     70  H36 9BH d   1      12.406  49.993  82.539  0.00  0.00     0.035 H 
ENDBRANCH  66  67
ENDBRANCH  55  61
ENDBRANCH  48  51
ENDBRANCH  46  48
ENDBRANCH   7  44
BRANCH   5  71
ATOM     71  OD1 9BH d   1      14.924  57.557  90.960  0.00  0.00    -0.394 OA
ATOM     72  H22 9BH d   1      15.375  57.925  91.711  0.00  0.00     0.210 HD
ENDBRANCH   5  71
TORSDOF 13
