REMARK  13 active torsions:
REMARK  status: ('A' for Active; 'I' for Inactive)
REMARK    1  A    between atoms: CBF_4  and  CAY_5 
REMARK       I    between atoms: CAY_5  and  NAU_7 
REMARK    2  A    between atoms: NAU_7  and  CBH_8 
REMARK    3  A    between atoms: CBH_8  and  CBJ_9 
REMARK    4  A    between atoms: CBH_8  and  CAZ_13 
REMARK    5  A    between atoms: CBJ_9  and  CAD_10 
REMARK    6  A    between atoms: CBJ_9  and  CAB_11 
REMARK    7  A    between atoms: CBJ_9  and  CAC_12 
REMARK       I    between atoms: CAZ_13  and  N_15 
REMARK    8  A    between atoms: CG_17  and  OD1_18 
REMARK    9  A    between atoms: CA_20  and  C_21 
REMARK       I    between atoms: C_21  and  NAT_23 
REMARK   10  A    between atoms: NAT_23  and  CAN_24 
REMARK   11  A    between atoms: CAN_24  and  CBA_25 
REMARK   12  A    between atoms: CBC_30  and  CBD_31 
REMARK   13  A    between atoms: CBB_35  and  CAA_36 
ROOT
ATOM      1  CAZ 9B8 d   1      12.168  54.463  92.770  0.00  0.00     0.244 C 
ATOM      2  OAG 9B8 d   1      11.010  54.311  92.423  0.00  0.00    -0.271 OA
ATOM      3  N   9B8 d   1      13.129  54.871  91.903  0.00  0.00    -0.334 N 
ATOM      4  CD2 9B8 d   1      14.574  55.191  92.152  0.00  0.00     0.022 C 
ATOM      5  CG  9B8 d   1      14.985  56.065  90.972  0.00  0.00     0.053 C 
ATOM      6  CB  9B8 d   1      14.173  55.501  89.823  0.00  0.00    -0.012 C 
ATOM      7  CA  9B8 d   1      12.820  55.068  90.436  0.00  0.00     0.094 C 
ATOM      8  H17 9B8 d   1      15.176  54.271  92.181  0.00  0.00     0.068 H 
ATOM      9  H18 9B8 d   1      14.693  55.737  93.099  0.00  0.00     0.068 H 
ATOM     10  H19 9B8 d   1      16.064  55.981  90.777  0.00  0.00     0.085 H 
ATOM     11  H21 9B8 d   1      14.687  54.636  89.379  0.00  0.00     0.040 H 
ATOM     12  H22 9B8 d   1      14.016  56.269  89.052  0.00  0.00     0.040 H 
ATOM     13  H23 9B8 d   1      12.057  55.850  90.309  0.00  0.00     0.088 H 
ENDROOT
BRANCH   1  14
ATOM     14  CBH 9B8 d   1      12.564  54.239  94.256  0.00  0.00     0.096 C 
ATOM     15  H7  9B8 d   1      13.569  54.664  94.393  0.00  0.00     0.088 H 
BRANCH  14  16
ATOM     16  NAU 9B8 d   1      11.622  55.011  95.079  0.00  0.00    -0.347 N 
ATOM     17  CAY 9B8 d   1      11.623  56.147  95.772  0.00  0.00     0.226 C 
ATOM     18  OAF 9B8 d   1      12.642  56.825  95.905  0.00  0.00    -0.273 OA
ATOM     19  H6  9B8 d   1      10.733  54.556  95.133  0.00  0.00     0.163 HD
BRANCH  17  20
ATOM     20  CBF 9B8 d   1      10.336  56.546  96.497  0.00  0.00     0.064 A 
ATOM     21  CAO 9B8 d   1      10.623  57.006  97.934  0.00  0.00     0.033 A 
ATOM     22  OAV 9B8 d   1      10.343  58.372  97.548  0.00  0.00    -0.389 OA
ATOM     23  H1  9B8 d   1       9.928  56.599  98.684  0.00  0.00     0.075 H 
ATOM     24  H2  9B8 d   1      11.659  56.835  98.263  0.00  0.00     0.075 H 
ATOM     25  CAP 9B8 d   1       9.981  57.964  96.212  0.00  0.00     0.033 A 
ATOM     26  H3  9B8 d   1      10.598  58.425  95.427  0.00  0.00     0.075 H 
ATOM     27  H4  9B8 d   1       8.917  58.114  95.977  0.00  0.00     0.075 H 
ATOM     28  H5  9B8 d   1       9.540  55.798  96.366  0.00  0.00     0.061 H 
ENDBRANCH  17  20
ENDBRANCH  14  16
BRANCH  14  29
ATOM     29  CBJ 9B8 d   1      12.641  52.763  94.730  0.00  0.00    -0.022 C 
BRANCH  29  30
ATOM     30  CAD 9B8 d   1      13.608  51.977  93.827  0.00  0.00    -0.067 C 
ATOM     31  H8  9B8 d   1      13.659  50.932  94.167  0.00  0.00     0.028 H 
ATOM     32  H9  9B8 d   1      14.609  52.429  93.880  0.00  0.00     0.028 H 
ATOM     33  H10 9B8 d   1      13.247  52.008  92.788  0.00  0.00     0.028 H 
ENDBRANCH  29  30
BRANCH  29  34
ATOM     34  CAB 9B8 d   1      11.273  52.070  94.717  0.00  0.00    -0.067 C 
ATOM     35  H11 9B8 d   1      10.575  52.625  95.360  0.00  0.00     0.028 H 
ATOM     36  H12 9B8 d   1      11.379  51.042  95.093  0.00  0.00     0.028 H 
ATOM     37  H13 9B8 d   1      10.884  52.046  93.688  0.00  0.00     0.028 H 
ENDBRANCH  29  34
BRANCH  29  38
ATOM     38  CAC 9B8 d   1      13.205  52.781  96.158  0.00  0.00    -0.067 C 
ATOM     39  H14 9B8 d   1      14.186  53.279  96.159  0.00  0.00     0.028 H 
ATOM     40  H15 9B8 d   1      13.318  51.749  96.521  0.00  0.00     0.028 H 
ATOM     41  H16 9B8 d   1      12.515  53.328  96.818  0.00  0.00     0.028 H 
ENDBRANCH  29  38
ENDBRANCH  14  29
ENDBRANCH   1  14
BRANCH   7  42
ATOM     42  C   9B8 d   1      12.387  53.875  89.786  0.00  0.00     0.241 C 
ATOM     43  O   9B8 d   1      12.818  52.783  90.125  0.00  0.00    -0.271 OA
ATOM     44  NAT 9B8 d   1      11.536  54.014  88.755  0.00  0.00    -0.355 N 
ATOM     45  H24 9B8 d   1      11.204  54.932  88.539  0.00  0.00     0.162 HD
BRANCH  44  46
ATOM     46  CAN 9B8 d   1      11.060  52.887  87.919  0.00  0.00     0.019 C 
ATOM     47  H25 9B8 d   1      10.038  53.107  87.577  0.00  0.00     0.071 H 
ATOM     48  H26 9B8 d   1      11.054  51.972  88.529  0.00  0.00     0.071 H 
BRANCH  46  49
ATOM     49  CBA 9B8 d   1      11.905  52.669  86.757  0.00  0.00    -0.040 A 
ATOM     50  CAI 9B8 d   1      11.826  51.478  86.047  0.00  0.00    -0.074 A 
ATOM     51  CAK 9B8 d   1      12.621  51.226  84.914  0.00  0.00    -0.071 A 
ATOM     52  H27 9B8 d   1      11.128  50.717  86.377  0.00  0.00     0.084 H 
ATOM     53  CBC 9B8 d   1      13.544  52.171  84.432  0.00  0.00    -0.017 A 
ATOM     54  H28 9B8 d   1      12.519  50.278  84.399  0.00  0.00     0.084 H 
ATOM     55  CAL 9B8 d   1      13.627  53.365  85.145  0.00  0.00    -0.071 A 
ATOM     56  CAJ 9B8 d   1      12.828  53.609  86.285  0.00  0.00    -0.074 A 
ATOM     57  H30 9B8 d   1      14.323  54.128  84.816  0.00  0.00     0.084 H 
ATOM     58  H29 9B8 d   1      12.933  54.552  86.809  0.00  0.00     0.084 H 
BRANCH  53  59
ATOM     59  CBD 9B8 d   1      14.318  51.947  83.334  0.00  0.00     0.040 A 
ATOM     60  SAW 9B8 d   1      15.954  52.392  83.117  0.00  0.00    -0.080 SA
ATOM     61  CAM 9B8 d   1      16.114  51.769  81.598  0.00  0.00     0.041 A 
ATOM     62  NAS 9B8 d   1      14.938  51.246  81.247  0.00  0.00    -0.258 NA
ATOM     63  H31 9B8 d   1      17.018  51.782  80.990  0.00  0.00     0.126 H 
ATOM     64  CBB 9B8 d   1      13.960  51.349  82.174  0.00  0.00     0.049 A 
BRANCH  64  65
ATOM     65  CAA 9B8 d   1      12.571  50.760  81.864  0.00  0.00    -0.034 C 
ATOM     66  H32 9B8 d   1      12.570  50.340  80.847  0.00  0.00     0.035 H 
ATOM     67  H33 9B8 d   1      11.812  51.553  81.934  0.00  0.00     0.035 H 
ATOM     68  H34 9B8 d   1      12.339  49.966  82.589  0.00  0.00     0.035 H 
ENDBRANCH  64  65
ENDBRANCH  53  59
ENDBRANCH  46  49
ENDBRANCH  44  46
ENDBRANCH   7  42
BRANCH   5  69
ATOM     69  OD1 9B8 d   1      14.638  57.452  91.193  0.00  0.00    -0.394 OA
ATOM     70  H20 9B8 d   1      15.082  57.768  91.971  0.00  0.00     0.210 HD
ENDBRANCH   5  69
TORSDOF 13
