REMARK  10 active torsions:
REMARK  status: ('A' for Active; 'I' for Inactive)
REMARK    1  A    between atoms: C3_11  and  O3_1 
REMARK    2  A    between atoms: C4_2  and  C5_3 
REMARK    3  A    between atoms: C4_2  and  O4_4 
REMARK    4  A    between atoms: C3_11  and  C4_2 
REMARK    5  A    between atoms: C5_3  and  O5_6 
REMARK       I    between atoms: C1_14  and  N1_5 
REMARK    6  A    between atoms: N1_5  and  N_16 
REMARK    7  A    between atoms: O5_6  and  P_10 
REMARK    8  A    between atoms: C2_12  and  C3_11 
REMARK    9  A    between atoms: C2_12  and  O2_13 
REMARK   10  A    between atoms: C2_12  and  C1_14 
ROOT
ATOM      1  C3  9C2 d   1      20.705  15.188   9.732  0.00  0.00     0.095 C 
ATOM      2  H7  9C2 d   1      21.030  15.083   8.686  0.00  0.00     0.091 H 
ENDROOT
BRANCH   1   3
ATOM      3  O3  9C2 d   1      21.847  14.913  10.568  0.00  0.00    -0.390 OA
ATOM      4  H1  9C2 d   1      21.609  15.039  11.479  0.00  0.00     0.210 HD
ENDBRANCH   1   3
BRANCH   1   5
ATOM      5  C4  9C2 d   1      20.218  16.593   9.901  0.00  0.00     0.084 C 
ATOM      6  H2  9C2 d   1      19.215  16.688   9.459  0.00  0.00     0.090 H 
BRANCH   5   7
ATOM      7  C5  9C2 d   1      20.137  16.975  11.402  0.00  0.00     0.059 C 
ATOM      8  H3  9C2 d   1      21.154  17.048  11.815  0.00  0.00     0.079 H 
ATOM      9  H4  9C2 d   1      19.575  16.201  11.945  0.00  0.00     0.079 H 
BRANCH   7  10
ATOM     10  O5  9C2 d   1      19.462  18.257  11.551  0.00  0.00    -0.280 OA
BRANCH  10  11
ATOM     11  P   9C2 d   1      20.319  19.640  11.671  0.00  0.00     0.422 P 
ATOM     12  O6  9C2 d   1      19.320  20.784  11.830  0.00  0.00    -0.617 OA
ATOM     13  O7  9C2 d   1      21.175  19.891  10.408  0.00  0.00    -0.617 OA
ATOM     14  O8  9C2 d   1      21.247  19.457  12.929  0.00  0.00    -0.617 OA
ENDBRANCH  10  11
ENDBRANCH   7  10
ENDBRANCH   5   7
BRANCH   5  15
ATOM     15  O4  9C2 d   1      21.132  17.446   9.196  0.00  0.00    -0.391 OA
ATOM     16  H5  9C2 d   1      20.839  18.347   9.264  0.00  0.00     0.210 HD
ENDBRANCH   5  15
ENDBRANCH   1   5
BRANCH   1  17
ATOM     17  C2  9C2 d   1      19.605  14.159   9.970  0.00  0.00     0.141 C 
ATOM     18  H8  9C2 d   1      19.256  14.186  11.013  0.00  0.00     0.102 H 
BRANCH  17  19
ATOM     19  O2  9C2 d   1      20.203  12.901   9.663  0.00  0.00    -0.383 OA
ATOM     20  H9  9C2 d   1      19.565  12.209   9.792  0.00  0.00     0.210 HD
ENDBRANCH  17  19
BRANCH  17  21
ATOM     21  C1  9C2 d   1      18.461  14.423   9.035  0.00  0.00     0.272 C 
ATOM     22  N1  9C2 d   1      17.248  14.387   9.527  0.00  0.00    -0.188 N 
ATOM     23  H6  9C2 d   1      17.122  14.257  10.511  0.00  0.00     0.196 HD
ATOM     24  O1  9C2 d   1      18.595  14.749   7.852  0.00  0.00    -0.269 OA
BRANCH  22  25
ATOM     25  N   9C2 d   1      16.120  14.527   8.701  0.00  0.00     0.003 N 
ATOM     26  H10 9C2 d   1      15.284  14.472   9.262  0.00  0.00     0.303 HD
ATOM     27  H11 9C2 d   1      16.113  13.789   8.014  0.00  0.00     0.303 HD
ATOM     28  H12 9C2 d   1      16.154  15.420   8.235  0.00  0.00     0.303 HD
ENDBRANCH  22  25
ENDBRANCH  17  21
ENDBRANCH   1  17
TORSDOF 10
