REMARK  22 active torsions:
REMARK  status: ('A' for Active; 'I' for Inactive)
REMARK    1  A    between atoms: N_1  and  CA_2 
REMARK    2  A    between atoms: CA_2  and  C_3 
REMARK    3  A    between atoms: CA_2  and  CB_5 
REMARK       I    between atoms: C_3  and  N_13 
REMARK    4  A    between atoms: CB_5  and  CG_6 
REMARK    5  A    between atoms: CZ_11  and  OH_12 
REMARK    6  A    between atoms: N_13  and  CA_14 
REMARK    7  A    between atoms: CA_14  and  C_15 
REMARK    8  A    between atoms: CA_14  and  CB_17 
REMARK       I    between atoms: C_15  and  N_24 
REMARK    9  A    between atoms: CB_17  and  CG_18 
REMARK   10  A    between atoms: N_24  and  CA_25 
REMARK   11  A    between atoms: CA_25  and  C_26 
REMARK   12  A    between atoms: CA_25  and  CB_28 
REMARK       I    between atoms: C_26  and  N_30 
REMARK   13  A    between atoms: CB_28  and  OG_29 
REMARK   14  A    between atoms: N_30  and  CA_31 
REMARK   15  A    between atoms: CA_31  and  CB_32 
REMARK   16  A    between atoms: CA_31  and  C_34 
REMARK   17  A    between atoms: CB_32  and  OG_33 
REMARK   18  A    between atoms: OG_33  and  P_36 
REMARK       I    between atoms: C_34  and  N_40 
REMARK   19  A    between atoms: N_40  and  CA_41 
REMARK   20  A    between atoms: CA_41  and  C_42 
REMARK   21  A    between atoms: CA_41  and  CB_44 
REMARK   22  A    between atoms: CB_44  and  CG_45 
REMARK       I    between atoms: CG_45  and  ND2_47 
ROOT
ATOM      1  C   PHE d   1     -28.521  33.721   0.612  0.00  0.00     0.241 C 
ATOM      2  O   PHE d   1     -29.651  33.947   1.060  0.00  0.00    -0.271 OA
ATOM      3  N   SER d   1     -27.424  33.753   1.355  0.00  0.00    -0.344 N 
ATOM      4  H21 SER d   1     -26.536  33.609   0.918  0.00  0.00     0.163 HD
ENDROOT
BRANCH   1   5
ATOM      5  CA  PHE d   1     -28.268  33.408  -0.857  0.00  0.00     0.093 C 
ATOM      6  H13 PHE d   1     -27.655  32.496  -0.916  0.00  0.00     0.088 H 
BRANCH   5   7
ATOM      7  N   PHE d   1     -29.511  33.165  -1.575  0.00  0.00    -0.346 N 
ATOM      8  C   TYR d   1     -29.985  31.945  -1.804  0.00  0.00     0.249 C 
ATOM      9  O   TYR d   1     -29.464  30.929  -1.343  0.00  0.00    -0.271 OA
ATOM     10  H12 PHE d   1     -30.031  33.951  -1.911  0.00  0.00     0.163 HD
BRANCH   8  11
ATOM     11  CA  TYR d   1     -31.211  31.865  -2.725  0.00  0.00     0.179 C 
ATOM     12  H4  TYR d   1     -31.562  32.888  -2.926  0.00  0.00     0.099 H 
BRANCH  11  13
ATOM     13  N   TYR d   1     -30.812  31.248  -3.994  0.00  0.00    -0.066 N 
ATOM     14  H1  TYR d   1     -31.611  31.191  -4.606  0.00  0.00     0.275 HD
ATOM     15  H2  TYR d   1     -30.456  30.321  -3.820  0.00  0.00     0.275 HD
ATOM     16  H3  TYR d   1     -30.095  31.807  -4.429  0.00  0.00     0.275 HD
ENDBRANCH  11  13
BRANCH  11  17
ATOM     17  CB  TYR d   1     -32.371  31.081  -2.080  0.00  0.00    -0.006 C 
ATOM     18  H5  TYR d   1     -32.742  31.654  -1.217  0.00  0.00     0.043 H 
ATOM     19  H6  TYR d   1     -31.987  30.109  -1.737  0.00  0.00     0.043 H 
BRANCH  17  20
ATOM     20  CG  TYR d   1     -33.541  30.831  -3.037  0.00  0.00    -0.056 A 
ATOM     21  CD1 TYR d   1     -34.049  31.859  -3.845  0.00  0.00    -0.074 A 
ATOM     22  CE1 TYR d   1     -35.111  31.630  -4.739  0.00  0.00    -0.051 A 
ATOM     23  H7  TYR d   1     -33.614  32.850  -3.779  0.00  0.00     0.084 H 
ATOM     24  CZ  TYR d   1     -35.664  30.354  -4.846  0.00  0.00     0.065 A 
ATOM     25  H9  TYR d   1     -35.498  32.443  -5.343  0.00  0.00     0.087 H 
ATOM     26  CE2 TYR d   1     -35.166  29.314  -4.063  0.00  0.00    -0.051 A 
ATOM     27  CD2 TYR d   1     -34.108  29.556  -3.167  0.00  0.00    -0.074 A 
ATOM     28  H10 TYR d   1     -35.593  28.321  -4.144  0.00  0.00     0.087 H 
ATOM     29  H8  TYR d   1     -33.724  28.740  -2.566  0.00  0.00     0.084 H 
BRANCH  24  30
ATOM     30  OH  TYR d   1     -36.711  30.112  -5.729  0.00  0.00    -0.361 OA
ATOM     31  H11 TYR d   1     -36.932  30.916  -6.184  0.00  0.00     0.217 HD
ENDBRANCH  24  30
ENDBRANCH  17  20
ENDBRANCH  11  17
ENDBRANCH   8  11
ENDBRANCH   5   7
BRANCH   5  32
ATOM     32  CB  PHE d   1     -27.493  34.555  -1.499  0.00  0.00    -0.014 C 
ATOM     33  H14 PHE d   1     -26.566  34.715  -0.929  0.00  0.00     0.043 H 
ATOM     34  H15 PHE d   1     -28.111  35.464  -1.456  0.00  0.00     0.043 H 
BRANCH  32  35
ATOM     35  CG  PHE d   1     -27.143  34.292  -2.900  0.00  0.00    -0.056 A 
ATOM     36  CD1 PHE d   1     -25.997  33.585  -3.215  0.00  0.00    -0.077 A 
ATOM     37  CE1 PHE d   1     -25.681  33.306  -4.540  0.00  0.00    -0.082 A 
ATOM     38  H16 PHE d   1     -25.340  33.246  -2.423  0.00  0.00     0.084 H 
ATOM     39  CZ  PHE d   1     -26.516  33.729  -5.559  0.00  0.00    -0.083 A 
ATOM     40  H18 PHE d   1     -24.777  32.755  -4.775  0.00  0.00     0.083 H 
ATOM     41  CE2 PHE d   1     -27.667  34.423  -5.255  0.00  0.00    -0.082 A 
ATOM     42  H20 PHE d   1     -26.266  33.515  -6.592  0.00  0.00     0.083 H 
ATOM     43  CD2 PHE d   1     -27.983  34.698  -3.921  0.00  0.00    -0.077 A 
ATOM     44  H19 PHE d   1     -28.326  34.755  -6.049  0.00  0.00     0.083 H 
ATOM     45  H17 PHE d   1     -28.895  35.234  -3.685  0.00  0.00     0.084 H 
ENDBRANCH  32  35
ENDBRANCH   5  32
ENDBRANCH   1   5
BRANCH   3  46
ATOM     46  CA  SER d   1     -27.477  33.989   2.771  0.00  0.00     0.109 C 
ATOM     47  H22 SER d   1     -28.298  33.392   3.195  0.00  0.00     0.090 H 
BRANCH  46  48
ATOM     48  C   SER d   1     -27.750  35.452   3.061  0.00  0.00     0.243 C 
ATOM     49  O   SER d   1     -27.064  36.329   2.533  0.00  0.00    -0.271 OA
ATOM     50  N   SEP d   1     -28.678  35.699   3.986  0.00  0.00    -0.344 N 
ATOM     51  H26 SEP d   1     -29.148  34.924   4.409  0.00  0.00     0.163 HD
BRANCH  50  52
ATOM     52  CA  SEP d   1     -29.039  37.045   4.409  0.00  0.00     0.110 C 
ATOM     53  H27 SEP d   1     -28.230  37.738   4.134  0.00  0.00     0.090 H 
BRANCH  52  54
ATOM     54  CB  SEP d   1     -30.325  37.470   3.710  0.00  0.00     0.059 C 
ATOM     55  H28 SEP d   1     -30.247  37.252   2.635  0.00  0.00     0.079 H 
ATOM     56  H29 SEP d   1     -30.482  38.549   3.855  0.00  0.00     0.079 H 
BRANCH  54  57
ATOM     57  OG  SEP d   1     -31.426  36.751   4.262  0.00  0.00    -0.280 OA
BRANCH  57  58
ATOM     58  P   SEP d   1     -32.937  37.235   3.991  0.00  0.00     0.422 P 
ATOM     59  O1P SEP d   1     -33.076  37.170   2.488  0.00  0.00    -0.617 OA
ATOM     60  O2P SEP d   1     -33.781  36.231   4.738  0.00  0.00    -0.617 OA
ATOM     61  O3P SEP d   1     -32.979  38.632   4.561  0.00  0.00    -0.617 OA
ENDBRANCH  57  58
ENDBRANCH  54  57
ENDBRANCH  52  54
BRANCH  52  62
ATOM     62  C   SEP d   1     -29.240  37.089   5.907  0.00  0.00     0.243 C 
ATOM     63  O   SEP d   1     -29.701  36.089   6.498  0.00  0.00    -0.271 OA
ATOM     64  N   ASN d   1     -28.907  38.219   6.532  0.00  0.00    -0.344 N 
ATOM     65  H30 ASN d   1     -28.542  38.974   5.987  0.00  0.00     0.163 HD
BRANCH  64  66
ATOM     66  CA  ASN d   1     -29.049  38.408   7.968  0.00  0.00     0.104 C 
ATOM     67  H31 ASN d   1     -28.879  37.450   8.481  0.00  0.00     0.090 H 
BRANCH  66  68
ATOM     68  C   ASN d   1     -30.489  38.876   8.250  0.00  0.00     0.197 C 
ATOM     69  O   ASN d   1     -31.466  38.316   7.722  0.00  0.00    -0.646 OA
ATOM     70  OXT ASN d   1     -30.723  39.843   8.983  0.00  0.00    -0.646 OA
ENDBRANCH  66  68
BRANCH  66  71
ATOM     71  CB  ASN d   1     -28.004  39.422   8.465  0.00  0.00     0.037 C 
ATOM     72  H32 ASN d   1     -28.227  40.403   8.020  0.00  0.00     0.051 H 
ATOM     73  H33 ASN d   1     -27.008  39.089   8.138  0.00  0.00     0.051 H 
BRANCH  71  74
ATOM     74  CG  ASN d   1     -27.994  39.566   9.968  0.00  0.00     0.217 C 
ATOM     75  OD1 ASN d   1     -28.278  40.643  10.508  0.00  0.00    -0.274 OA
ATOM     76  ND2 ASN d   1     -27.676  38.476  10.659  0.00  0.00    -0.370 N 
ATOM     77  H34 ASN d   1     -27.652  38.507  11.658  0.00  0.00     0.159 HD
ATOM     78  H35 ASN d   1     -27.461  37.625  10.180  0.00  0.00     0.159 HD
ENDBRANCH  71  74
ENDBRANCH  66  71
ENDBRANCH  64  66
ENDBRANCH  52  62
ENDBRANCH  50  52
ENDBRANCH  46  48
BRANCH  46  79
ATOM     79  CB  SER d   1     -26.162  33.545   3.423  0.00  0.00     0.044 C 
ATOM     80  H23 SER d   1     -26.230  33.698   4.510  0.00  0.00     0.077 H 
ATOM     81  H24 SER d   1     -25.337  34.150   3.018  0.00  0.00     0.077 H 
BRANCH  79  82
ATOM     82  OG  SER d   1     -25.905  32.181   3.163  0.00  0.00    -0.398 OA
ATOM     83  H25 SER d   1     -25.842  32.045   2.225  0.00  0.00     0.209 HD
ENDBRANCH  79  82
ENDBRANCH  46  79
ENDBRANCH   3  46
TORSDOF 22
