REMARK  5 active torsions:
REMARK  status: ('A' for Active; 'I' for Inactive)
REMARK    1  A    between atoms: C8_4  and  N2_5 
REMARK    2  A    between atoms: C5_10  and  C4_11 
REMARK       I    between atoms: C4_11  and  N1_13 
REMARK    3  A    between atoms: N1_13  and  C3_14 
REMARK    4  A    between atoms: C_19  and  S_20 
REMARK    5  A    between atoms: S_20  and  N_23 
ROOT
ATOM      1  C4  RA1 d   1      -4.077   7.924  12.667  0.00  0.00     0.257 C 
ATOM      2  O2  RA1 d   1      -5.308   8.089  12.652  0.00  0.00    -0.267 OA
ATOM      3  N1  RA1 d   1      -3.529   6.942  13.390  0.00  0.00    -0.323 N 
ATOM      4  H4  RA1 d   1      -2.531   6.882  13.356  0.00  0.00     0.169 HD
ENDROOT
BRANCH   3   5
ATOM      5  C3  RA1 d   1      -4.171   5.986  14.189  0.00  0.00     0.035 A 
ATOM      6  C2  RA1 d   1      -5.535   5.923  14.499  0.00  0.00    -0.056 A 
ATOM      7  C1  RA1 d   1      -6.011   4.897  15.286  0.00  0.00    -0.058 A 
ATOM      8  H5  RA1 d   1      -6.214   6.679  14.121  0.00  0.00     0.087 H 
ATOM      9  C   RA1 d   1      -5.194   3.869  15.763  0.00  0.00     0.079 A 
ATOM     10  H6  RA1 d   1      -7.063   4.887  15.546  0.00  0.00     0.086 H 
ATOM     11  C12 RA1 d   1      -3.804   3.943  15.426  0.00  0.00    -0.058 A 
ATOM     12  C11 RA1 d   1      -3.294   4.987  14.675  0.00  0.00    -0.056 A 
ATOM     13  H8  RA1 d   1      -3.135   3.162  15.768  0.00  0.00     0.086 H 
ATOM     14  H7  RA1 d   1      -2.233   5.039  14.461  0.00  0.00     0.087 H 
BRANCH   9  15
ATOM     15  S   RA1 d   1      -5.832   2.582  16.668  0.00  0.00     0.256 S 
ATOM     16  O   RA1 d   1      -5.298   2.695  17.998  0.00  0.00    -0.201 OA
ATOM     17  O1  RA1 d   1      -7.276   2.684  16.534  0.00  0.00    -0.201 OA
BRANCH  15  18
ATOM     18  N   RA1 d   1      -5.268   1.237  16.027  0.00  0.00    -0.324 N 
ATOM     19  H9  RA1 d   1      -5.525   0.352  16.415  0.00  0.00     0.169 HD
ATOM     20  H10 RA1 d   1      -4.657   1.278  15.236  0.00  0.00     0.169 HD
ENDBRANCH  15  18
ENDBRANCH   9  15
ENDBRANCH   3   5
BRANCH   1  21
ATOM     21  C5  RA1 d   1      -3.150   8.858  11.983  0.00  0.00     0.054 A 
ATOM     22  C10 RA1 d   1      -2.197   9.629  12.693  0.00  0.00     0.052 A 
ATOM     23 CL   RA1 d   1      -1.909   9.650  14.405  0.00  0.00    -0.083 Cl
ATOM     24  C9  RA1 d   1      -1.402  10.521  11.945  0.00  0.00    -0.029 A 
ATOM     25  C8  RA1 d   1      -1.582  10.572  10.552  0.00  0.00     0.104 A 
ATOM     26  H1  RA1 d   1      -0.669  11.153  12.433  0.00  0.00     0.089 H 
ATOM     27  C7  RA1 d   1      -2.528   9.794   9.861  0.00  0.00    -0.050 A 
ATOM     28  C6  RA1 d   1      -3.321   8.938  10.593  0.00  0.00    -0.064 A 
ATOM     29  H2  RA1 d   1      -2.630   9.866   8.784  0.00  0.00     0.087 H 
ATOM     30  H3  RA1 d   1      -4.071   8.331  10.099  0.00  0.00     0.085 H 
BRANCH  25  31
ATOM     31  N2  RA1 d   1      -0.745  11.480   9.744  0.00  0.00    -0.116 N 
ATOM     32  O4  RA1 d   1      -0.340  11.091   8.675  0.00  0.00    -0.532 OA
ATOM     33  O3  RA1 d   1      -0.475  12.579  10.152  0.00  0.00    -0.532 OA
ENDBRANCH  25  31
ENDBRANCH   1  21
TORSDOF 5
