REMARK  5 active torsions:
REMARK  status: ('A' for Active; 'I' for Inactive)
REMARK    1  A    between atoms: CAC_3  and  SAR_4 
REMARK    2  A    between atoms: SAR_4  and  NAU_7 
REMARK    3  A    between atoms: CAF_10  and  NAG_11 
REMARK    4  A    between atoms: NAG_11  and  SAH_12 
REMARK    5  A    between atoms: SAH_12  and  CAK_15 
ROOT
ATOM      1  CAA 9DE d   1      -5.853   6.132  14.942  0.00  0.00    -0.055 A 
ATOM      2  CAB 9DE d   1      -6.271   5.008  15.622  0.00  0.00    -0.058 A 
ATOM      3  CAC 9DE d   1      -5.393   3.983  15.974  0.00  0.00     0.079 A 
ATOM      4  CAD 9DE d   1      -4.033   4.123  15.649  0.00  0.00    -0.058 A 
ATOM      5  CAE 9DE d   1      -3.592   5.257  14.945  0.00  0.00    -0.055 A 
ATOM      6  CAF 9DE d   1      -4.510   6.300  14.583  0.00  0.00     0.042 A 
ATOM      7  H1  9DE d   1      -6.575   6.897  14.681  0.00  0.00     0.087 H 
ATOM      8  H2  9DE d   1      -7.317   4.918  15.892  0.00  0.00     0.086 H 
ATOM      9  H5  9DE d   1      -3.324   3.357  15.941  0.00  0.00     0.086 H 
ATOM     10  H6  9DE d   1      -2.547   5.345  14.672  0.00  0.00     0.087 H 
ENDROOT
BRANCH   6  11
ATOM     11  NAG 9DE d   1      -4.211   7.439  13.871  0.00  0.00    -0.281 N 
ATOM     12  H7  9DE d   1      -4.940   8.096  13.678  0.00  0.00     0.179 HD
BRANCH  11  13
ATOM     13  SAH 9DE d   1      -2.673   7.755  13.322  0.00  0.00     0.263 S 
ATOM     14  OAI 9DE d   1      -1.591   7.473  14.398  0.00  0.00    -0.200 OA
ATOM     15  OAJ 9DE d   1      -2.349   6.879  12.096  0.00  0.00    -0.200 OA
BRANCH  13  16
ATOM     16  CAK 9DE d   1      -2.593   9.441  13.097  0.00  0.00     0.080 A 
ATOM     17  CAL 9DE d   1      -2.070  10.219  14.128  0.00  0.00    -0.059 A 
ATOM     18  CAM 9DE d   1      -2.041  11.587  13.950  0.00  0.00    -0.065 A 
ATOM     19  H8  9DE d   1      -1.698   9.765  15.039  0.00  0.00     0.086 H 
ATOM     20  CAN 9DE d   1      -2.540  12.131  12.779  0.00  0.00     0.011 A 
ATOM     21  H9  9DE d   1      -1.631  12.230  14.720  0.00  0.00     0.085 H 
ATOM     22 BR   9DE d   1      -2.497  13.931  12.609  0.00  0.00    -0.051 Br
ATOM     23  CAO 9DE d   1      -3.069  11.362  11.755  0.00  0.00    -0.065 A 
ATOM     24  CAP 9DE d   1      -3.101   9.992  11.932  0.00  0.00    -0.059 A 
ATOM     25  H10 9DE d   1      -3.445  11.819  10.847  0.00  0.00     0.085 H 
ATOM     26  H11 9DE d   1      -3.521   9.352  11.164  0.00  0.00     0.086 H 
ENDBRANCH  13  16
ENDBRANCH  11  13
ENDBRANCH   6  11
BRANCH   3  27
ATOM     27  SAR 9DE d   1      -6.028   2.635  16.870  0.00  0.00     0.256 S 
ATOM     28  OAS 9DE d   1      -5.492   2.770  18.267  0.00  0.00    -0.201 OA
ATOM     29  OAT 9DE d   1      -7.505   2.709  16.809  0.00  0.00    -0.201 OA
BRANCH  27  30
ATOM     30  NAU 9DE d   1      -5.469   1.259  16.203  0.00  0.00    -0.324 N 
ATOM     31  H3  9DE d   1      -5.731   0.374  16.588  0.00  0.00     0.169 HD
ATOM     32  H4  9DE d   1      -4.864   1.299  15.408  0.00  0.00     0.169 HD
ENDBRANCH  27  30
ENDBRANCH   3  27
TORSDOF 5
