REMARK  5 active torsions:
REMARK  status: ('A' for Active; 'I' for Inactive)
REMARK    1  A    between atoms: CAC_3  and  NAR_4 
REMARK    2  A    between atoms: CAF_9  and  CAG_10 
REMARK    3  A    between atoms: CAG_10  and  CAH_11 
REMARK    4  A    between atoms: CAK_14  and  SAN_15 
REMARK    5  A    between atoms: SAN_15  and  NAQ_18 
ROOT
ATOM      1  CAH 9HK d   1      -4.652   6.251  14.252  0.00  0.00    -0.054 A 
ATOM      2  CAI 9HK d   1      -5.980   6.126  14.656  0.00  0.00    -0.075 A 
ATOM      3  CAJ 9HK d   1      -6.392   5.065  15.453  0.00  0.00    -0.060 A 
ATOM      4  CAK 9HK d   1      -5.472   4.078  15.835  0.00  0.00     0.079 A 
ATOM      5  CAL 9HK d   1      -4.121   4.182  15.471  0.00  0.00    -0.060 A 
ATOM      6  CAM 9HK d   1      -3.744   5.272  14.676  0.00  0.00    -0.075 A 
ATOM      7  H7  9HK d   1      -6.704   6.870  14.343  0.00  0.00     0.084 H 
ATOM      8  H8  9HK d   1      -7.424   5.000  15.779  0.00  0.00     0.085 H 
ATOM      9  H11 9HK d   1      -3.395   3.445  15.794  0.00  0.00     0.085 H 
ATOM     10  H12 9HK d   1      -2.706   5.362  14.376  0.00  0.00     0.084 H 
ENDROOT
BRANCH   1  11
ATOM     11  CAG 9HK d   1      -4.273   7.312  13.354  0.00  0.00    -0.017 C 
ATOM     12  H5  9HK d   1      -4.088   6.842  12.377  0.00  0.00     0.047 H 
ATOM     13  H6  9HK d   1      -5.141   7.983  13.280  0.00  0.00     0.047 H 
BRANCH  11  14
ATOM     14  CAF 9HK d   1      -3.137   8.145  13.627  0.00  0.00    -0.054 A 
ATOM     15  CAA 9HK d   1      -3.075   8.873  14.801  0.00  0.00    -0.074 A 
ATOM     16  CAB 9HK d   1      -2.038   9.758  15.047  0.00  0.00    -0.051 A 
ATOM     17  H1  9HK d   1      -3.854   8.749  15.544  0.00  0.00     0.084 H 
ATOM     18  CAC 9HK d   1      -1.036   9.947  14.100  0.00  0.00     0.102 A 
ATOM     19  H2  9HK d   1      -2.007  10.306  15.982  0.00  0.00     0.087 H 
ATOM     20  CAD 9HK d   1      -1.069   9.196  12.927  0.00  0.00    -0.051 A 
ATOM     21  CAE 9HK d   1      -2.129   8.323  12.682  0.00  0.00    -0.074 A 
ATOM     22  H3  9HK d   1      -0.268   9.290  12.202  0.00  0.00     0.087 H 
ATOM     23  H4  9HK d   1      -2.169   7.777  11.746  0.00  0.00     0.084 H 
BRANCH  18  24
ATOM     24  NAR 9HK d   1      -0.039  10.806  14.353  0.00  0.00    -0.116 N 
ATOM     25  OAT 9HK d   1      -0.146  11.591  15.398  0.00  0.00    -0.532 OA
ATOM     26  OAS 9HK d   1       0.966  10.886  13.473  0.00  0.00    -0.532 OA
ENDBRANCH  18  24
ENDBRANCH  11  14
ENDBRANCH   1  11
BRANCH   4  27
ATOM     27  SAN 9HK d   1      -6.067   2.672  16.782  0.00  0.00     0.256 S 
ATOM     28  OAO 9HK d   1      -5.480   2.825  18.143  0.00  0.00    -0.201 OA
ATOM     29  OAP 9HK d   1      -7.525   2.711  16.698  0.00  0.00    -0.201 OA
BRANCH  27  30
ATOM     30  NAQ 9HK d   1      -5.499   1.384  16.069  0.00  0.00    -0.324 N 
ATOM     31  H9  9HK d   1      -5.709   0.477  16.434  0.00  0.00     0.169 HD
ATOM     32  H10 9HK d   1      -4.929   1.475  15.253  0.00  0.00     0.169 HD
ENDBRANCH  27  30
ENDBRANCH   4  27
TORSDOF 5
