REMARK  7 active torsions:
REMARK  status: ('A' for Active; 'I' for Inactive)
REMARK    1  A    between atoms: CAJ_3  and  SAM_4 
REMARK    2  A    between atoms: SAM_4  and  NAP_7 
REMARK    3  A    between atoms: CAG_10  and  NAF_11 
REMARK       I    between atoms: NAF_11  and  C_12 
REMARK    4  A    between atoms: C_12  and  CA_14 
REMARK    5  A    between atoms: CA_14  and  N_15 
REMARK    6  A    between atoms: N_15  and  CAA_16 
REMARK    7  A    between atoms: N_15  and  CAQ_17 
ROOT
ATOM      1  NAF 9DH d   1      -3.548   7.054  13.728  0.00  0.00    -0.326 N 
ATOM      2  C   9DH d   1      -4.074   7.829  12.787  0.00  0.00     0.239 C 
ATOM      3  O   9DH d   1      -5.277   7.881  12.558  0.00  0.00    -0.271 OA
ATOM      4  H7  9DH d   1      -2.582   7.183  13.954  0.00  0.00     0.169 HD
ENDROOT
BRANCH   2   5
ATOM      5  CA  9DH d   1      -3.130   8.797  12.019  0.00  0.00     0.069 C 
ATOM      6  H8  9DH d   1      -3.464   9.819  12.252  0.00  0.00     0.078 H 
ATOM      7  H9  9DH d   1      -3.275   8.599  10.947  0.00  0.00     0.078 H 
BRANCH   5   8
ATOM      8  N   9DH d   1      -1.640   8.755  12.274  0.00  0.00    -0.376 N 
BRANCH   8   9
ATOM      9  CAA 9DH d   1      -0.752   7.919  11.430  0.00  0.00    -0.018 C 
ATOM     10  H10 9DH d   1       0.287   8.025  11.774  0.00  0.00     0.056 H 
ATOM     11  H11 9DH d   1      -0.827   8.247  10.383  0.00  0.00     0.056 H 
ATOM     12  H12 9DH d   1      -1.058   6.865  11.507  0.00  0.00     0.056 H 
ENDBRANCH   8   9
BRANCH   8  13
ATOM     13  CAQ 9DH d   1      -1.033   9.605  13.129  0.00  0.00     0.030 A 
ATOM     14  CAR 9DH d   1       0.223  10.217  12.904  0.00  0.00    -0.057 A 
ATOM     15  CAS 9DH d   1       0.753  11.107  13.838  0.00  0.00    -0.081 A 
ATOM     16  H13 9DH d   1       0.777   9.993  12.000  0.00  0.00     0.086 H 
ATOM     17  CAT 9DH d   1       0.052  11.419  15.002  0.00  0.00    -0.083 A 
ATOM     18  H14 9DH d   1       1.720  11.561  13.657  0.00  0.00     0.083 H 
ATOM     19  CAU 9DH d   1      -1.178  10.811  15.236  0.00  0.00    -0.081 A 
ATOM     20  H15 9DH d   1       0.460  12.126  15.716  0.00  0.00     0.083 H 
ATOM     21  CAV 9DH d   1      -1.700   9.930  14.317  0.00  0.00    -0.057 A 
ATOM     22  H16 9DH d   1      -1.726  11.032  16.145  0.00  0.00     0.083 H 
ATOM     23  H17 9DH d   1      -2.661   9.471  14.520  0.00  0.00     0.086 H 
ENDBRANCH   8  13
ENDBRANCH   5   8
ENDBRANCH   2   5
BRANCH   1  24
ATOM     24  CAG 9DH d   1      -4.242   6.089  14.410  0.00  0.00     0.034 A 
ATOM     25  CAH 9DH d   1      -5.622   6.036  14.695  0.00  0.00    -0.056 A 
ATOM     26  CAI 9DH d   1      -6.126   4.949  15.438  0.00  0.00    -0.058 A 
ATOM     27  H1  9DH d   1      -6.286   6.820  14.348  0.00  0.00     0.087 H 
ATOM     28  CAJ 9DH d   1      -5.293   3.949  15.914  0.00  0.00     0.079 A 
ATOM     29  H2  9DH d   1      -7.189   4.894  15.642  0.00  0.00     0.086 H 
ATOM     30  CAK 9DH d   1      -3.921   4.039  15.624  0.00  0.00    -0.058 A 
ATOM     31  CAL 9DH d   1      -3.417   5.107  14.890  0.00  0.00    -0.056 A 
ATOM     32  H5  9DH d   1      -3.247   3.267  15.977  0.00  0.00     0.086 H 
ATOM     33  H6  9DH d   1      -2.352   5.163  14.694  0.00  0.00     0.087 H 
BRANCH  28  34
ATOM     34  SAM 9DH d   1      -5.887   2.566  16.792  0.00  0.00     0.256 S 
ATOM     35  OAN 9DH d   1      -5.366   2.660  18.149  0.00  0.00    -0.201 OA
ATOM     36  OAO 9DH d   1      -7.360   2.641  16.661  0.00  0.00    -0.201 OA
BRANCH  34  37
ATOM     37  NAP 9DH d   1      -5.313   1.295  16.111  0.00  0.00    -0.324 N 
ATOM     38  H3  9DH d   1      -5.540   0.390  16.470  0.00  0.00     0.169 HD
ATOM     39  H4  9DH d   1      -4.716   1.381  15.313  0.00  0.00     0.169 HD
ENDBRANCH  34  37
ENDBRANCH  28  34
ENDBRANCH   1  24
TORSDOF 7
