REMARK  7 active torsions:
REMARK  status: ('A' for Active; 'I' for Inactive)
REMARK    1  A    between atoms: S2_2  and  N4_4 
REMARK    2  A    between atoms: S2_2  and  C2_5 
REMARK    3  A    between atoms: C5_9  and  N_11 
REMARK       I    between atoms: N_11  and  C6_12 
REMARK    4  A    between atoms: C6_12  and  C7_14 
REMARK    5  A    between atoms: C7_14  and  S_15 
REMARK    6  A    between atoms: S_15  and  C8_16 
REMARK    7  A    between atoms: C9_19  and  N3_21 
ROOT
ATOM      1  C2  RA9 d   1      -5.530   3.939  15.945  0.00  0.00     0.079 A 
ATOM      2  C1  RA9 d   1      -4.187   4.114  15.578  0.00  0.00    -0.058 A 
ATOM      3  C3  RA9 d   1      -6.417   4.961  15.526  0.00  0.00    -0.058 A 
ATOM      4  C4  RA9 d   1      -6.009   6.078  14.807  0.00  0.00    -0.056 A 
ATOM      5  C5  RA9 d   1      -4.677   6.234  14.440  0.00  0.00     0.034 A 
ATOM      6  C   RA9 d   1      -3.765   5.258  14.850  0.00  0.00    -0.056 A 
ATOM      7  H3  RA9 d   1      -3.458   3.362  15.855  0.00  0.00     0.086 H 
ATOM      8  H4  RA9 d   1      -7.467   4.867  15.779  0.00  0.00     0.086 H 
ATOM      9  H5  RA9 d   1      -6.735   6.834  14.530  0.00  0.00     0.087 H 
ATOM     10  H6  RA9 d   1      -2.715   5.376  14.608  0.00  0.00     0.087 H 
ENDROOT
BRANCH   5  11
ATOM     11  N   RA9 d   1      -4.241   7.350  13.752  0.00  0.00    -0.327 N 
ATOM     12  C6  RA9 d   1      -2.941   7.737  13.522  0.00  0.00     0.231 C 
ATOM     13  O   RA9 d   1      -1.884   7.186  13.806  0.00  0.00    -0.272 OA
ATOM     14  H7  RA9 d   1      -4.952   7.945  13.378  0.00  0.00     0.169 HD
BRANCH  12  15
ATOM     15  C7  RA9 d   1      -2.674   9.069  12.872  0.00  0.00     0.057 C 
ATOM     16  H8  RA9 d   1      -3.596   9.669  12.846  0.00  0.00     0.064 H 
ATOM     17  H9  RA9 d   1      -2.303   8.922  11.847  0.00  0.00     0.064 H 
BRANCH  15  18
ATOM     18  S   RA9 d   1      -1.444   9.884  13.854  0.00  0.00    -0.092 SA
BRANCH  18  19
ATOM     19  C8  RA9 d   1      -1.653  11.535  13.368  0.00  0.00     0.160 A 
ATOM     20  N1  RA9 d   1      -2.395  11.869  12.293  0.00  0.00    -0.133 NA
ATOM     21  N2  RA9 d   1      -2.386  13.275  12.146  0.00  0.00    -0.123 NA
ATOM     22  C9  RA9 d   1      -1.635  13.821  13.130  0.00  0.00     0.188 A 
ATOM     23  S1  RA9 d   1      -0.883  12.776  14.294  0.00  0.00    -0.022 SA
BRANCH  22  24
ATOM     24  N3  RA9 d   1      -1.461  15.161  13.213  0.00  0.00    -0.377 N 
ATOM     25  H10 RA9 d   1      -1.907  15.782  12.523  0.00  0.00     0.158 HD
ATOM     26  H11 RA9 d   1      -0.883  15.560  13.966  0.00  0.00     0.158 HD
ENDBRANCH  22  24
ENDBRANCH  18  19
ENDBRANCH  15  18
ENDBRANCH  12  15
ENDBRANCH   5  11
BRANCH   1  27
ATOM     27  S2  RA9 d   1      -6.069   2.593  16.797  0.00  0.00     0.256 S 
ATOM     28  O2  RA9 d   1      -7.509   2.637  16.708  0.00  0.00    -0.201 OA
ATOM     29  O1  RA9 d   1      -5.496   2.707  18.140  0.00  0.00    -0.201 OA
BRANCH  27  30
ATOM     30  N4  RA9 d   1      -5.509   1.282  16.057  0.00  0.00    -0.324 N 
ATOM     31  H1  RA9 d   1      -5.809   1.066  15.128  0.00  0.00     0.169 HD
ATOM     32  H2  RA9 d   1      -4.860   0.682  16.525  0.00  0.00     0.169 HD
ENDBRANCH  27  30
ENDBRANCH   1  27
TORSDOF 7
