REMARK  8 active torsions:
REMARK  status: ('A' for Active; 'I' for Inactive)
REMARK    1  A    between atoms: C6_3  and  C26_23 
REMARK    2  A    between atoms: C10_7  and  C11_4 
REMARK    3  A    between atoms: C12_8  and  C7_5 
REMARK       I    between atoms: N14_21  and  C12_8 
REMARK    4  A    between atoms: S22_11  and  N25_13 
REMARK    5  A    between atoms: C19_14  and  S22_11 
REMARK    6  A    between atoms: C15_20  and  C16_19 
REMARK    7  A    between atoms: C15_20  and  N14_21 
REMARK    8  A    between atoms: C2_25  and  C1_26 
ROOT
ATOM      1  C4  9E5 d   1       2.165  11.133  13.082  0.00  0.00    -0.069 A 
ATOM      2  C5  9E5 d   1       1.021  10.346  13.195  0.00  0.00     0.007 A 
ATOM      3  C6  9E5 d   1      -0.124  10.385  14.000  0.00  0.00    -0.009 A 
ATOM      4  C7  9E5 d   1      -0.890   9.306  13.610  0.00  0.00     0.150 A 
ATOM      5  C9  9E5 d   1       0.846   9.230  12.383  0.00  0.00     0.093 A 
ATOM      6  C10 9E5 d   1       1.783   8.858  11.419  0.00  0.00    -0.021 A 
ATOM      7  C3  9E5 d   1       3.116  10.768  12.128  0.00  0.00    -0.076 A 
ATOM      8  O8  9E5 d   1      -0.289   8.593  12.624  0.00  0.00    -0.303 OA
ATOM      9  C2  9E5 d   1       2.941   9.643  11.300  0.00  0.00    -0.053 A 
ATOM     10  H1  9E5 d   1       2.312  12.001  13.715  0.00  0.00     0.085 H 
ATOM     11  H5  9E5 d   1       4.013  11.367  12.022  0.00  0.00     0.084 H 
ENDROOT
BRANCH   4  12
ATOM     12  C12 9E5 d   1      -2.200   8.860  14.092  0.00  0.00     0.276 C 
ATOM     13  N14 9E5 d   1      -2.784   7.847  13.452  0.00  0.00    -0.351 N 
ATOM     14  H14 9E5 d   1      -2.278   7.302  12.783  0.00  0.00     0.163 HD
ATOM     15  O13 9E5 d   1      -2.735   9.477  15.008  0.00  0.00    -0.265 OA
BRANCH  13  16
ATOM     16  C15 9E5 d   1      -4.162   7.558  13.749  0.00  0.00     0.019 C 
ATOM     17  H12 9E5 d   1      -4.567   8.405  14.322  0.00  0.00     0.071 H 
ATOM     18  H13 9E5 d   1      -4.700   7.470  12.794  0.00  0.00     0.071 H 
BRANCH  16  19
ATOM     19  C16 9E5 d   1      -4.421   6.301  14.541  0.00  0.00    -0.040 A 
ATOM     20  C17 9E5 d   1      -5.756   6.128  14.839  0.00  0.00    -0.074 A 
ATOM     21  C18 9E5 d   1      -6.200   5.014  15.531  0.00  0.00    -0.060 A 
ATOM     22  H9  9E5 d   1      -6.472   6.879  14.525  0.00  0.00     0.084 H 
ATOM     23  C19 9E5 d   1      -5.341   3.979  15.958  0.00  0.00     0.079 A 
ATOM     24  H8  9E5 d   1      -7.257   4.933  15.755  0.00  0.00     0.085 H 
ATOM     25  C20 9E5 d   1      -3.973   4.169  15.671  0.00  0.00    -0.060 A 
ATOM     26  C21 9E5 d   1      -3.523   5.305  14.972  0.00  0.00    -0.074 A 
ATOM     27  H10 9E5 d   1      -3.254   3.425  15.995  0.00  0.00     0.085 H 
ATOM     28  H11 9E5 d   1      -2.465   5.415  14.761  0.00  0.00     0.084 H 
BRANCH  23  29
ATOM     29  S22 9E5 d   1      -5.916   2.629  16.802  0.00  0.00     0.256 S 
ATOM     30  O24 9E5 d   1      -7.351   2.690  16.688  0.00  0.00    -0.201 OA
ATOM     31  O23 9E5 d   1      -5.360   2.757  18.114  0.00  0.00    -0.201 OA
BRANCH  29  32
ATOM     32  N25 9E5 d   1      -5.343   1.318  16.100  0.00  0.00    -0.324 N 
ATOM     33  H6  9E5 d   1      -5.633   1.080  15.173  0.00  0.00     0.169 HD
ATOM     34  H7  9E5 d   1      -4.694   0.733  16.587  0.00  0.00     0.169 HD
ENDBRANCH  29  32
ENDBRANCH  23  29
ENDBRANCH  16  19
ENDBRANCH  13  16
ENDBRANCH   4  12
BRANCH   3  35
ATOM     35  C26 9E5 d   1      -0.339  11.459  15.031  0.00  0.00    -0.048 C 
ATOM     36  H15 9E5 d   1       0.522  12.144  15.032  0.00  0.00     0.033 H 
ATOM     37  H16 9E5 d   1      -0.442  10.998  16.024  0.00  0.00     0.033 H 
ATOM     38  H17 9E5 d   1      -1.254  12.021  14.790  0.00  0.00     0.033 H 
ENDBRANCH   3  35
BRANCH   6  39
ATOM     39  C11 9E5 d   1       1.535   7.634  10.567  0.00  0.00    -0.048 C 
ATOM     40  H2  9E5 d   1       0.568   7.187  10.840  0.00  0.00     0.033 H 
ATOM     41  H3  9E5 d   1       2.338   6.901  10.735  0.00  0.00     0.033 H 
ATOM     42  H4  9E5 d   1       1.519   7.923   9.506  0.00  0.00     0.033 H 
ENDBRANCH   6  39
BRANCH   9  43
ATOM     43  C1  9E5 d   1       4.043   9.346  10.304  0.00  0.00    -0.051 C 
ATOM     44  H18 9E5 d   1       3.782   8.448   9.725  0.00  0.00     0.033 H 
ATOM     45  H19 9E5 d   1       4.987   9.174  10.842  0.00  0.00     0.033 H 
ATOM     46  H20 9E5 d   1       4.160  10.201   9.621  0.00  0.00     0.033 H 
ENDBRANCH   9  43
TORSDOF 8
