REMARK  6 active torsions:
REMARK  status: ('A' for Active; 'I' for Inactive)
REMARK    1  A    between atoms: S_21  and  N1_1 
REMARK    2  A    between atoms: C1_2  and  S_21 
REMARK    3  A    between atoms: C_9  and  C4_5 
REMARK    4  A    between atoms: C7_8  and  C_9 
REMARK    5  A    between atoms: N7_20  and  C7_8 
REMARK       I    between atoms: N8_18  and  C8_10 
REMARK       I    between atoms: C8_10  and  N7_20 
REMARK    6  A    between atoms: C12_13  and  N8_18 
ROOT
ATOM      1  C7  9E8 d   1      -2.901   7.555  13.000  0.00  0.00     0.000 C 
ATOM      2  H7  9E8 d   1      -3.083   7.011  12.061  0.00  0.00     0.064 H 
ATOM      3  H8  9E8 d   1      -2.024   7.127  13.508  0.00  0.00     0.064 H 
ENDROOT
BRANCH   1   4
ATOM      4  C   9E8 d   1      -4.133   7.520  13.904  0.00  0.00    -0.026 C 
ATOM      5  H9  9E8 d   1      -3.973   8.280  14.683  0.00  0.00     0.042 H 
ATOM      6  H10 9E8 d   1      -4.990   7.811  13.279  0.00  0.00     0.042 H 
BRANCH   4   7
ATOM      7  C4  9E8 d   1      -4.523   6.264  14.606  0.00  0.00    -0.057 A 
ATOM      8  C3  9E8 d   1      -3.622   5.253  14.925  0.00  0.00    -0.075 A 
ATOM      9  C2  9E8 d   1      -4.113   4.122  15.598  0.00  0.00    -0.060 A 
ATOM     10  H4  9E8 d   1      -2.574   5.335  14.662  0.00  0.00     0.084 H 
ATOM     11  C1  9E8 d   1      -5.471   3.958  15.949  0.00  0.00     0.079 A 
ATOM     12  H3  9E8 d   1      -3.415   3.336  15.861  0.00  0.00     0.085 H 
ATOM     13  C6  9E8 d   1      -6.315   5.047  15.641  0.00  0.00    -0.060 A 
ATOM     14  C5  9E8 d   1      -5.859   6.171  14.971  0.00  0.00    -0.075 A 
ATOM     15  H6  9E8 d   1      -7.356   5.002  15.939  0.00  0.00     0.085 H 
ATOM     16  H5  9E8 d   1      -6.544   6.976  14.732  0.00  0.00     0.084 H 
BRANCH  11  17
ATOM     17  S   9E8 d   1      -6.040   2.625  16.822  0.00  0.00     0.256 S 
ATOM     18  O1  9E8 d   1      -5.487   2.711  18.146  0.00  0.00    -0.201 OA
ATOM     19  O2  9E8 d   1      -7.472   2.645  16.705  0.00  0.00    -0.201 OA
BRANCH  17  20
ATOM     20  N1  9E8 d   1      -5.428   1.288  16.100  0.00  0.00    -0.324 N 
ATOM     21  H1  9E8 d   1      -5.644   0.381  16.462  0.00  0.00     0.169 HD
ATOM     22  H2  9E8 d   1      -4.839   1.379  15.297  0.00  0.00     0.169 HD
ENDBRANCH  17  20
ENDBRANCH  11  17
ENDBRANCH   4   7
ENDBRANCH   1   4
BRANCH   1  23
ATOM     23  N7  9E8 d   1      -2.722   8.984  12.755  0.00  0.00    -0.343 N 
ATOM     24  C8  9E8 d   1      -1.812   9.749  13.460  0.00  0.00     0.320 C 
ATOM     25  O8  9E8 d   1      -0.921   9.162  14.152  0.00  0.00    -0.247 OA
ATOM     26  N8  9E8 d   1      -1.843  11.164  13.406  0.00  0.00    -0.309 N 
ATOM     27  H15 9E8 d   1      -2.676  11.589  13.052  0.00  0.00     0.170 HD
ATOM     28  H16 9E8 d   1      -3.279   9.425  12.051  0.00  0.00     0.164 HD
BRANCH  26  29
ATOM     29  C12 9E8 d   1      -0.789  12.035  13.813  0.00  0.00     0.036 A 
ATOM     30  C11 9E8 d   1      -0.819  13.386  13.362  0.00  0.00    -0.056 A 
ATOM     31  C10 9E8 d   1       0.219  14.263  13.702  0.00  0.00    -0.060 A 
ATOM     32  H12 9E8 d   1      -1.646  13.736  12.755  0.00  0.00     0.087 H 
ATOM     33  C13 9E8 d   1       1.313  13.810  14.482  0.00  0.00     0.034 A 
ATOM     34  H11 9E8 d   1       0.186  15.293  13.367  0.00  0.00     0.086 H 
ATOM     35  C15 9E8 d   1       1.365  12.483  14.922  0.00  0.00    -0.060 A 
ATOM     36 CL1  9E8 d   1       2.602  14.847  14.915  0.00  0.00    -0.084 Cl
ATOM     37  C14 9E8 d   1       0.334  11.614  14.585  0.00  0.00    -0.056 A 
ATOM     38  H14 9E8 d   1       2.200  12.136  15.519  0.00  0.00     0.086 H 
ATOM     39  H13 9E8 d   1       0.385  10.584  14.919  0.00  0.00     0.087 H 
ENDBRANCH  26  29
ENDBRANCH   1  23
TORSDOF 6
