REMARK  2 active torsions:
REMARK  status: ('A' for Active; 'I' for Inactive)
REMARK    1  A    between atoms: C04_4  and  S07_7 
REMARK    2  A    between atoms: S07_7  and  NP0_10 
ROOT
ATOM      1  C01 FB2 d   1      -4.483   6.374  14.779  0.00  0.00    -0.083 A 
ATOM      2  C02 FB2 d   1      -5.846   6.242  15.090  0.00  0.00    -0.082 A 
ATOM      3  C03 FB2 d   1      -6.306   5.098  15.721  0.00  0.00    -0.060 A 
ATOM      4  C04 FB2 d   1      -5.428   4.075  16.053  0.00  0.00     0.079 A 
ATOM      5  C05 FB2 d   1      -4.041   4.187  15.747  0.00  0.00    -0.060 A 
ATOM      6  C06 FB2 d   1      -3.599   5.357  15.117  0.00  0.00    -0.082 A 
ATOM      7  H1  FB2 d   1      -4.122   7.265  14.278  0.00  0.00     0.083 H 
ATOM      8  H2  FB2 d   1      -6.539   7.036  14.836  0.00  0.00     0.083 H 
ATOM      9  H3  FB2 d   1      -7.359   5.001  15.957  0.00  0.00     0.085 H 
ATOM     10  H4  FB2 d   1      -3.349   3.390  15.994  0.00  0.00     0.085 H 
ATOM     11  H5  FB2 d   1      -2.546   5.471  14.888  0.00  0.00     0.083 H 
ENDROOT
BRANCH   4  12
ATOM     12  S07 FB2 d   1      -5.986   2.606  16.849  0.00  0.00     0.256 S 
ATOM     13  O09 FB2 d   1      -5.429   2.672  18.199  0.00  0.00    -0.201 OA
ATOM     14  O08 FB2 d   1      -7.434   2.649  16.710  0.00  0.00    -0.201 OA
BRANCH  12  15
ATOM     15  NP0 FB2 d   1      -5.386   1.342  16.042  0.00  0.00    -0.324 N 
ATOM     16  H6  FB2 d   1      -5.593   0.412  16.344  0.00  0.00     0.169 HD
ATOM     17  H7  FB2 d   1      -4.807   1.490  15.240  0.00  0.00     0.169 HD
ENDBRANCH  12  15
ENDBRANCH   4  12
TORSDOF 2
