REMARK  6 active torsions:
REMARK  status: ('A' for Active; 'I' for Inactive)
REMARK       I    between atoms: N2_16  and  C1_1 
REMARK    1  A    between atoms: C1_1  and  C4_18 
REMARK    2  A    between atoms: C7_2  and  O8_21 
REMARK    3  A    between atoms: C11_5  and  C14_6 
REMARK       I    between atoms: C14_6  and  N15_24 
REMARK    4  A    between atoms: C21_9  and  N2_16 
REMARK    5  A    between atoms: N2_16  and  C27_12 
REMARK    6  A    between atoms: C23_28  and  N28_31 
ROOT
ATOM      1  C1  9EK d   1      -0.162  33.711  21.793  0.00  0.00     0.260 C 
ATOM      2  N2  9EK d   1       0.469  34.906  21.652  0.00  0.00    -0.318 N 
ATOM      3  O3  9EK d   1      -0.798  33.215  20.895  0.00  0.00    -0.267 OA
ENDROOT
BRANCH   1   4
ATOM      4  C4  9EK d   1      -0.099  33.020  23.124  0.00  0.00     0.066 A 
ATOM      5  C7  9EK d   1      -1.296  32.664  23.775  0.00  0.00     0.083 A 
ATOM      6  C6  9EK d   1      -1.278  32.058  25.021  0.00  0.00    -0.020 A 
ATOM      7  C9  9EK d   1      -0.050  31.807  25.615  0.00  0.00     0.092 A 
ATOM      8  H17 9EK d   1      -2.201  31.787  25.520  0.00  0.00     0.091 H 
ATOM      9  C10 9EK d   1       1.158  32.135  24.981  0.00  0.00     0.029 A 
ATOM     10  N13 9EK d   1       0.284  31.284  26.816  0.00  0.00    -0.173 NA
ATOM     11  C11 9EK d   1       2.213  31.770  25.908  0.00  0.00     0.130 A 
ATOM     12  C5  9EK d   1       1.123  32.736  23.730  0.00  0.00    -0.050 A 
ATOM     13  N12 9EK d   1       1.623  31.252  26.993  0.00  0.00    -0.271 N 
ATOM     14  H19 9EK d   1       2.110  30.889  27.825  0.00  0.00     0.189 HD
ATOM     15  H16 9EK d   1       2.049  32.985  23.224  0.00  0.00     0.086 H 
BRANCH   5  16
ATOM     16  O8  9EK d   1      -2.484  32.900  23.181  0.00  0.00    -0.360 OA
ATOM     17  H18 9EK d   1      -2.339  33.316  22.340  0.00  0.00     0.217 HD
ENDBRANCH   5  16
BRANCH  11  18
ATOM     18  C14 9EK d   1       3.672  32.049  25.696  0.00  0.00     0.272 C 
ATOM     19  N15 9EK d   1       4.401  31.215  24.944  0.00  0.00    -0.347 N 
ATOM     20  C16 9EK d   1       5.819  31.403  24.635  0.00  0.00    -0.002 C 
ATOM     21  C19 9EK d   1       3.889  29.985  24.345  0.00  0.00    -0.002 C 
ATOM     22  C17 9EK d   1       6.242  30.061  24.100  0.00  0.00    -0.049 C 
ATOM     23  H1  9EK d   1       6.388  31.663  25.540  0.00  0.00     0.064 H 
ATOM     24  H2  9EK d   1       5.956  32.189  23.878  0.00  0.00     0.064 H 
ATOM     25  C18 9EK d   1       5.047  29.469  23.532  0.00  0.00    -0.049 C 
ATOM     26  H20 9EK d   1       6.633  29.431  24.912  0.00  0.00     0.035 H 
ATOM     27  H21 9EK d   1       7.014  30.183  23.326  0.00  0.00     0.035 H 
ATOM     28  H22 9EK d   1       4.937  29.770  22.480  0.00  0.00     0.035 H 
ATOM     29  H23 9EK d   1       5.098  28.372  23.597  0.00  0.00     0.035 H 
ATOM     30  H3  9EK d   1       3.022  30.195  23.702  0.00  0.00     0.064 H 
ATOM     31  H4  9EK d   1       3.603  29.261  25.122  0.00  0.00     0.064 H 
ATOM     32  O20 9EK d   1       4.138  33.020  26.243  0.00  0.00    -0.266 OA
ENDBRANCH  11  18
ENDBRANCH   1   4
BRANCH   2  33
ATOM     33  C21 9EK d   1       1.217  35.570  22.679  0.00  0.00     0.037 A 
ATOM     34  C22 9EK d   1       2.566  35.792  22.520  0.00  0.00    -0.055 A 
ATOM     35  C25 9EK d   1       3.271  36.510  23.463  0.00  0.00    -0.055 A 
ATOM     36  H5  9EK d   1       3.077  35.400  21.648  0.00  0.00     0.087 H 
ATOM     37  C23 9EK d   1       2.644  37.015  24.593  0.00  0.00     0.030 A 
ATOM     38  H24 9EK d   1       4.332  36.682  23.319  0.00  0.00     0.087 H 
ATOM     39  C24 9EK d   1       1.283  36.785  24.747  0.00  0.00    -0.055 A 
ATOM     40  C26 9EK d   1       0.579  36.067  23.799  0.00  0.00    -0.055 A 
ATOM     41  H6  9EK d   1       0.768  37.172  25.619  0.00  0.00     0.087 H 
ATOM     42  H25 9EK d   1      -0.482  35.892  23.935  0.00  0.00     0.087 H 
BRANCH  37  43
ATOM     43  N28 9EK d   1       3.380  37.694  25.562  0.00  0.00    -0.377 N 
ATOM     44  C33 9EK d   1       2.703  38.208  26.759  0.00  0.00     0.015 C 
ATOM     45  C32 9EK d   1       3.711  38.649  27.790  0.00  0.00     0.034 C 
ATOM     46  H14 9EK d   1       2.074  39.066  26.478  0.00  0.00     0.067 H 
ATOM     47  H15 9EK d   1       2.072  37.415  27.186  0.00  0.00     0.067 H 
ATOM     48  O31 9EK d   1       4.630  39.563  27.254  0.00  0.00    -0.388 OA
ATOM     49  H12 9EK d   1       4.257  37.767  28.156  0.00  0.00     0.076 H 
ATOM     50  H13 9EK d   1       3.180  39.126  28.627  0.00  0.00     0.076 H 
ATOM     51  C30 9EK d   1       5.369  38.971  26.205  0.00  0.00     0.034 C 
ATOM     52  C29 9EK d   1       4.465  38.545  25.063  0.00  0.00     0.015 C 
ATOM     53  H10 9EK d   1       6.102  39.699  25.828  0.00  0.00     0.076 H 
ATOM     54  H11 9EK d   1       5.896  38.087  26.593  0.00  0.00     0.076 H 
ATOM     55  H26 9EK d   1       5.055  37.984  24.323  0.00  0.00     0.067 H 
ATOM     56  H27 9EK d   1       4.035  39.439  24.588  0.00  0.00     0.067 H 
ENDBRANCH  37  43
ENDBRANCH   2  33
BRANCH   2  57
ATOM     57  C27 9EK d   1       0.396  35.585  20.368  0.00  0.00    -0.011 C 
ATOM     58  H7  9EK d   1      -0.200  34.982  19.668  0.00  0.00     0.057 H 
ATOM     59  H8  9EK d   1       1.411  35.718  19.965  0.00  0.00     0.057 H 
ATOM     60  H9  9EK d   1      -0.078  36.569  20.500  0.00  0.00     0.057 H 
ENDBRANCH   2  57
TORSDOF 6
