REMARK  10 active torsions:
REMARK  status: ('A' for Active; 'I' for Inactive)
REMARK    1  A    between atoms: C1_1  and  C2_4 
REMARK    2  A    between atoms: C4_6  and  N4_20 
REMARK    3  A    between atoms: C5_7  and  N5_8 
REMARK       I    between atoms: N5_8  and  C10_9 
REMARK    4  A    between atoms: C10_9  and  C11_11 
REMARK    5  A    between atoms: C6_12  and  O7_14 
REMARK    6  A    between atoms: O7_14  and  C8_15 
REMARK    7  A    between atoms: C8_15  and  C9_16 
REMARK    8  A    between atoms: C8_15  and  C81_17 
REMARK    9  A    between atoms: C9_16  and  C91_19 
REMARK   10  A    between atoms: C81_17  and  C82_18 
ROOT
ATOM      1  C2  G39 d   1     -29.893 -55.561  22.634  0.00  0.00     0.019 C 
ATOM      2  C3  G39 d   1     -31.381 -55.365  22.392  0.00  0.00    -0.006 C 
ATOM      3  C4  G39 d   1     -31.615 -54.230  21.388  0.00  0.00     0.126 C 
ATOM      4  C5  G39 d   1     -30.711 -54.339  20.180  0.00  0.00     0.068 C 
ATOM      5  C6  G39 d   1     -29.296 -54.127  20.660  0.00  0.00     0.077 C 
ATOM      6  C7  G39 d   1     -28.973 -55.044  21.810  0.00  0.00    -0.061 C 
ATOM      7  H1  G39 d   1     -31.873 -55.114  23.343  0.00  0.00     0.043 H 
ATOM      8  H2  G39 d   1     -31.809 -56.296  21.992  0.00  0.00     0.043 H 
ATOM      9  H3  G39 d   1     -31.411 -53.268  21.882  0.00  0.00     0.087 H 
ATOM     10  H4  G39 d   1     -30.828 -55.312  19.681  0.00  0.00     0.080 H 
ATOM     11  H9  G39 d   1     -29.191 -53.082  20.988  0.00  0.00     0.093 H 
ATOM     12  H10 G39 d   1     -27.929 -55.302  21.982  0.00  0.00     0.082 H 
ENDROOT
BRANCH   5  13
ATOM     13  O7  G39 d   1     -28.347 -54.392  19.614  0.00  0.00    -0.375 OA
BRANCH  13  14
ATOM     14  C8  G39 d   1     -27.703 -53.207  19.099  0.00  0.00     0.039 C 
ATOM     15  H11 G39 d   1     -28.475 -52.454  18.882  0.00  0.00     0.083 H 
BRANCH  14  16
ATOM     16  C9  G39 d   1     -26.740 -52.556  20.135  0.00  0.00    -0.044 C 
ATOM     17  H12 G39 d   1     -27.306 -52.335  21.052  0.00  0.00     0.036 H 
ATOM     18  H13 G39 d   1     -26.348 -51.619  19.712  0.00  0.00     0.036 H 
BRANCH  16  19
ATOM     19  C91 G39 d   1     -25.589 -53.441  20.485  0.00  0.00    -0.074 C 
ATOM     20  H19 G39 d   1     -24.945 -52.932  21.217  0.00  0.00     0.027 H 
ATOM     21  H20 G39 d   1     -25.008 -53.663  19.578  0.00  0.00     0.027 H 
ATOM     22  H21 G39 d   1     -25.966 -54.379  20.918  0.00  0.00     0.027 H 
ENDBRANCH  16  19
ENDBRANCH  14  16
BRANCH  14  23
ATOM     23  C81 G39 d   1     -27.097 -53.642  17.774  0.00  0.00    -0.044 C 
ATOM     24  H14 G39 d   1     -26.515 -54.564  17.919  0.00  0.00     0.036 H 
ATOM     25  H15 G39 d   1     -26.438 -52.849  17.391  0.00  0.00     0.036 H 
BRANCH  23  26
ATOM     26  C82 G39 d   1     -28.226 -53.899  16.775  0.00  0.00    -0.074 C 
ATOM     27  H16 G39 d   1     -27.799 -54.215  15.812  0.00  0.00     0.027 H 
ATOM     28  H17 G39 d   1     -28.807 -52.976  16.633  0.00  0.00     0.027 H 
ATOM     29  H18 G39 d   1     -28.884 -54.691  17.161  0.00  0.00     0.027 H 
ENDBRANCH  23  26
ENDBRANCH  14  23
ENDBRANCH  13  14
ENDBRANCH   5  13
BRANCH   4  30
ATOM     30  N5  G39 d   1     -31.016 -53.234  19.272  0.00  0.00    -0.352 N 
ATOM     31  C10 G39 d   1     -31.570 -53.375  18.068  0.00  0.00     0.214 C 
ATOM     32  O10 G39 d   1     -31.772 -54.461  17.574  0.00  0.00    -0.274 OA
ATOM     33  H5  G39 d   1     -30.793 -52.308  19.576  0.00  0.00     0.163 HD
BRANCH  31  34
ATOM     34  C11 G39 d   1     -31.854 -52.096  17.316  0.00  0.00    -0.003 C 
ATOM     35  H6  G39 d   1     -32.307 -52.336  16.343  0.00  0.00     0.040 H 
ATOM     36  H7  G39 d   1     -30.914 -51.547  17.157  0.00  0.00     0.040 H 
ATOM     37  H8  G39 d   1     -32.548 -51.473  17.900  0.00  0.00     0.040 H 
ENDBRANCH  31  34
ENDBRANCH   4  30
BRANCH   3  38
ATOM     38  N4  G39 d   1     -33.067 -54.284  20.993  0.00  0.00    -0.073 N 
ATOM     39  H22 G39 d   1     -33.642 -54.209  21.817  0.00  0.00     0.274 HD
ATOM     40  H23 G39 d   1     -33.257 -55.158  20.529  0.00  0.00     0.274 HD
ATOM     41  H24 G39 d   1     -33.274 -53.520  20.368  0.00  0.00     0.274 HD
ENDBRANCH   3  38
BRANCH   1  42
ATOM     42  C1  G39 d   1     -29.478 -56.281  23.824  0.00  0.00     0.205 C 
ATOM     43  O1A G39 d   1     -28.265 -56.342  24.129  0.00  0.00    -0.644 OA
ATOM     44  O1B G39 d   1     -30.330 -56.745  24.593  0.00  0.00    -0.644 OA
ENDBRANCH   1  42
TORSDOF 10
