REMARK  10 active torsions:
REMARK  status: ('A' for Active; 'I' for Inactive)
REMARK    1  A    between atoms: C1_1  and  C2_4 
REMARK    2  A    between atoms: C4_6  and  N4_20 
REMARK    3  A    between atoms: C5_7  and  N5_8 
REMARK       I    between atoms: N5_8  and  C10_9 
REMARK    4  A    between atoms: C10_9  and  C11_11 
REMARK    5  A    between atoms: C6_12  and  O7_14 
REMARK    6  A    between atoms: O7_14  and  C8_15 
REMARK    7  A    between atoms: C8_15  and  C9_16 
REMARK    8  A    between atoms: C8_15  and  C81_17 
REMARK    9  A    between atoms: C9_16  and  C91_19 
REMARK   10  A    between atoms: C81_17  and  C82_18 
ROOT
ATOM      1  C2  G39 d   1     -29.466 -55.255  22.970  0.00  0.00     0.019 C 
ATOM      2  C3  G39 d   1     -30.938 -55.059  22.693  0.00  0.00    -0.006 C 
ATOM      3  C4  G39 d   1     -31.185 -53.887  21.691  0.00  0.00     0.126 C 
ATOM      4  C5  G39 d   1     -30.231 -53.969  20.484  0.00  0.00     0.068 C 
ATOM      5  C6  G39 d   1     -28.809 -53.811  21.001  0.00  0.00     0.077 C 
ATOM      6  C7  G39 d   1     -28.506 -54.732  22.157  0.00  0.00    -0.061 C 
ATOM      7  H1  G39 d   1     -31.452 -54.834  23.639  0.00  0.00     0.043 H 
ATOM      8  H2  G39 d   1     -31.347 -55.986  22.265  0.00  0.00     0.043 H 
ATOM      9  H3  G39 d   1     -30.977 -52.941  22.213  0.00  0.00     0.087 H 
ATOM     10  H4  G39 d   1     -30.346 -54.938  19.976  0.00  0.00     0.080 H 
ATOM     11  H9  G39 d   1     -28.708 -52.777  21.363  0.00  0.00     0.093 H 
ATOM     12  H10 G39 d   1     -27.466 -54.992  22.352  0.00  0.00     0.082 H 
ENDROOT
BRANCH   5  13
ATOM     13  O7  G39 d   1     -27.839 -54.009  19.963  0.00  0.00    -0.375 OA
BRANCH  13  14
ATOM     14  C8  G39 d   1     -27.275 -52.744  19.520  0.00  0.00     0.039 C 
ATOM     15  H11 G39 d   1     -28.105 -52.059  19.292  0.00  0.00     0.083 H 
BRANCH  14  16
ATOM     16  C9  G39 d   1     -26.387 -52.058  20.586  0.00  0.00    -0.044 C 
ATOM     17  H12 G39 d   1     -27.003 -51.847  21.472  0.00  0.00     0.036 H 
ATOM     18  H13 G39 d   1     -26.006 -51.113  20.170  0.00  0.00     0.036 H 
BRANCH  16  19
ATOM     19  C91 G39 d   1     -25.218 -52.901  21.006  0.00  0.00    -0.074 C 
ATOM     20  H19 G39 d   1     -24.629 -52.361  21.761  0.00  0.00     0.027 H 
ATOM     21  H20 G39 d   1     -24.586 -53.113  20.131  0.00  0.00     0.027 H 
ATOM     22  H21 G39 d   1     -25.583 -53.847  21.433  0.00  0.00     0.027 H 
ENDBRANCH  16  19
ENDBRANCH  14  16
BRANCH  14  23
ATOM     23  C81 G39 d   1     -26.508 -53.012  18.247  0.00  0.00    -0.044 C 
ATOM     24  H14 G39 d   1     -25.772 -53.809  18.427  0.00  0.00     0.036 H 
ATOM     25  H15 G39 d   1     -25.987 -52.094  17.937  0.00  0.00     0.036 H 
BRANCH  23  26
ATOM     26  C82 G39 d   1     -27.446 -53.441  17.159  0.00  0.00    -0.074 C 
ATOM     27  H16 G39 d   1     -26.876 -53.633  16.238  0.00  0.00     0.027 H 
ATOM     28  H17 G39 d   1     -28.183 -52.645  16.975  0.00  0.00     0.027 H 
ATOM     29  H18 G39 d   1     -27.968 -54.360  17.466  0.00  0.00     0.027 H 
ENDBRANCH  23  26
ENDBRANCH  14  23
ENDBRANCH  13  14
ENDBRANCH   5  13
BRANCH   4  30
ATOM     30  N5  G39 d   1     -30.522 -52.877  19.550  0.00  0.00    -0.352 N 
ATOM     31  C10 G39 d   1     -31.033 -53.009  18.318  0.00  0.00     0.214 C 
ATOM     32  O10 G39 d   1     -31.162 -54.096  17.777  0.00  0.00    -0.274 OA
ATOM     33  H5  G39 d   1     -30.321 -51.948  19.861  0.00  0.00     0.163 HD
BRANCH  31  34
ATOM     34  C11 G39 d   1     -31.329 -51.749  17.563  0.00  0.00    -0.003 C 
ATOM     35  H6  G39 d   1     -31.741 -52.002  16.575  0.00  0.00     0.040 H 
ATOM     36  H7  G39 d   1     -30.402 -51.171  17.437  0.00  0.00     0.040 H 
ATOM     37  H8  G39 d   1     -32.062 -51.150  18.123  0.00  0.00     0.040 H 
ENDBRANCH  31  34
ENDBRANCH   4  30
BRANCH   3  38
ATOM     38  N4  G39 d   1     -32.597 -53.879  21.288  0.00  0.00    -0.073 N 
ATOM     39  H22 G39 d   1     -33.180 -53.825  22.108  0.00  0.00     0.274 HD
ATOM     40  H23 G39 d   1     -32.807 -54.725  20.782  0.00  0.00     0.274 HD
ATOM     41  H24 G39 d   1     -32.773 -53.082  20.697  0.00  0.00     0.274 HD
ENDBRANCH   3  38
BRANCH   1  42
ATOM     42  C1  G39 d   1     -29.025 -55.907  24.201  0.00  0.00     0.205 C 
ATOM     43  O1A G39 d   1     -27.768 -55.968  24.419  0.00  0.00    -0.644 OA
ATOM     44  O1B G39 d   1     -29.899 -56.295  25.004  0.00  0.00    -0.644 OA
ENDBRANCH   1  42
TORSDOF 10
