REMARK  10 active torsions:
REMARK  status: ('A' for Active; 'I' for Inactive)
REMARK    1  A    between atoms: C1_1  and  C2_4 
REMARK    2  A    between atoms: C4_6  and  N4_20 
REMARK    3  A    between atoms: C5_7  and  N5_8 
REMARK       I    between atoms: N5_8  and  C10_9 
REMARK    4  A    between atoms: C10_9  and  C11_11 
REMARK    5  A    between atoms: C6_12  and  O7_14 
REMARK    6  A    between atoms: O7_14  and  C8_15 
REMARK    7  A    between atoms: C8_15  and  C9_16 
REMARK    8  A    between atoms: C8_15  and  C81_17 
REMARK    9  A    between atoms: C9_16  and  C91_19 
REMARK   10  A    between atoms: C81_17  and  C82_18 
ROOT
ATOM      1  C2  G39 d   1      43.138  -0.735  18.864  0.00  0.00     0.019 C 
ATOM      2  C3  G39 d   1      42.921   0.742  19.068  0.00  0.00    -0.006 C 
ATOM      3  C4  G39 d   1      42.594   1.117  20.515  0.00  0.00     0.126 C 
ATOM      4  C5  G39 d   1      43.575   0.412  21.459  0.00  0.00     0.068 C 
ATOM      5  C6  G39 d   1      43.561  -1.080  21.337  0.00  0.00     0.077 C 
ATOM      6  C7  G39 d   1      43.484  -1.542  19.889  0.00  0.00    -0.061 C 
ATOM      7  H1  G39 d   1      42.086   1.063  18.428  0.00  0.00     0.043 H 
ATOM      8  H2  G39 d   1      43.837   1.273  18.769  0.00  0.00     0.043 H 
ATOM      9  H3  G39 d   1      41.572   0.797  20.766  0.00  0.00     0.087 H 
ATOM     10  H4  G39 d   1      44.588   0.769  21.223  0.00  0.00     0.080 H 
ATOM     11  H9  G39 d   1      42.669  -1.460  21.857  0.00  0.00     0.093 H 
ATOM     12  H10 G39 d   1      43.721  -2.582  19.668  0.00  0.00     0.082 H 
ENDROOT
BRANCH   5  13
ATOM     13  O7  G39 d   1      44.733  -1.604  21.996  0.00  0.00    -0.375 OA
BRANCH  13  14
ATOM     14  C8  G39 d   1      44.344  -2.685  22.874  0.00  0.00     0.039 C 
ATOM     15  H11 G39 d   1      43.443  -2.369  23.420  0.00  0.00     0.083 H 
BRANCH  14  16
ATOM     16  C9  G39 d   1      43.998  -3.988  22.125  0.00  0.00    -0.044 C 
ATOM     17  H12 G39 d   1      43.100  -3.804  21.517  0.00  0.00     0.036 H 
ATOM     18  H13 G39 d   1      43.782  -4.765  22.873  0.00  0.00     0.036 H 
BRANCH  16  19
ATOM     19  C91 G39 d   1      45.088  -4.508  21.209  0.00  0.00    -0.074 C 
ATOM     20  H19 G39 d   1      44.748  -5.435  20.724  0.00  0.00     0.027 H 
ATOM     21  H20 G39 d   1      45.994  -4.714  21.797  0.00  0.00     0.027 H 
ATOM     22  H21 G39 d   1      45.313  -3.753  20.441  0.00  0.00     0.027 H 
ENDBRANCH  16  19
ENDBRANCH  14  16
BRANCH  14  23
ATOM     23  C81 G39 d   1      45.451  -2.916  23.875  0.00  0.00    -0.044 C 
ATOM     24  H14 G39 d   1      46.373  -3.164  23.329  0.00  0.00     0.036 H 
ATOM     25  H15 G39 d   1      45.170  -3.760  24.523  0.00  0.00     0.036 H 
BRANCH  23  26
ATOM     26  C82 G39 d   1      45.713  -1.702  24.745  0.00  0.00    -0.074 C 
ATOM     27  H16 G39 d   1      46.525  -1.926  25.452  0.00  0.00     0.027 H 
ATOM     28  H17 G39 d   1      44.800  -1.447  25.304  0.00  0.00     0.027 H 
ATOM     29  H18 G39 d   1      46.004  -0.852  24.110  0.00  0.00     0.027 H 
ENDBRANCH  23  26
ENDBRANCH  14  23
ENDBRANCH  13  14
ENDBRANCH   5  13
BRANCH   4  30
ATOM     30  N5  G39 d   1      43.262   0.747  22.834  0.00  0.00    -0.352 N 
ATOM     31  C10 G39 d   1      44.109   1.453  23.600  0.00  0.00     0.214 C 
ATOM     32  O10 G39 d   1      45.182   1.883  23.236  0.00  0.00    -0.274 OA
ATOM     33  H5  G39 d   1      42.392   0.444  23.223  0.00  0.00     0.163 HD
BRANCH  31  34
ATOM     34  C11 G39 d   1      43.611   1.769  25.016  0.00  0.00    -0.003 C 
ATOM     35  H6  G39 d   1      44.377   2.347  25.554  0.00  0.00     0.040 H 
ATOM     36  H7  G39 d   1      43.415   0.830  25.554  0.00  0.00     0.040 H 
ATOM     37  H8  G39 d   1      42.683   2.357  24.956  0.00  0.00     0.040 H 
ENDBRANCH  31  34
ENDBRANCH   4  30
BRANCH   3  38
ATOM     38  N4  G39 d   1      42.678   2.592  20.590  0.00  0.00    -0.073 N 
ATOM     39  H22 G39 d   1      42.014   2.999  19.951  0.00  0.00     0.274 HD
ATOM     40  H23 G39 d   1      43.609   2.889  20.341  0.00  0.00     0.274 HD
ATOM     41  H24 G39 d   1      42.469   2.893  21.529  0.00  0.00     0.274 HD
ENDBRANCH   3  38
BRANCH   1  42
ATOM     42  C1  G39 d   1      42.897  -1.281  17.514  0.00  0.00     0.205 C 
ATOM     43  O1A G39 d   1      42.626  -0.505  16.538  0.00  0.00    -0.644 OA
ATOM     44  O1B G39 d   1      42.935  -2.539  17.405  0.00  0.00    -0.644 OA
ENDBRANCH   1  42
TORSDOF 10
