REMARK  10 active torsions:
REMARK  status: ('A' for Active; 'I' for Inactive)
REMARK    1  A    between atoms: C1_1  and  C2_4 
REMARK    2  A    between atoms: C4_6  and  N4_20 
REMARK    3  A    between atoms: C5_7  and  N5_8 
REMARK       I    between atoms: N5_8  and  C10_9 
REMARK    4  A    between atoms: C10_9  and  C11_11 
REMARK    5  A    between atoms: C6_12  and  O7_14 
REMARK    6  A    between atoms: O7_14  and  C8_15 
REMARK    7  A    between atoms: C8_15  and  C9_16 
REMARK    8  A    between atoms: C8_15  and  C81_17 
REMARK    9  A    between atoms: C9_16  and  C91_19 
REMARK   10  A    between atoms: C81_17  and  C82_18 
ROOT
ATOM      1  C2  G39 d   1      43.243  -0.700  18.788  0.00  0.00     0.019 C 
ATOM      2  C3  G39 d   1      43.012   0.776  19.027  0.00  0.00    -0.006 C 
ATOM      3  C4  G39 d   1      42.719   1.127  20.490  0.00  0.00     0.126 C 
ATOM      4  C5  G39 d   1      43.759   0.470  21.389  0.00  0.00     0.068 C 
ATOM      5  C6  G39 d   1      43.713  -1.030  21.244  0.00  0.00     0.077 C 
ATOM      6  C7  G39 d   1      43.656  -1.490  19.779  0.00  0.00    -0.061 C 
ATOM      7  H1  G39 d   1      42.156   1.097  18.415  0.00  0.00     0.043 H 
ATOM      8  H2  G39 d   1      43.913   1.323  18.713  0.00  0.00     0.043 H 
ATOM      9  H3  G39 d   1      41.722   0.754  20.768  0.00  0.00     0.087 H 
ATOM     10  H4  G39 d   1      44.760   0.844  21.127  0.00  0.00     0.080 H 
ATOM     11  H9  G39 d   1      42.795  -1.380  21.739  0.00  0.00     0.093 H 
ATOM     12  H10 G39 d   1      43.967  -2.506  19.540  0.00  0.00     0.082 H 
ENDROOT
BRANCH   5  13
ATOM     13  O7  G39 d   1      44.831  -1.644  21.897  0.00  0.00    -0.375 OA
BRANCH  13  14
ATOM     14  C8  G39 d   1      44.399  -2.720  22.765  0.00  0.00     0.039 C 
ATOM     15  H11 G39 d   1      43.463  -2.399  23.246  0.00  0.00     0.083 H 
BRANCH  14  16
ATOM     16  C9  G39 d   1      44.112  -4.068  22.043  0.00  0.00    -0.044 C 
ATOM     17  H12 G39 d   1      43.233  -3.936  21.395  0.00  0.00     0.036 H 
ATOM     18  H13 G39 d   1      43.895  -4.832  22.805  0.00  0.00     0.036 H 
BRANCH  16  19
ATOM     19  C91 G39 d   1      45.274  -4.558  21.185  0.00  0.00    -0.074 C 
ATOM     20  H19 G39 d   1      45.001  -5.511  20.708  0.00  0.00     0.027 H 
ATOM     21  H20 G39 d   1      46.161  -4.706  21.819  0.00  0.00     0.027 H 
ATOM     22  H21 G39 d   1      45.498  -3.811  20.410  0.00  0.00     0.027 H 
ENDBRANCH  16  19
ENDBRANCH  14  16
BRANCH  14  23
ATOM     23  C81 G39 d   1      45.439  -2.940  23.838  0.00  0.00    -0.044 C 
ATOM     24  H14 G39 d   1      46.387  -3.213  23.351  0.00  0.00     0.036 H 
ATOM     25  H15 G39 d   1      45.105  -3.768  24.480  0.00  0.00     0.036 H 
BRANCH  23  26
ATOM     26  C82 G39 d   1      45.681  -1.738  24.703  0.00  0.00    -0.074 C 
ATOM     27  H16 G39 d   1      46.447  -1.976  25.456  0.00  0.00     0.027 H 
ATOM     28  H17 G39 d   1      44.746  -1.456  25.208  0.00  0.00     0.027 H 
ATOM     29  H18 G39 d   1      46.028  -0.901  24.079  0.00  0.00     0.027 H 
ENDBRANCH  23  26
ENDBRANCH  14  23
ENDBRANCH  13  14
ENDBRANCH   5  13
BRANCH   4  30
ATOM     30  N5  G39 d   1      43.460   0.767  22.766  0.00  0.00    -0.352 N 
ATOM     31  C10 G39 d   1      44.286   1.453  23.533  0.00  0.00     0.214 C 
ATOM     32  O10 G39 d   1      45.317   1.913  23.170  0.00  0.00    -0.274 OA
ATOM     33  H5  G39 d   1      42.597   0.442  23.154  0.00  0.00     0.163 HD
BRANCH  31  34
ATOM     34  C11 G39 d   1      43.775   1.710  24.951  0.00  0.00    -0.003 C 
ATOM     35  H6  G39 d   1      44.526   2.285  25.513  0.00  0.00     0.040 H 
ATOM     36  H7  G39 d   1      43.596   0.749  25.456  0.00  0.00     0.040 H 
ATOM     37  H8  G39 d   1      42.836   2.281  24.904  0.00  0.00     0.040 H 
ENDBRANCH  31  34
ENDBRANCH   4  30
BRANCH   3  38
ATOM     38  N4  G39 d   1      42.738   2.586  20.613  0.00  0.00    -0.073 N 
ATOM     39  H22 G39 d   1      42.039   2.983  20.005  0.00  0.00     0.274 HD
ATOM     40  H23 G39 d   1      43.647   2.933  20.351  0.00  0.00     0.274 HD
ATOM     41  H24 G39 d   1      42.541   2.845  21.567  0.00  0.00     0.274 HD
ENDBRANCH   3  38
BRANCH   1  42
ATOM     42  C1  G39 d   1      42.951  -1.249  17.452  0.00  0.00     0.205 C 
ATOM     43  O1A G39 d   1      42.667  -0.483  16.465  0.00  0.00    -0.644 OA
ATOM     44  O1B G39 d   1      42.969  -2.501  17.343  0.00  0.00    -0.644 OA
ENDBRANCH   1  42
TORSDOF 10
