REMARK  7 active torsions:
REMARK  status: ('A' for Active; 'I' for Inactive)
REMARK    1  A    between atoms: O3_4  and  S1_1 
REMARK    2  A    between atoms: S1_1  and  N1_5 
REMARK    3  A    between atoms: C1_6  and  O3_4 
REMARK    4  A    between atoms: C2_7  and  C1_6 
REMARK    5  A    between atoms: N2_14  and  C2_7 
REMARK    6  A    between atoms: C3_10  and  N4_9 
REMARK    7  A    between atoms: C5_12  and  C6_13 
ROOT
ATOM      1  N3  1VQ d   1      -3.486   6.036  13.932  0.00  0.00    -0.244 NA
ATOM      2  C3  1VQ d   1      -5.185   4.692  13.460  0.00  0.00     0.195 A 
ATOM      3  C4  1VQ d   1      -4.813   5.991  13.684  0.00  0.00     0.053 A 
ATOM      4  C5  1VQ d   1      -3.046   4.794  13.865  0.00  0.00     0.103 A 
ATOM      5  N2  1VQ d   1      -4.049   3.917  13.587  0.00  0.00    -0.313 N 
ATOM      6  H7  1VQ d   1      -5.481   6.851  13.665  0.00  0.00     0.121 H 
ENDROOT
BRANCH   5   7
ATOM      7  C2  1VQ d   1      -3.911   2.460  13.462  0.00  0.00     0.024 C 
ATOM      8  H5  1VQ d   1      -4.755   2.082  12.867  0.00  0.00     0.068 H 
ATOM      9  H6  1VQ d   1      -2.968   2.245  12.938  0.00  0.00     0.068 H 
BRANCH   7  10
ATOM     10  C1  1VQ d   1      -3.897   1.741  14.768  0.00  0.00     0.054 C 
ATOM     11  H3  1VQ d   1      -3.743   0.664  14.604  0.00  0.00     0.079 H 
ATOM     12  H4  1VQ d   1      -3.092   2.134  15.406  0.00  0.00     0.079 H 
BRANCH  10  13
ATOM     13  O3  1VQ d   1      -5.192   1.971  15.398  0.00  0.00    -0.258 OA
BRANCH  13  14
ATOM     14  S1  1VQ d   1      -5.699   1.003  16.526  0.00  0.00     0.355 S 
ATOM     15  O1  1VQ d   1      -4.967   1.368  17.698  0.00  0.00    -0.176 OA
ATOM     16  O2  1VQ d   1      -7.127   1.102  16.531  0.00  0.00    -0.176 OA
BRANCH  14  17
ATOM     17  N1  1VQ d   1      -5.284  -0.487  16.133  0.00  0.00    -0.306 N 
ATOM     18  H1  1VQ d   1      -5.523  -1.248  16.736  0.00  0.00     0.171 HD
ATOM     19  H2  1VQ d   1      -4.785  -0.659  15.284  0.00  0.00     0.171 HD
ENDBRANCH  14  17
ENDBRANCH  13  14
ENDBRANCH  10  13
ENDBRANCH   7  10
ENDBRANCH   5   7
BRANCH   2  20
ATOM     20  N4  1VQ d   1      -6.464   4.232  13.082  0.00  0.00    -0.096 N 
ATOM     21  O4  1VQ d   1      -7.375   5.061  13.042  0.00  0.00    -0.530 OA
ATOM     22  O5  1VQ d   1      -6.610   3.068  12.718  0.00  0.00    -0.530 OA
ENDBRANCH   2  20
BRANCH   4  23
ATOM     23  C6  1VQ d   1      -1.652   4.408  14.132  0.00  0.00    -0.021 C 
ATOM     24  H8  1VQ d   1      -1.053   5.310  14.326  0.00  0.00     0.037 H 
ATOM     25  H9  1VQ d   1      -1.244   3.878  13.258  0.00  0.00     0.037 H 
ATOM     26  H10 1VQ d   1      -1.616   3.748  15.011  0.00  0.00     0.037 H 
ENDBRANCH   4  23
TORSDOF 7
