REMARK  8 active torsions:
REMARK  status: ('A' for Active; 'I' for Inactive)
REMARK    1  A    between atoms: C10_1  and  C15_3 
REMARK    2  A    between atoms: C09_12  and  C10_1 
REMARK    3  A    between atoms: C02_5  and  O04_21 
REMARK    4  A    between atoms: N01_17  and  C03_6 
REMARK    5  A    between atoms: C05_8  and  O01_18 
REMARK    6  A    between atoms: C06_9  and  C07_10 
REMARK    7  A    between atoms: C08_11  and  C09_12 
REMARK    8  A    between atoms: O04_21  and  C08_11 
ROOT
ATOM      1  C01 9GQ d   1      90.928  93.752 -45.487  0.00  0.00    -0.029 A 
ATOM      2  C02 9GQ d   1      91.424  92.591 -44.881  0.00  0.00     0.098 A 
ATOM      3  C03 9GQ d   1      91.752  92.655 -43.517  0.00  0.00     0.091 A 
ATOM      4  C04 9GQ d   1      91.588  93.849 -42.791  0.00  0.00     0.070 A 
ATOM      5  C05 9GQ d   1      91.090  94.998 -43.419  0.00  0.00     0.101 A 
ATOM      6  C06 9GQ d   1      90.754  94.952 -44.772  0.00  0.00     0.077 A 
ATOM      7  I01 9GQ d   1      92.059  93.965 -40.725  0.00  0.00    -0.039 I 
ATOM      8  H7  9GQ d   1      90.670  93.726 -46.539  0.00  0.00     0.089 H 
ENDROOT
BRANCH   2   9
ATOM      9  O04 9GQ d   1      91.611  91.390 -45.513  0.00  0.00    -0.349 OA
BRANCH   9  10
ATOM     10  C08 9GQ d   1      90.941  91.099 -46.748  0.00  0.00     0.026 C 
ATOM     11  H8  9GQ d   1      90.016  90.540 -46.540  0.00  0.00     0.075 H 
ATOM     12  H9  9GQ d   1      90.693  92.040 -47.260  0.00  0.00     0.075 H 
BRANCH  10  13
ATOM     13  C09 9GQ d   1      91.851  90.259 -47.642  0.00  0.00    -0.045 C 
ATOM     14  H10 9GQ d   1      92.282  90.908 -48.419  0.00  0.00     0.036 H 
ATOM     15  H11 9GQ d   1      92.659  89.835 -47.028  0.00  0.00     0.036 H 
BRANCH  13  16
ATOM     16  C10 9GQ d   1      91.098  89.120 -48.316  0.00  0.00    -0.067 C 
ATOM     17  H1  9GQ d   1      91.795  88.542 -48.940  0.00  0.00     0.032 H 
ATOM     18  H2  9GQ d   1      90.665  88.465 -47.546  0.00  0.00     0.032 H 
BRANCH  16  19
ATOM     19  C15 9GQ d   1      89.985  89.674 -49.188  0.00  0.00    -0.076 C 
ATOM     20  H4  9GQ d   1      89.448  88.843 -49.669  0.00  0.00     0.027 H 
ATOM     21  H5  9GQ d   1      90.415  90.329 -49.960  0.00  0.00     0.027 H 
ATOM     22  H6  9GQ d   1      89.285  90.251 -48.566  0.00  0.00     0.027 H 
ENDBRANCH  16  19
ENDBRANCH  13  16
ENDBRANCH  10  13
ENDBRANCH   9  10
ENDBRANCH   2   9
BRANCH   3  23
ATOM     23  N01 9GQ d   1      92.279  91.557 -42.811  0.00  0.00    -0.329 N 
ATOM     24  C11 9GQ d   1      93.612  91.423 -42.465  0.00  0.00    -0.015 A 
ATOM     25  C12 9GQ d   1      93.768  90.262 -41.742  0.00  0.00    -0.066 A 
ATOM     26  H12 9GQ d   1      94.407  92.121 -42.722  0.00  0.00     0.112 H 
ATOM     27  C13 9GQ d   1      92.489  89.673 -41.638  0.00  0.00    -0.066 A 
ATOM     28  H13 9GQ d   1      94.698  89.873 -41.330  0.00  0.00     0.085 H 
ATOM     29  C14 9GQ d   1      91.590  90.486 -42.294  0.00  0.00    -0.015 A 
ATOM     30  H3  9GQ d   1      92.254  88.740 -41.129  0.00  0.00     0.085 H 
ATOM     31  H14 9GQ d   1      90.519  90.310 -42.387  0.00  0.00     0.112 H 
ENDBRANCH   3  23
BRANCH   6  32
ATOM     32  C07 9GQ d   1      90.223  96.156 -45.493  0.00  0.00     0.212 C 
ATOM     33  O02 9GQ d   1      90.171  97.235 -44.828  0.00  0.00    -0.644 OA
ATOM     34  O03 9GQ d   1      89.890  95.981 -46.708  0.00  0.00    -0.644 OA
ENDBRANCH   6  32
BRANCH   5  35
ATOM     35  O01 9GQ d   1      90.925  96.166 -42.714  0.00  0.00    -0.358 OA
ATOM     36  H15 9GQ d   1      91.454  96.850 -43.108  0.00  0.00     0.217 HD
ENDBRANCH   5  35
TORSDOF 8
