REMARK  7 active torsions:
REMARK  status: ('A' for Active; 'I' for Inactive)
REMARK    1  A    between atoms: C01_3  and  C09_15 
REMARK    2  A    between atoms: C03_5  and  S01_10 
REMARK    3  A    between atoms: C04_6  and  N01_13 
REMARK    4  A    between atoms: C06_8  and  O01_14 
REMARK    5  A    between atoms: S01_10  and  C07_11 
REMARK    6  A    between atoms: C07_11  and  C08_12 
REMARK    7  A    between atoms: C08_12  and  C14_20 
ROOT
ATOM      1  C01 9GN d   1      90.970  95.632 -44.754  0.00  0.00     0.076 A 
ATOM      2  C02 9GN d   1      91.108  94.422 -45.474  0.00  0.00    -0.045 A 
ATOM      3  C03 9GN d   1      91.566  93.243 -44.853  0.00  0.00     0.030 A 
ATOM      4  C04 9GN d   1      91.884  93.278 -43.501  0.00  0.00     0.074 A 
ATOM      5  C05 9GN d   1      91.760  94.468 -42.780  0.00  0.00     0.069 A 
ATOM      6  C06 9GN d   1      91.305  95.640 -43.391  0.00  0.00     0.101 A 
ATOM      7  I01 9GN d   1      92.216  94.533 -40.723  0.00  0.00    -0.039 I 
ATOM      8  H3  9GN d   1      90.856  94.401 -46.528  0.00  0.00     0.087 H 
ENDROOT
BRANCH   3   9
ATOM      9  S01 9GN d   1      91.732  91.691 -45.710  0.00  0.00    -0.128 SA
BRANCH   9  10
ATOM     10  C07 9GN d   1      90.838  91.944 -47.274  0.00  0.00    -0.019 C 
ATOM     11  H4  9GN d   1      91.418  92.616 -47.924  0.00  0.00     0.049 H 
ATOM     12  H5  9GN d   1      89.855  92.393 -47.067  0.00  0.00     0.049 H 
BRANCH  10  13
ATOM     13  C08 9GN d   1      90.647  90.599 -47.972  0.00  0.00    -0.060 C 
ATOM     14  H6  9GN d   1      90.068  90.756 -48.894  0.00  0.00     0.033 H 
ATOM     15  H7  9GN d   1      90.093  89.926 -47.301  0.00  0.00     0.033 H 
BRANCH  13  16
ATOM     16  C14 9GN d   1      91.975  89.953 -48.329  0.00  0.00    -0.076 C 
ATOM     17  H11 9GN d   1      91.792  88.990 -48.828  0.00  0.00     0.027 H 
ATOM     18  H12 9GN d   1      92.559  89.786 -47.412  0.00  0.00     0.027 H 
ATOM     19  H13 9GN d   1      92.535  90.616 -49.005  0.00  0.00     0.027 H 
ENDBRANCH  13  16
ENDBRANCH  10  13
ENDBRANCH   9  10
ENDBRANCH   3   9
BRANCH   4  20
ATOM     20  N01 9GN d   1      92.391  92.150 -42.832  0.00  0.00    -0.330 N 
ATOM     21  C10 9GN d   1      91.733  91.064 -42.315  0.00  0.00    -0.015 A 
ATOM     22  C11 9GN d   1      92.663  90.248 -41.708  0.00  0.00    -0.066 A 
ATOM     23  H1  9GN d   1      90.662  90.878 -42.374  0.00  0.00     0.112 H 
ATOM     24  C12 9GN d   1      93.933  90.844 -41.858  0.00  0.00    -0.066 A 
ATOM     25  H9  9GN d   1      92.454  89.307 -41.201  0.00  0.00     0.085 H 
ATOM     26  C13 9GN d   1      93.742  92.019 -42.550  0.00  0.00    -0.015 A 
ATOM     27  H10 9GN d   1      94.882  90.451 -41.496  0.00  0.00     0.085 H 
ATOM     28  H2  9GN d   1      94.521  92.727 -42.829  0.00  0.00     0.112 H 
ENDBRANCH   4  20
BRANCH   1  29
ATOM     29  C09 9GN d   1      90.479  96.862 -45.466  0.00  0.00     0.212 C 
ATOM     30  O02 9GN d   1      90.235  96.775 -46.714  0.00  0.00    -0.644 OA
ATOM     31  O03 9GN d   1      90.363  97.903 -44.755  0.00  0.00    -0.644 OA
ENDBRANCH   1  29
BRANCH   6  32
ATOM     32  O01 9GN d   1      91.189  96.789 -42.651  0.00  0.00    -0.358 OA
ATOM     33  H8  9GN d   1      90.870  97.491 -43.206  0.00  0.00     0.217 HD
ENDBRANCH   6  32
TORSDOF 7
