REMARK  4 active torsions:
REMARK  status: ('A' for Active; 'I' for Inactive)
REMARK    1  A    between atoms: SAB_2  and  CAA_4 
REMARK    2  A    between atoms: SAB_2  and  NAC_5 
REMARK    3  A    between atoms: NAC_5  and  CAD_6 
REMARK    4  A    between atoms: CAI_7  and  CAJ_12 
ROOT
ATOM      1  CAJ 9HH d   1      21.036 -20.572 -22.787  0.00  0.00     0.004 A 
ATOM      2  CAK 9HH d   1      20.360 -19.455 -23.284  0.00  0.00    -0.070 A 
ATOM      3  CAL 9HH d   1      20.231 -19.270 -24.653  0.00  0.00    -0.081 A 
ATOM      4  CAM 9HH d   1      20.766 -20.187 -25.551  0.00  0.00    -0.070 A 
ATOM      5  CAN 9HH d   1      21.457 -21.305 -25.085  0.00  0.00     0.004 A 
ATOM      6  CAV 9HH d   1      21.589 -21.485 -23.700  0.00  0.00     0.055 A 
ATOM      7  CAO 9HH d   1      22.130 -22.427 -25.705  0.00  0.00     0.003 A 
ATOM      8  CAT 9HH d   1      22.646 -23.211 -24.656  0.00  0.00     0.043 A 
ATOM      9  NAU 9HH d   1      22.298 -22.642 -23.452  0.00  0.00    -0.354 N 
ATOM     10  CAP 9HH d   1      22.394 -22.805 -27.021  0.00  0.00    -0.070 A 
ATOM     11  CAQ 9HH d   1      23.178 -23.920 -27.264  0.00  0.00    -0.082 A 
ATOM     12  CAR 9HH d   1      23.698 -24.675 -26.216  0.00  0.00    -0.081 A 
ATOM     13  CAS 9HH d   1      23.425 -24.341 -24.903  0.00  0.00    -0.056 A 
ATOM     14  H9  9HH d   1      19.935 -18.731 -22.598  0.00  0.00     0.084 H 
ATOM     15  H10 9HH d   1      19.706 -18.399 -25.028  0.00  0.00     0.083 H 
ATOM     16  H11 9HH d   1      20.645 -20.032 -26.617  0.00  0.00     0.084 H 
ATOM     17  H12 9HH d   1      22.529 -23.017 -22.521  0.00  0.00     0.166 HD
ATOM     18  H13 9HH d   1      21.989 -22.231 -27.846  0.00  0.00     0.084 H 
ATOM     19  H14 9HH d   1      23.390 -24.210 -28.287  0.00  0.00     0.083 H 
ATOM     20  H15 9HH d   1      24.323 -25.534 -26.432  0.00  0.00     0.083 H 
ATOM     21  H16 9HH d   1      23.807 -24.942 -24.086  0.00  0.00     0.086 H 
ENDROOT
BRANCH   1  22
ATOM     22  CAI 9HH d   1      21.118 -20.807 -21.317  0.00  0.00     0.004 A 
ATOM     23  CAD 9HH d   1      21.701 -19.885 -20.434  0.00  0.00     0.053 A 
ATOM     24  CAE 9HH d   1      21.801 -20.176 -19.074  0.00  0.00    -0.056 A 
ATOM     25  CAF 9HH d   1      21.319 -21.374 -18.594  0.00  0.00    -0.081 A 
ATOM     26  H8  9HH d   1      22.256 -19.462 -18.397  0.00  0.00     0.087 H 
ATOM     27  CAG 9HH d   1      20.759 -22.298 -19.451  0.00  0.00    -0.082 A 
ATOM     28  H7  9HH d   1      21.380 -21.592 -17.534  0.00  0.00     0.083 H 
ATOM     29  CAH 9HH d   1      20.650 -22.025 -20.804  0.00  0.00    -0.070 A 
ATOM     30  H6  9HH d   1      20.402 -23.245 -19.063  0.00  0.00     0.083 H 
ATOM     31  H5  9HH d   1      20.202 -22.755 -21.468  0.00  0.00     0.084 H 
BRANCH  23  32
ATOM     32  NAC 9HH d   1      22.303 -18.700 -20.934  0.00  0.00    -0.284 N 
ATOM     33  H4  9HH d   1      21.752 -17.871 -21.026  0.00  0.00     0.178 HD
BRANCH  32  34
ATOM     34  SAB 9HH d   1      23.864 -18.667 -21.358  0.00  0.00     0.227 S 
ATOM     35  OAX 9HH d   1      24.251 -19.986 -21.747  0.00  0.00    -0.206 OA
ATOM     36  OAW 9HH d   1      24.582 -18.024 -20.307  0.00  0.00    -0.206 OA
BRANCH  34  37
ATOM     37  CAA 9HH d   1      23.944 -17.655 -22.774  0.00  0.00     0.033 C 
ATOM     38  H1  9HH d   1      23.395 -18.134 -23.598  0.00  0.00     0.051 H 
ATOM     39  H2  9HH d   1      24.995 -17.515 -23.066  0.00  0.00     0.051 H 
ATOM     40  H3  9HH d   1      23.492 -16.677 -22.552  0.00  0.00     0.051 H 
ENDBRANCH  34  37
ENDBRANCH  32  34
ENDBRANCH  23  32
ENDBRANCH   1  22
TORSDOF 4
