REMARK  3 active torsions:
REMARK  status: ('A' for Active; 'I' for Inactive)
REMARK    1  A    between atoms: N1_1  and  C6_5 
REMARK    2  A    between atoms: C5_4  and  C8_7 
REMARK    3  A    between atoms: C1_8  and  C7_6 
ROOT
ATOM      1  N1  8VE d   1      15.627  69.605  23.546  0.00  0.00    -0.302 N 
ATOM      2  N3  8VE d   1      17.669  68.409  21.306  0.00  0.00    -0.058 N 
ATOM      3  C4  8VE d   1      16.472  67.482  23.192  0.00  0.00     0.057 A 
ATOM      4  C5  8VE d   1      17.576  67.128  22.156  0.00  0.00     0.195 C 
ATOM      5  C1  8VE d   1      16.846  68.099  24.554  0.00  0.00     0.139 A 
ATOM      6  N2  8VE d   1      16.360  69.282  24.685  0.00  0.00    -0.174 NA
ATOM      7  C2  8VE d   1      16.241  68.948  21.200  0.00  0.00     0.103 C 
ATOM      8  C3  8VE d   1      15.601  68.557  22.554  0.00  0.00     0.063 A 
ATOM      9  H1  8VE d   1      18.032  68.196  20.390  0.00  0.00     0.278 HD
ATOM     10  H2  8VE d   1      18.266  69.085  21.756  0.00  0.00     0.278 HD
ATOM     11  H3  8VE d   1      15.892  66.567  23.380  0.00  0.00     0.057 H 
ATOM     12  H4  8VE d   1      18.517  66.956  22.699  0.00  0.00     0.103 H 
ATOM     13  H8  8VE d   1      15.705  68.478  20.362  0.00  0.00     0.079 H 
ATOM     14  H9  8VE d   1      16.242  70.040  21.067  0.00  0.00     0.079 H 
ATOM     15  H10 8VE d   1      14.572  68.207  22.387  0.00  0.00     0.079 H 
ENDROOT
BRANCH   1  16
ATOM     16  C6  8VE d   1      15.215  70.982  23.308  0.00  0.00    -0.002 C 
ATOM     17  H5  8VE d   1      14.650  71.038  22.366  0.00  0.00     0.058 H 
ATOM     18  H6  8VE d   1      16.105  71.625  23.241  0.00  0.00     0.058 H 
ATOM     19  H7  8VE d   1      14.578  71.323  24.138  0.00  0.00     0.058 H 
ENDBRANCH   1  16
BRANCH   5  20
ATOM     20  C7  8VE d   1      17.701  67.343  25.559  0.00  0.00     0.226 C 
ATOM     21  O1  8VE d   1      18.092  67.956  26.583  0.00  0.00    -0.643 OA
ATOM     22  O3  8VE d   1      17.969  66.140  25.327  0.00  0.00    -0.643 OA
ENDBRANCH   5  20
BRANCH   4  23
ATOM     23  C8  8VE d   1      17.363  65.913  21.204  0.00  0.00     0.205 C 
ATOM     24  O2  8VE d   1      17.518  66.046  19.963  0.00  0.00    -0.646 OA
ATOM     25  O4  8VE d   1      17.039  64.819  21.717  0.00  0.00    -0.646 OA
ENDBRANCH   4  23
TORSDOF 3
