REMARK  15 active torsions:
REMARK  status: ('A' for Active; 'I' for Inactive)
REMARK    1  A    between atoms: P_2  and  O5'_5 
REMARK    2  A    between atoms: O5'_5  and  C5'_6 
REMARK    3  A    between atoms: C5'_6  and  C4'_7 
REMARK    4  A    between atoms: C3'_9  and  O3'_10 
REMARK    5  A    between atoms: O3'_10  and  P_24 
REMARK    6  A    between atoms: C2'_11  and  O2'_12 
REMARK    7  A    between atoms: C1'_13  and  N9_14 
REMARK    8  A    between atoms: C6_18  and  N6_19 
REMARK    9  A    between atoms: P_24  and  O5'_27 
REMARK   10  A    between atoms: O5'_27  and  C5'_28 
REMARK   11  A    between atoms: C5'_28  and  C4'_29 
REMARK   12  A    between atoms: C3'_31  and  O3'_32 
REMARK   13  A    between atoms: C2'_33  and  O2'_34 
REMARK   14  A    between atoms: C1'_35  and  N9_36 
REMARK   15  A    between atoms: C2_43  and  N2_44 
ROOT
ATOM      1  P     G d   1       0.764 -11.149 -14.364  0.00  0.00     0.408 P 
ATOM      2  OP1   G d   1      -0.532 -11.031 -13.662  0.00  0.00    -0.624 OA
ATOM      3  OP2   G d   1       1.350 -12.493 -14.590  0.00  0.00    -0.624 OA
ENDROOT
BRANCH   1   4
ATOM      4  O3'   A d   1       1.916 -10.253 -13.682  0.00  0.00    -0.279 OA
BRANCH   4   5
ATOM      5  C3'   A d   1       1.751  -8.845 -13.518  0.00  0.00     0.106 C 
ATOM      6  C4'   A d   1       3.066  -8.117 -13.776  0.00  0.00     0.090 C 
ATOM      7  O4'   A d   1       3.632  -7.793 -12.478  0.00  0.00    -0.353 OA
ATOM      8  H3    A d   1       3.743  -8.779 -14.335  0.00  0.00     0.090 H 
ATOM      9  C1'   A d   1       2.759  -8.196 -11.433  0.00  0.00     0.140 C 
ATOM     10  C2'   A d   1       1.398  -8.466 -12.073  0.00  0.00     0.106 C 
ATOM     11  H7    A d   1       3.134  -9.108 -10.945  0.00  0.00     0.122 H 
ATOM     12  H5    A d   1       0.799  -7.543 -12.081  0.00  0.00     0.093 H 
ATOM     13  H4    A d   1       0.970  -8.493 -14.208  0.00  0.00     0.092 H 
BRANCH   6  14
ATOM     14  C5'   A d   1       2.898  -6.828 -14.536  0.00  0.00     0.059 C 
ATOM     15  H1    A d   1       3.865  -6.306 -14.595  0.00  0.00     0.079 H 
ATOM     16  H2    A d   1       2.535  -7.043 -15.552  0.00  0.00     0.079 H 
BRANCH  14  17
ATOM     17  O5'   A d   1       1.958  -6.012 -13.859  0.00  0.00    -0.280 OA
BRANCH  17  18
ATOM     18  P     A d   1       1.412  -4.662 -14.487  0.00  0.00     0.422 P 
ATOM     19  OP3   A d   1       2.557  -3.851 -14.961  0.00  0.00    -0.617 OA
ATOM     20  OP1   A d   1       0.651  -5.077 -15.696  0.00  0.00    -0.617 OA
ATOM     21  OP2   A d   1       0.670  -4.032 -13.378  0.00  0.00    -0.617 OA
ENDBRANCH  17  18
ENDBRANCH  14  17
ENDBRANCH   6  14
BRANCH   9  22
ATOM     22  N9    A d   1       2.676  -7.102 -10.449  0.00  0.00    -0.294 N 
ATOM     23  C8    A d   1       2.302  -5.815 -10.733  0.00  0.00     0.071 A 
ATOM     24  N7    A d   1       2.254  -5.006  -9.698  0.00  0.00    -0.236 NA
ATOM     25  H8    A d   1       2.062  -5.486 -11.743  0.00  0.00     0.144 H 
ATOM     26  C5    A d   1       2.617  -5.825  -8.641  0.00  0.00     0.149 A 
ATOM     27  C6    A d   1       2.760  -5.550  -7.265  0.00  0.00     0.155 A 
ATOM     28  C4    A d   1       2.873  -7.112  -9.075  0.00  0.00     0.167 A 
ATOM     29  N1    A d   1       3.129  -6.569  -6.468  0.00  0.00    -0.222 NA
ATOM     30  C2    A d   1       3.342  -7.769  -7.022  0.00  0.00     0.091 A 
ATOM     31  N3    A d   1       3.246  -8.151  -8.304  0.00  0.00    -0.222 NA
ATOM     32  H11   A d   1       3.636  -8.550  -6.330  0.00  0.00     0.146 H 
BRANCH  27  33
ATOM     33  N6    A d   1       2.546  -4.352  -6.713  0.00  0.00    -0.382 N 
ATOM     34  H9    A d   1       2.670  -4.223  -5.699  0.00  0.00     0.157 HD
ATOM     35  H10   A d   1       2.257  -3.558  -7.302  0.00  0.00     0.157 HD
ENDBRANCH  27  33
ENDBRANCH   9  22
BRANCH  10  36
ATOM     36  O2'   A d   1       0.670  -9.438 -11.349  0.00  0.00    -0.388 OA
ATOM     37  H6    A d   1      -0.154  -9.609 -11.790  0.00  0.00     0.210 HD
ENDBRANCH  10  36
ENDBRANCH   4   5
ENDBRANCH   1   4
BRANCH   1  38
ATOM     38  O5'   G d   1       0.355 -10.442 -15.729  0.00  0.00    -0.287 OA
BRANCH  38  39
ATOM     39  C5'   G d   1       1.279 -10.044 -16.712  0.00  0.00     0.058 C 
ATOM     40  H12   G d   1       1.545 -10.905 -17.343  0.00  0.00     0.079 H 
ATOM     41  H13   G d   1       2.185  -9.647 -16.232  0.00  0.00     0.079 H 
BRANCH  39  42
ATOM     42  C4'   G d   1       0.639  -8.974 -17.555  0.00  0.00     0.089 C 
ATOM     43  O4'   G d   1       1.681  -8.188 -18.162  0.00  0.00    -0.353 OA
ATOM     44  C1'   G d   1       1.574  -8.265 -19.564  0.00  0.00     0.139 C 
ATOM     45  C2'   G d   1       0.755  -9.518 -19.854  0.00  0.00     0.105 C 
ATOM     46  H19   G d   1       1.054  -7.385 -19.970  0.00  0.00     0.122 H 
ATOM     47  C3'   G d   1      -0.232  -9.489 -18.698  0.00  0.00     0.091 C 
ATOM     48  H17   G d   1       1.381 -10.420 -19.797  0.00  0.00     0.093 H 
ATOM     49  H15   G d   1      -0.664 -10.478 -18.488  0.00  0.00     0.091 H 
ATOM     50  H14   G d   1       0.023  -8.341 -16.900  0.00  0.00     0.090 H 
BRANCH  44  51
ATOM     51  N9    G d   1       2.931  -8.304 -20.083  0.00  0.00    -0.295 N 
ATOM     52  C8    G d   1       3.502  -7.328 -20.854  0.00  0.00     0.071 A 
ATOM     53  N7    G d   1       4.732  -7.595 -21.166  0.00  0.00    -0.234 NA
ATOM     54  H20   G d   1       2.981  -6.426 -21.171  0.00  0.00     0.144 H 
ATOM     55  C5    G d   1       4.982  -8.812 -20.550  0.00  0.00     0.171 A 
ATOM     56  C6    G d   1       6.159  -9.574 -20.539  0.00  0.00     0.292 A 
ATOM     57  C4    G d   1       3.883  -9.267 -19.858  0.00  0.00     0.161 A 
ATOM     58  O6    G d   1       7.224  -9.320 -21.092  0.00  0.00    -0.265 OA
ATOM     59  N1    G d   1       6.001 -10.747 -19.797  0.00  0.00    -0.154 N 
ATOM     60  C2    G d   1       4.864 -11.117 -19.132  0.00  0.00     0.680 A 
ATOM     61  H21   G d   1       6.784 -11.368 -19.748  0.00  0.00     0.187 HD
ATOM     62  N3    G d   1       3.750 -10.402 -19.131  0.00  0.00    -0.174 N 
ATOM     63  H24   G d   1       2.888 -10.675 -18.638  0.00  0.00     0.186 HD
BRANCH  60  64
ATOM     64  N2    G d   1       4.926 -12.277 -18.463  0.00  0.00    -0.234 N 
ATOM     65  H22   G d   1       4.105 -12.615 -17.941  0.00  0.00     0.174 HD
ATOM     66  H23   G d   1       5.795 -12.831 -18.471  0.00  0.00     0.174 HD
ENDBRANCH  60  64
ENDBRANCH  44  51
BRANCH  45  67
ATOM     67  O2'   G d   1       0.169  -9.466 -21.142  0.00  0.00    -0.388 OA
ATOM     68  H18   G d   1      -0.408 -10.212 -21.257  0.00  0.00     0.210 HD
ENDBRANCH  45  67
BRANCH  47  69
ATOM     69  O3'   G d   1      -1.254  -8.527 -18.970  0.00  0.00    -0.390 OA
ATOM     70  H16   G d   1      -1.801  -8.840 -19.681  0.00  0.00     0.210 HD
ENDBRANCH  47  69
ENDBRANCH  39  42
ENDBRANCH  38  39
ENDBRANCH   1  38
TORSDOF 15
