REMARK  7 active torsions:
REMARK  status: ('A' for Active; 'I' for Inactive)
REMARK    1  A    between atoms: CAP_13  and  CAA_1 
REMARK    2  A    between atoms: NBB_25  and  CAB_2 
REMARK    3  A    between atoms: NBD_27  and  CAP_13 
REMARK    4  A    between atoms: CAQ_14  and  CAU_16 
REMARK    5  A    between atoms: NBB_25  and  CAQ_14 
REMARK    6  A    between atoms: CAV_17  and  CAT_15 
REMARK       I    between atoms: CAT_15  and  NBB_25 
REMARK    7  A    between atoms: NBC_26  and  CAW_18 
ROOT
ATOM      1  CAT 9LN d   1      10.640 -10.940   8.343  0.00  0.00     0.253 C 
ATOM      2  NBB 9LN d   1      11.085 -12.012   9.084  0.00  0.00    -0.348 N 
ATOM      3  OAC 9LN d   1      10.907  -9.794   8.698  0.00  0.00    -0.267 OA
ENDROOT
BRANCH   2   4
ATOM      4  CAB 9LN d   1      10.772 -13.426   8.736  0.00  0.00    -0.015 C 
ATOM      5  H4  9LN d   1      11.237 -14.097   9.474  0.00  0.00     0.056 H 
ATOM      6  H5  9LN d   1      11.166 -13.653   7.735  0.00  0.00     0.056 H 
ATOM      7  H6  9LN d   1       9.682 -13.573   8.743  0.00  0.00     0.056 H 
ENDBRANCH   2   4
BRANCH   2   8
ATOM      8  CAQ 9LN d   1      11.911 -11.770  10.279  0.00  0.00     0.024 C 
ATOM      9  H19 9LN d   1      12.666 -12.564  10.371  0.00  0.00     0.071 H 
ATOM     10  H20 9LN d   1      12.413 -10.796  10.188  0.00  0.00     0.071 H 
BRANCH   8  11
ATOM     11  CAU 9LN d   1      11.016 -11.770  11.518  0.00  0.00    -0.004 A 
ATOM     12  CAM 9LN d   1      10.669 -12.834  12.224  0.00  0.00     0.031 A 
ATOM     13  NAR 9LN d   1       9.887 -12.378  13.204  0.00  0.00    -0.180 NA
ATOM     14  H14 9LN d   1      10.961 -13.867  12.043  0.00  0.00     0.118 H 
ATOM     15  NBC 9LN d   1       9.766 -11.141  13.104  0.00  0.00    -0.245 N 
ATOM     16  CAO 9LN d   1      10.459 -10.698  12.055  0.00  0.00     0.013 A 
ATOM     17  H16 9LN d   1      10.548  -9.668  11.712  0.00  0.00     0.115 H 
BRANCH  15  18
ATOM     18  CAW 9LN d   1       9.062 -10.355  13.911  0.00  0.00     0.058 A 
ATOM     19  CAI 9LN d   1       9.064  -8.980  13.709  0.00  0.00    -0.055 A 
ATOM     20  CAG 9LN d   1       8.331  -8.156  14.552  0.00  0.00    -0.081 A 
ATOM     21  H10 9LN d   1       9.637  -8.552  12.895  0.00  0.00     0.087 H 
ATOM     22  CAF 9LN d   1       7.598  -8.710  15.595  0.00  0.00    -0.083 A 
ATOM     23  H8  9LN d   1       8.330  -7.083  14.397  0.00  0.00     0.083 H 
ATOM     24  CAH 9LN d   1       7.597 -10.086  15.796  0.00  0.00    -0.081 A 
ATOM     25  H7  9LN d   1       7.025  -8.067  16.254  0.00  0.00     0.083 H 
ATOM     26  CAJ 9LN d   1       8.330 -10.911  14.953  0.00  0.00    -0.055 A 
ATOM     27  H9  9LN d   1       7.024 -10.514  16.610  0.00  0.00     0.083 H 
ATOM     28  H11 9LN d   1       8.331 -11.984  15.107  0.00  0.00     0.087 H 
ENDBRANCH  15  18
ENDBRANCH   8  11
ENDBRANCH   2   8
BRANCH   1  29
ATOM     29  CAV 9LN d   1       9.834 -11.121   7.189  0.00  0.00     0.034 A 
ATOM     30  CAK 9LN d   1       8.585 -10.490   7.091  0.00  0.00    -0.065 A 
ATOM     31  CAL 9LN d   1       7.769 -10.649   5.957  0.00  0.00    -0.054 A 
ATOM     32  H12 9LN d   1       8.241  -9.866   7.908  0.00  0.00     0.085 H 
ATOM     33  CBA 9LN d   1       8.200 -11.433   4.880  0.00  0.00     0.064 A 
ATOM     34  H13 9LN d   1       6.801 -10.162   5.916  0.00  0.00     0.087 H 
ATOM     35  CAZ 9LN d   1       9.446 -12.045   4.974  0.00  0.00     0.063 A 
ATOM     36  NBD 9LN d   1       7.454 -11.604   3.758  0.00  0.00    -0.308 N 
ATOM     37  CAN 9LN d   1      10.252 -11.868   6.095  0.00  0.00    -0.040 A 
ATOM     38  NAS 9LN d   1       9.923 -12.821   3.930  0.00  0.00    -0.317 N 
ATOM     39  H15 9LN d   1      11.234 -12.326   6.115  0.00  0.00     0.088 H 
ATOM     40  CAX 9LN d   1       9.150 -12.996   2.802  0.00  0.00     0.314 A 
ATOM     41  H21 9LN d   1      10.823 -13.252   3.994  0.00  0.00     0.169 HD
ATOM     42  CAY 9LN d   1       7.907 -12.375   2.736  0.00  0.00     0.316 A 
ATOM     43  OAD 9LN d   1       9.577 -13.711   1.886  0.00  0.00    -0.262 OA
ATOM     44  OAE 9LN d   1       7.199 -12.525   1.739  0.00  0.00    -0.262 OA
BRANCH  36  45
ATOM     45  CAP 9LN d   1       6.104 -10.979   3.635  0.00  0.00     0.000 C 
ATOM     46  H17 9LN d   1       5.491 -11.601   2.966  0.00  0.00     0.064 H 
ATOM     47  H18 9LN d   1       5.642 -10.948   4.633  0.00  0.00     0.064 H 
BRANCH  45  48
ATOM     48  CAA 9LN d   1       6.142  -9.559   3.075  0.00  0.00    -0.061 C 
ATOM     49  H1  9LN d   1       5.118  -9.162   3.012  0.00  0.00     0.029 H 
ATOM     50  H2  9LN d   1       6.592  -9.572   2.071  0.00  0.00     0.029 H 
ATOM     51  H3  9LN d   1       6.743  -8.919   3.738  0.00  0.00     0.029 H 
ENDBRANCH  45  48
ENDBRANCH  36  45
ENDBRANCH   1  29
TORSDOF 7
