REMARK  2 active torsions:
REMARK  status: ('A' for Active; 'I' for Inactive)
REMARK    1  A    between atoms: C2_3  and  C6_8 
REMARK    2  A    between atoms: N2_7  and  C10_12 
ROOT
ATOM      1  N2  NCT d   1      10.224   8.940   7.472  0.00  0.00    -0.067 N 
ATOM      2  C6  NCT d   1       9.896  10.389   7.400  0.00  0.00     0.130 C 
ATOM      3  C7  NCT d   1       8.449  10.534   7.888  0.00  0.00    -0.033 C 
ATOM      4  C8  NCT d   1       7.835   9.149   7.825  0.00  0.00    -0.040 C 
ATOM      5  C9  NCT d   1       8.975   8.174   7.648  0.00  0.00     0.084 C 
ATOM      6  H5  NCT d   1      10.817   8.787   8.273  0.00  0.00     0.280 HD
ATOM      7  H6  NCT d   1       9.918  10.669   6.337  0.00  0.00     0.092 H 
ATOM      8  H7  NCT d   1       7.895  11.226   7.236  0.00  0.00     0.036 H 
ATOM      9  H8  NCT d   1       8.432  10.911   8.921  0.00  0.00     0.036 H 
ATOM     10  H9  NCT d   1       7.142   9.080   6.973  0.00  0.00     0.035 H 
ATOM     11  H10 NCT d   1       7.293   8.932   8.757  0.00  0.00     0.035 H 
ATOM     12  H11 NCT d   1       9.056   7.532   8.538  0.00  0.00     0.076 H 
ATOM     13  H12 NCT d   1       8.795   7.550   6.761  0.00  0.00     0.076 H 
ENDROOT
BRANCH   2  14
ATOM     14  C2  NCT d   1      10.849  11.329   8.087  0.00  0.00    -0.010 A 
ATOM     15  C1  NCT d   1      10.835  11.618   9.472  0.00  0.00     0.010 A 
ATOM     16  N1  NCT d   1      11.676  12.507  10.053  0.00  0.00    -0.273 NA
ATOM     17  H1  NCT d   1      10.116  11.103  10.099  0.00  0.00     0.115 H 
ATOM     18  C5  NCT d   1      12.593  13.165   9.312  0.00  0.00     0.002 A 
ATOM     19  C4  NCT d   1      12.670  12.920   7.941  0.00  0.00    -0.065 A 
ATOM     20  H4  NCT d   1      13.264  13.877   9.778  0.00  0.00     0.114 H 
ATOM     21  C3  NCT d   1      11.797  12.001   7.327  0.00  0.00    -0.072 A 
ATOM     22  H3  NCT d   1      13.408  13.442   7.343  0.00  0.00     0.085 H 
ATOM     23  H2  NCT d   1      11.865  11.818   6.261  0.00  0.00     0.084 H 
ENDBRANCH   2  14
BRANCH   1  24
ATOM     24  C10 NCT d   1      10.944   8.466   6.264  0.00  0.00     0.067 C 
ATOM     25  H13 NCT d   1      11.873   9.042   6.141  0.00  0.00     0.068 H 
ATOM     26  H14 NCT d   1      10.306   8.605   5.379  0.00  0.00     0.068 H 
ATOM     27  H15 NCT d   1      11.187   7.399   6.377  0.00  0.00     0.068 H 
ENDBRANCH   1  24
TORSDOF 2
