REMARK  22 active torsions:
REMARK  status: ('A' for Active; 'I' for Inactive)
REMARK    1  A    between atoms: C4_1  and  O4_39 
REMARK    2  A    between atoms: C5_2  and  C6_3 
REMARK    3  A    between atoms: C6_3  and  O6_38 
REMARK    4  A    between atoms: C3_4  and  O3_40 
REMARK    5  A    between atoms: CBN_15  and  CBR_14 
REMARK    6  A    between atoms: OBO_16  and  CBN_15 
REMARK    7  A    between atoms: CBM_17  and  OBO_16 
REMARK    8  A    between atoms: CBL_18  and  CBM_17 
REMARK    9  A    between atoms: CAG_23  and  NBI_22 
REMARK   10  A    between atoms: CAK_24  and  OBA_25 
REMARK   11  A    between atoms: CAI_27  and  CAJ_28 
REMARK   12  A    between atoms: CAJ_28  and  OBB_29 
REMARK   13  A    between atoms: CAH_30  and  OAZ_31 
REMARK   14  A    between atoms: O1_33  and  CAL_32 
REMARK   15  A    between atoms: C1_34  and  O1_33 
REMARK   16  A    between atoms: C2_35  and  O2_36 
REMARK   17  A    between atoms: O3_40  and  CAM_41 
REMARK   18  A    between atoms: CAO_43  and  CAP_44 
REMARK   19  A    between atoms: CAP_44  and  OBG_45 
REMARK   20  A    between atoms: CAN_46  and  OBE_47 
REMARK   21  A    between atoms: CAR_48  and  OBC_49 
REMARK   22  A    between atoms: CAQ_50  and  OBF_51 
ROOT
ATOM      1  CAG 9PB d   1       9.748   9.902  22.674  0.00  0.00     0.154 C 
ATOM      2  CAK 9PB d   1      10.314  11.231  22.300  0.00  0.00     0.106 C 
ATOM      3  OAY 9PB d   1       9.558   9.869  24.072  0.00  0.00    -0.352 OA
ATOM      4  CAI 9PB d   1      10.778  10.068  24.821  0.00  0.00     0.088 C 
ATOM      5  CAH 9PB d   1      11.359  11.375  24.448  0.00  0.00     0.090 C 
ATOM      6  CAL 9PB d   1      11.640  11.379  22.953  0.00  0.00     0.097 C 
ATOM      7  H18 9PB d   1      10.440   9.108  22.358  0.00  0.00     0.125 H 
ATOM      8  H19 9PB d   1       9.635  12.065  22.532  0.00  0.00     0.094 H 
ATOM      9  H21 9PB d   1      11.487   9.230  24.743  0.00  0.00     0.090 H 
ATOM     10  H25 9PB d   1      10.670  12.193  24.704  0.00  0.00     0.091 H 
ATOM     11  H27 9PB d   1      12.323  10.566  22.666  0.00  0.00     0.091 H 
ENDROOT
BRANCH   6  12
ATOM     12  O1  9PB d   1      12.195  12.662  22.608  0.00  0.00    -0.348 OA
BRANCH  12  13
ATOM     13  C1  9PB d   1      13.462  12.725  21.980  0.00  0.00     0.159 C 
ATOM     14  C2  9PB d   1      13.791  14.203  21.778  0.00  0.00     0.110 C 
ATOM     15  C3  9PB d   1      15.157  14.273  21.106  0.00  0.00     0.098 C 
ATOM     16  H29 9PB d   1      13.814  14.735  22.741  0.00  0.00     0.094 H 
ATOM     17  C4  9PB d   1      16.176  13.573  21.947  0.00  0.00     0.090 C 
ATOM     18  H5  9PB d   1      15.097  13.768  20.131  0.00  0.00     0.091 H 
ATOM     19  C5  9PB d   1      15.740  12.140  22.152  0.00  0.00     0.089 C 
ATOM     20  H1  9PB d   1      16.331  14.090  22.905  0.00  0.00     0.091 H 
ATOM     21  O5  9PB d   1      14.465  12.079  22.800  0.00  0.00    -0.348 OA
ATOM     22  H2  9PB d   1      15.672  11.642  21.173  0.00  0.00     0.090 H 
ATOM     23  H28 9PB d   1      13.418  12.220  21.004  0.00  0.00     0.133 H 
BRANCH  14  24
ATOM     24  O2  9PB d   1      12.764  14.767  20.920  0.00  0.00    -0.388 OA
ATOM     25  H30 9PB d   1      11.916  14.670  21.337  0.00  0.00     0.210 HD
ENDBRANCH  14  24
BRANCH  15  26
ATOM     26  O3  9PB d   1      15.535  15.618  20.895  0.00  0.00    -0.348 OA
BRANCH  26  27
ATOM     27  CAM 9PB d   1      15.234  16.229  19.675  0.00  0.00     0.159 C 
ATOM     28  OBD 9PB d   1      15.994  15.489  18.747  0.00  0.00    -0.348 OA
ATOM     29  CAO 9PB d   1      15.803  16.001  17.406  0.00  0.00     0.089 C 
ATOM     30  CAN 9PB d   1      16.264  17.469  17.371  0.00  0.00     0.090 C 
ATOM     31  H34 9PB d   1      14.734  15.977  17.149  0.00  0.00     0.090 H 
ATOM     32  CAR 9PB d   1      15.463  18.298  18.362  0.00  0.00     0.092 C 
ATOM     33  H38 9PB d   1      17.340  17.537  17.591  0.00  0.00     0.091 H 
ATOM     34  CAQ 9PB d   1      15.703  17.687  19.718  0.00  0.00     0.110 C 
ATOM     35  H40 9PB d   1      14.396  18.335  18.097  0.00  0.00     0.091 H 
ATOM     36  H42 9PB d   1      16.782  17.720  19.931  0.00  0.00     0.094 H 
ATOM     37  H33 9PB d   1      14.159  16.179  19.447  0.00  0.00     0.133 H 
BRANCH  29  38
ATOM     38  CAP 9PB d   1      16.554  15.035  16.450  0.00  0.00     0.043 C 
ATOM     39  H35 9PB d   1      16.464  15.408  15.419  0.00  0.00     0.078 H 
ATOM     40  H36 9PB d   1      16.099  14.036  16.519  0.00  0.00     0.078 H 
BRANCH  38  41
ATOM     41  OBG 9PB d   1      17.951  14.942  16.797  0.00  0.00    -0.398 OA
ATOM     42  H37 9PB d   1      18.349  15.802  16.735  0.00  0.00     0.209 HD
ENDBRANCH  38  41
ENDBRANCH  29  38
BRANCH  30  43
ATOM     43  OBE 9PB d   1      15.972  17.990  16.072  0.00  0.00    -0.390 OA
ATOM     44  H39 9PB d   1      16.249  18.898  16.027  0.00  0.00     0.210 HD
ENDBRANCH  30  43
BRANCH  32  45
ATOM     45  OBC 9PB d   1      16.040  19.593  18.443  0.00  0.00    -0.390 OA
ATOM     46  H41 9PB d   1      15.547  20.120  19.060  0.00  0.00     0.210 HD
ENDBRANCH  32  45
BRANCH  34  47
ATOM     47  OBF 9PB d   1      15.007  18.362  20.781  0.00  0.00    -0.388 OA
ATOM     48  H43 9PB d   1      15.198  17.932  21.606  0.00  0.00     0.210 HD
ENDBRANCH  34  47
ENDBRANCH  26  27
ENDBRANCH  15  26
BRANCH  17  49
ATOM     49  O4  9PB d   1      17.378  13.513  21.166  0.00  0.00    -0.390 OA
ATOM     50  H32 9PB d   1      17.660  14.395  20.953  0.00  0.00     0.210 HD
ENDBRANCH  17  49
BRANCH  19  51
ATOM     51  C6  9PB d   1      16.777  11.411  23.028  0.00  0.00     0.043 C 
ATOM     52  H3  9PB d   1      17.759  11.432  22.534  0.00  0.00     0.078 H 
ATOM     53  H4  9PB d   1      16.465  10.367  23.180  0.00  0.00     0.078 H 
BRANCH  51  54
ATOM     54  O6  9PB d   1      16.858  12.072  24.278  0.00  0.00    -0.398 OA
ATOM     55  H31 9PB d   1      17.495  11.631  24.828  0.00  0.00     0.209 HD
ENDBRANCH  51  54
ENDBRANCH  19  51
ENDBRANCH  12  13
ENDBRANCH   6  12
BRANCH   2  56
ATOM     56  OBA 9PB d   1      10.598  11.096  20.904  0.00  0.00    -0.388 OA
ATOM     57  H20 9PB d   1      11.220  10.390  20.775  0.00  0.00     0.210 HD
ENDBRANCH   2  56
BRANCH   5  58
ATOM     58  OAZ 9PB d   1      12.590  11.510  25.177  0.00  0.00    -0.390 OA
ATOM     59  H26 9PB d   1      12.410  11.476  26.109  0.00  0.00     0.210 HD
ENDBRANCH   5  58
BRANCH   1  60
ATOM     60  NBI 9PB d   1       8.427   9.679  22.082  0.00  0.00    -0.229 N 
ATOM     61  CBH 9PB d   1       7.699   8.568  21.878  0.00  0.00     0.031 A 
ATOM     62  CBL 9PB d   1       6.528   9.032  21.476  0.00  0.00     0.099 A 
ATOM     63  H17 9PB d   1       8.002   7.531  22.012  0.00  0.00     0.117 H 
ATOM     64  NBK 9PB d   1       6.569  10.351  21.576  0.00  0.00    -0.133 NA
ATOM     65  NBJ 9PB d   1       7.688  10.669  21.962  0.00  0.00    -0.064 NA
BRANCH  62  66
ATOM     66  CBM 9PB d   1       5.312   8.213  21.050  0.00  0.00     0.063 C 
ATOM     67  H15 9PB d   1       5.514   7.147  21.230  0.00  0.00     0.084 H 
ATOM     68  H16 9PB d   1       4.440   8.527  21.643  0.00  0.00     0.084 H 
BRANCH  66  69
ATOM     69  OBO 9PB d   1       5.033   8.406  19.679  0.00  0.00    -0.381 OA
BRANCH  69  70
ATOM     70  CBN 9PB d   1       3.794   7.758  19.337  0.00  0.00     0.044 C 
ATOM     71  H13 9PB d   1       3.942   6.668  19.306  0.00  0.00     0.081 H 
ATOM     72  H14 9PB d   1       3.028   8.003  20.087  0.00  0.00     0.081 H 
BRANCH  70  73
ATOM     73  CBR 9PB d   1       3.386   8.212  18.084  0.00  0.00    -0.034 A 
ATOM     74  CBS 9PB d   1       3.637   7.483  16.923  0.00  0.00    -0.064 A 
ATOM     75  CBT 9PB d   1       3.215   7.989  15.694  0.00  0.00    -0.025 A 
ATOM     76  H6  9PB d   1       4.155   6.532  16.975  0.00  0.00     0.085 H 
ATOM     77  CBY 9PB d   1       3.452   7.274  14.527  0.00  0.00    -0.072 A 
ATOM     78  CBU 9PB d   1       2.551   9.213  15.621  0.00  0.00    -0.026 A 
ATOM     79  CBX 9PB d   1       3.031   7.782  13.301  0.00  0.00    -0.082 A 
ATOM     80  H7  9PB d   1       3.965   6.320  14.571  0.00  0.00     0.084 H 
ATOM     81  CBW 9PB d   1       2.368   9.002  13.235  0.00  0.00    -0.082 A 
ATOM     82  H8  9PB d   1       3.221   7.223  12.392  0.00  0.00     0.083 H 
ATOM     83  CBV 9PB d   1       2.126   9.720  14.399  0.00  0.00    -0.072 A 
ATOM     84  H9  9PB d   1       2.041   9.392  12.278  0.00  0.00     0.083 H 
ATOM     85  H10 9PB d   1       1.608  10.671  14.354  0.00  0.00     0.084 H 
ATOM     86  CBP 9PB d   1       2.305   9.935  16.778  0.00  0.00    -0.072 A 
ATOM     87  CBQ 9PB d   1       2.728   9.434  18.004  0.00  0.00    -0.074 A 
ATOM     88  H11 9PB d   1       1.786  10.885  16.727  0.00  0.00     0.084 H 
ATOM     89  H12 9PB d   1       2.543  10.003  18.908  0.00  0.00     0.084 H 
ENDBRANCH  70  73
ENDBRANCH  69  70
ENDBRANCH  66  69
ENDBRANCH  62  66
ENDBRANCH   1  60
BRANCH   4  90
ATOM     90  CAJ 9PB d   1      10.246  10.342  26.232  0.00  0.00     0.043 C 
ATOM     91  H22 9PB d   1       9.654  11.269  26.226  0.00  0.00     0.078 H 
ATOM     92  H23 9PB d   1      11.092  10.452  26.927  0.00  0.00     0.078 H 
BRANCH  90  93
ATOM     93  OBB 9PB d   1       9.435   9.272  26.649  0.00  0.00    -0.398 OA
ATOM     94  H24 9PB d   1       8.704   9.178  26.049  0.00  0.00     0.209 HD
ENDBRANCH  90  93
ENDBRANCH   4  90
TORSDOF 22
