REMARK  22 active torsions:
REMARK  status: ('A' for Active; 'I' for Inactive)
REMARK    1  A    between atoms: C4_1  and  O4_44 
REMARK    2  A    between atoms: C5_2  and  C6_3 
REMARK    3  A    between atoms: C6_3  and  O6_43 
REMARK    4  A    between atoms: C3_5  and  O3_45 
REMARK    5  A    between atoms: CBN_11  and  CBP_10 
REMARK    6  A    between atoms: OBO_12  and  CBN_11 
REMARK    7  A    between atoms: CBM_13  and  OBO_12 
REMARK    8  A    between atoms: CBI_14  and  CBM_13 
REMARK    9  A    between atoms: CAM_19  and  NBJ_18 
REMARK   10  A    between atoms: CAL_20  and  OBB_21 
REMARK   11  A    between atoms: CAN_23  and  CAR_24 
REMARK   12  A    between atoms: CAR_24  and  OAU_25 
REMARK   13  A    between atoms: CAO_26  and  OBA_27 
REMARK   14  A    between atoms: OBG_29  and  CAK_28 
REMARK   15  A    between atoms: CAH_30  and  OBG_29 
REMARK   16  A    between atoms: CAG_31  and  OAZ_32 
REMARK   17  A    between atoms: CAI_34  and  CAQ_35 
REMARK   18  A    between atoms: CAQ_35  and  OAT_36 
REMARK   19  A    between atoms: CAJ_37  and  OAY_38 
REMARK   20  A    between atoms: O1_40  and  CAF_39 
REMARK   21  A    between atoms: C1_41  and  O1_40 
REMARK   22  A    between atoms: C2_46  and  O2_47 
ROOT
ATOM      1  OBG 9P8 d   1      13.186  12.199 -22.663  0.00  0.00    -0.348 OA
ENDROOT
BRANCH   1   2
ATOM      2  CAK 9P8 d   1      13.647  10.866 -22.986  0.00  0.00     0.097 C 
ATOM      3  CAL 9P8 d   1      14.906  10.580 -22.132  0.00  0.00     0.106 C 
ATOM      4  CAM 9P8 d   1      15.502   9.227 -22.494  0.00  0.00     0.154 C 
ATOM      5  H16 9P8 d   1      15.654  11.366 -22.310  0.00  0.00     0.094 H 
ATOM      6  OBE 9P8 d   1      15.795   9.218 -23.876  0.00  0.00    -0.352 OA
ATOM      7  H15 9P8 d   1      14.820   8.420 -22.188  0.00  0.00     0.125 H 
ATOM      8  CAN 9P8 d   1      14.661   9.349 -24.714  0.00  0.00     0.088 C 
ATOM      9  CAO 9P8 d   1      13.953  10.684 -24.487  0.00  0.00     0.090 C 
ATOM     10  H18 9P8 d   1      13.946   8.547 -24.479  0.00  0.00     0.090 H 
ATOM     11  H22 9P8 d   1      14.601  11.506 -24.826  0.00  0.00     0.091 H 
ATOM     12  H24 9P8 d   1      12.859  10.149 -22.712  0.00  0.00     0.091 H 
BRANCH   3  13
ATOM     13  OBB 9P8 d   1      14.530  10.574 -20.745  0.00  0.00    -0.388 OA
ATOM     14  H17 9P8 d   1      13.887   9.891 -20.595  0.00  0.00     0.210 HD
ENDBRANCH   3  13
BRANCH   4  15
ATOM     15  NBJ 9P8 d   1      16.875   9.014 -21.991  0.00  0.00    -0.229 N 
ATOM     16  CBH 9P8 d   1      17.540   7.936 -21.611  0.00  0.00     0.031 A 
ATOM     17  CBI 9P8 d   1      18.763   8.365 -21.337  0.00  0.00     0.099 A 
ATOM     18  H14 9P8 d   1      17.164   6.917 -21.539  0.00  0.00     0.117 H 
ATOM     19  NBL 9P8 d   1      18.815   9.649 -21.579  0.00  0.00    -0.133 NA
ATOM     20  NBK 9P8 d   1      17.716  10.006 -21.954  0.00  0.00    -0.064 NA
BRANCH  17  21
ATOM     21  CBM 9P8 d   1      19.952   7.540 -20.812  0.00  0.00     0.063 C 
ATOM     22  H12 9P8 d   1      19.776   6.478 -21.036  0.00  0.00     0.084 H 
ATOM     23  H13 9P8 d   1      20.870   7.874 -21.318  0.00  0.00     0.084 H 
BRANCH  21  24
ATOM     24  OBO 9P8 d   1      20.121   7.698 -19.376  0.00  0.00    -0.379 OA
BRANCH  24  25
ATOM     25  CBN 9P8 d   1      21.354   7.139 -18.851  0.00  0.00     0.059 C 
ATOM     26  H10 9P8 d   1      21.465   6.111 -19.226  0.00  0.00     0.084 H 
ATOM     27  H11 9P8 d   1      22.198   7.750 -19.202  0.00  0.00     0.084 H 
BRANCH  25  28
ATOM     28  CBP 9P8 d   1      21.366   7.113 -17.440  0.00  0.00     0.057 A 
ATOM     29  N1  9P8 d   1      20.345   7.522 -16.667  0.00  0.00    -0.263 NA
ATOM     30  CBT 9P8 d   1      20.340   7.553 -15.257  0.00  0.00     0.003 A 
ATOM     31  CBV 9P8 d   1      21.465   7.062 -14.629  0.00  0.00    -0.066 A 
ATOM     32  H9  9P8 d   1      19.497   7.942 -14.697  0.00  0.00     0.114 H 
ATOM     33  CBS 9P8 d   1      22.523   6.615 -15.417  0.00  0.00    -0.080 A 
ATOM     34  H8  9P8 d   1      21.525   7.025 -13.547  0.00  0.00     0.085 H 
ATOM     35  CBQ 9P8 d   1      22.493   6.640 -16.794  0.00  0.00    -0.057 A 
ATOM     36  H7  9P8 d   1      23.409   6.231 -14.925  0.00  0.00     0.083 H 
ATOM     37  H6  9P8 d   1      23.346   6.292 -17.366  0.00  0.00     0.086 H 
ENDBRANCH  25  28
ENDBRANCH  24  25
ENDBRANCH  21  24
ENDBRANCH  17  21
ENDBRANCH   4  15
BRANCH   8  38
ATOM     38  CAR 9P8 d   1      15.163   9.155 -26.172  0.00  0.00     0.043 C 
ATOM     39  H19 9P8 d   1      14.304   9.009 -26.843  0.00  0.00     0.078 H 
ATOM     40  H20 9P8 d   1      15.822   8.275 -26.223  0.00  0.00     0.078 H 
BRANCH  38  41
ATOM     41  OAU 9P8 d   1      15.896  10.335 -26.569  0.00  0.00    -0.398 OA
ATOM     42  H21 9P8 d   1      16.208  10.228 -27.460  0.00  0.00     0.209 HD
ENDBRANCH  38  41
ENDBRANCH   8  38
BRANCH   9  43
ATOM     43  OBA 9P8 d   1      12.716  10.691 -25.259  0.00  0.00    -0.390 OA
ATOM     44  H23 9P8 d   1      12.266  11.517 -25.126  0.00  0.00     0.210 HD
ENDBRANCH   9  43
ENDBRANCH   1   2
BRANCH   1  45
ATOM     45  CAH 9P8 d   1      11.921  12.214 -21.964  0.00  0.00     0.159 C 
ATOM     46  CAG 9P8 d   1      11.568  13.665 -21.605  0.00  0.00     0.110 C 
ATOM     47  CAF 9P8 d   1      10.193  13.738 -20.935  0.00  0.00     0.098 C 
ATOM     48  H26 9P8 d   1      11.555  14.264 -22.528  0.00  0.00     0.094 H 
ATOM     49  CAJ 9P8 d   1       9.178  12.964 -21.748  0.00  0.00     0.090 C 
ATOM     50  H34 9P8 d   1      10.251  13.302 -19.927  0.00  0.00     0.091 H 
ATOM     51  CAI 9P8 d   1       9.686  11.564 -21.977  0.00  0.00     0.089 C 
ATOM     52  H32 9P8 d   1       9.022  13.463 -22.716  0.00  0.00     0.091 H 
ATOM     53  OBD 9P8 d   1      10.893  11.639 -22.783  0.00  0.00    -0.348 OA
ATOM     54  H28 9P8 d   1       9.901  11.075 -21.016  0.00  0.00     0.090 H 
ATOM     55  H25 9P8 d   1      12.012  11.625 -21.040  0.00  0.00     0.133 H 
BRANCH  46  56
ATOM     56  OAZ 9P8 d   1      12.552  14.227 -20.680  0.00  0.00    -0.388 OA
ATOM     57  H27 9P8 d   1      12.568  13.710 -19.883  0.00  0.00     0.210 HD
ENDBRANCH  46  56
BRANCH  47  58
ATOM     58  O1  9P8 d   1       9.825  15.110 -20.835  0.00  0.00    -0.348 OA
BRANCH  58  59
ATOM     59  C1  9P8 d   1      10.108  15.720 -19.559  0.00  0.00     0.159 C 
ATOM     60  O5  9P8 d   1       9.366  15.029 -18.525  0.00  0.00    -0.348 OA
ATOM     61  C5  9P8 d   1       9.581  15.629 -17.224  0.00  0.00     0.089 C 
ATOM     62  C4  9P8 d   1       9.093  17.080 -17.212  0.00  0.00     0.090 C 
ATOM     63  H2  9P8 d   1      10.654  15.608 -16.985  0.00  0.00     0.090 H 
ATOM     64  C3  9P8 d   1       9.850  17.853 -18.288  0.00  0.00     0.092 C 
ATOM     65  H1  9P8 d   1       8.012  17.110 -17.416  0.00  0.00     0.091 H 
ATOM     66  C2  9P8 d   1       9.687  17.182 -19.623  0.00  0.00     0.110 C 
ATOM     67  H5  9P8 d   1      10.917  17.895 -18.023  0.00  0.00     0.091 H 
ATOM     68  H39 9P8 d   1       8.628  17.224 -19.919  0.00  0.00     0.094 H 
ATOM     69  H35 9P8 d   1      11.185  15.654 -19.344  0.00  0.00     0.133 H 
BRANCH  61  70
ATOM     70  C6  9P8 d   1       8.811  14.817 -16.190  0.00  0.00     0.043 C 
ATOM     71  H3  9P8 d   1       8.890  15.306 -15.208  0.00  0.00     0.078 H 
ATOM     72  H4  9P8 d   1       9.236  13.804 -16.130  0.00  0.00     0.078 H 
BRANCH  70  73
ATOM     73  O6  9P8 d   1       7.443  14.733 -16.566  0.00  0.00    -0.398 OA
ATOM     74  H36 9P8 d   1       7.075  15.608 -16.617  0.00  0.00     0.209 HD
ENDBRANCH  70  73
ENDBRANCH  61  70
BRANCH  62  75
ATOM     75  O4  9P8 d   1       9.363  17.687 -15.935  0.00  0.00    -0.390 OA
ATOM     76  H37 9P8 d   1       9.074  18.592 -15.948  0.00  0.00     0.210 HD
ENDBRANCH  62  75
BRANCH  64  77
ATOM     77  O3  9P8 d   1       9.326  19.179 -18.392  0.00  0.00    -0.390 OA
ATOM     78  H38 9P8 d   1       9.801  19.654 -19.063  0.00  0.00     0.210 HD
ENDBRANCH  64  77
BRANCH  66  79
ATOM     79  O2  9P8 d   1      10.472  17.915 -20.586  0.00  0.00    -0.388 OA
ATOM     80  H40 9P8 d   1      11.389  17.875 -20.341  0.00  0.00     0.210 HD
ENDBRANCH  66  79
ENDBRANCH  58  59
ENDBRANCH  47  58
BRANCH  49  81
ATOM     81  OAY 9P8 d   1       7.934  12.907 -21.028  0.00  0.00    -0.390 OA
ATOM     82  H33 9P8 d   1       7.298  12.416 -21.535  0.00  0.00     0.210 HD
ENDBRANCH  49  81
BRANCH  51  83
ATOM     83  CAQ 9P8 d   1       8.628  10.781 -22.737  0.00  0.00     0.043 C 
ATOM     84  H29 9P8 d   1       7.705  10.715 -22.142  0.00  0.00     0.078 H 
ATOM     85  H30 9P8 d   1       8.993   9.768 -22.960  0.00  0.00     0.078 H 
BRANCH  83  86
ATOM     86  OAT 9P8 d   1       8.382  11.494 -23.951  0.00  0.00    -0.398 OA
ATOM     87  H31 9P8 d   1       7.723  11.035 -24.458  0.00  0.00     0.209 HD
ENDBRANCH  83  86
ENDBRANCH  51  83
ENDBRANCH   1  45
TORSDOF 22
