REMARK  22 active torsions:
REMARK  status: ('A' for Active; 'I' for Inactive)
REMARK    1  A    between atoms: C4_1  and  O4_44 
REMARK    2  A    between atoms: C5_2  and  C6_3 
REMARK    3  A    between atoms: C6_3  and  O6_43 
REMARK    4  A    between atoms: C3_4  and  O3_45 
REMARK    5  A    between atoms: CBN_11  and  CBP_10 
REMARK    6  A    between atoms: OBO_12  and  CBN_11 
REMARK    7  A    between atoms: CBM_13  and  OBO_12 
REMARK    8  A    between atoms: CBI_14  and  CBM_13 
REMARK    9  A    between atoms: CAM_19  and  NBJ_18 
REMARK   10  A    between atoms: CAL_20  and  OBB_21 
REMARK   11  A    between atoms: CAN_23  and  CAR_24 
REMARK   12  A    between atoms: CAR_24  and  OAU_25 
REMARK   13  A    between atoms: CAO_26  and  OBA_27 
REMARK   14  A    between atoms: OBG_29  and  CAK_28 
REMARK   15  A    between atoms: CAH_30  and  OBG_29 
REMARK   16  A    between atoms: CAG_31  and  OAZ_32 
REMARK   17  A    between atoms: CAI_34  and  CAQ_35 
REMARK   18  A    between atoms: CAQ_35  and  OAT_36 
REMARK   19  A    between atoms: CAJ_37  and  OAY_38 
REMARK   20  A    between atoms: O1_40  and  CAF_39 
REMARK   21  A    between atoms: C1_41  and  O1_40 
REMARK   22  A    between atoms: C2_46  and  O2_47 
ROOT
ATOM      1  CAM 9PH d   1     -15.562   9.637  22.508  0.00  0.00     0.154 C 
ATOM      2  CAL 9PH d   1     -14.877  10.943  22.119  0.00  0.00     0.106 C 
ATOM      3  OBE 9PH d   1     -15.791   9.612  23.919  0.00  0.00    -0.352 OA
ATOM      4  CAN 9PH d   1     -14.581   9.670  24.685  0.00  0.00     0.088 C 
ATOM      5  CAO 9PH d   1     -13.909  11.010  24.429  0.00  0.00     0.090 C 
ATOM      6  CAK 9PH d   1     -13.604  11.129  22.943  0.00  0.00     0.097 C 
ATOM      7  H16 9PH d   1     -14.949   8.788  22.172  0.00  0.00     0.125 H 
ATOM      8  H17 9PH d   1     -15.558  11.785  22.309  0.00  0.00     0.094 H 
ATOM      9  H19 9PH d   1     -13.904   8.868  24.356  0.00  0.00     0.090 H 
ATOM     10  H23 9PH d   1     -14.582  11.824  24.736  0.00  0.00     0.091 H 
ATOM     11  H25 9PH d   1     -12.860  10.374  22.650  0.00  0.00     0.091 H 
ENDROOT
BRANCH   6  12
ATOM     12  OBG 9PH d   1     -13.089  12.450  22.716  0.00  0.00    -0.348 OA
BRANCH  12  13
ATOM     13  CAH 9PH d   1     -11.873  12.502  21.984  0.00  0.00     0.159 C 
ATOM     14  CAG 9PH d   1     -11.538  13.968  21.759  0.00  0.00     0.110 C 
ATOM     15  CAF 9PH d   1     -10.194  14.081  21.046  0.00  0.00     0.098 C 
ATOM     16  H27 9PH d   1     -11.472  14.478  22.731  0.00  0.00     0.094 H 
ATOM     17  CAJ 9PH d   1      -9.118  13.329  21.821  0.00  0.00     0.090 C 
ATOM     18  H35 9PH d   1     -10.281  13.661  20.033  0.00  0.00     0.091 H 
ATOM     19  CAI 9PH d   1      -9.572  11.887  22.099  0.00  0.00     0.089 C 
ATOM     20  H33 9PH d   1      -8.932  13.843  22.776  0.00  0.00     0.091 H 
ATOM     21  OBD 9PH d   1     -10.843  11.896  22.766  0.00  0.00    -0.348 OA
ATOM     22  H29 9PH d   1      -9.648  11.343  21.146  0.00  0.00     0.090 H 
ATOM     23  H26 9PH d   1     -11.977  11.979  21.022  0.00  0.00     0.133 H 
BRANCH  14  24
ATOM     24  OAZ 9PH d   1     -12.578  14.581  20.978  0.00  0.00    -0.388 OA
ATOM     25  H28 9PH d   1     -13.404  14.511  21.442  0.00  0.00     0.210 HD
ENDBRANCH  14  24
BRANCH  15  26
ATOM     26  O1  9PH d   1      -9.814  15.463  20.969  0.00  0.00    -0.348 OA
BRANCH  26  27
ATOM     27  C1  9PH d   1     -10.043  16.067  19.686  0.00  0.00     0.159 C 
ATOM     28  O5  9PH d   1      -9.260  15.394  18.693  0.00  0.00    -0.348 OA
ATOM     29  C5  9PH d   1      -9.529  15.886  17.376  0.00  0.00     0.089 C 
ATOM     30  C4  9PH d   1      -9.041  17.332  17.307  0.00  0.00     0.090 C 
ATOM     31  H2  9PH d   1     -10.610  15.859  17.173  0.00  0.00     0.090 H 
ATOM     32  C3  9PH d   1      -9.748  18.169  18.376  0.00  0.00     0.092 C 
ATOM     33  H1  9PH d   1      -7.955  17.358  17.479  0.00  0.00     0.091 H 
ATOM     34  C2  9PH d   1      -9.614  17.525  19.753  0.00  0.00     0.110 C 
ATOM     35  H5  9PH d   1     -10.814  18.254  18.120  0.00  0.00     0.091 H 
ATOM     36  H40 9PH d   1      -8.564  17.577  20.078  0.00  0.00     0.094 H 
ATOM     37  H36 9PH d   1     -11.110  16.001  19.427  0.00  0.00     0.133 H 
BRANCH  29  38
ATOM     38  C6  9PH d   1      -8.802  14.963  16.381  0.00  0.00     0.043 C 
ATOM     39  H3  9PH d   1      -8.866  15.395  15.371  0.00  0.00     0.078 H 
ATOM     40  H4  9PH d   1      -9.281  13.973  16.387  0.00  0.00     0.078 H 
BRANCH  38  41
ATOM     41  O6  9PH d   1      -7.425  14.824  16.750  0.00  0.00    -0.398 OA
ATOM     42  H37 9PH d   1      -7.368  14.449  17.621  0.00  0.00     0.209 HD
ENDBRANCH  38  41
ENDBRANCH  29  38
BRANCH  30  43
ATOM     43  O4  9PH d   1      -9.334  17.885  16.018  0.00  0.00    -0.390 OA
ATOM     44  H38 9PH d   1      -9.024  18.782  15.982  0.00  0.00     0.210 HD
ENDBRANCH  30  43
BRANCH  32  45
ATOM     45  O3  9PH d   1      -9.159  19.475  18.414  0.00  0.00    -0.390 OA
ATOM     46  H39 9PH d   1      -8.236  19.399  18.625  0.00  0.00     0.210 HD
ENDBRANCH  32  45
BRANCH  34  47
ATOM     47  O2  9PH d   1     -10.431  18.237  20.684  0.00  0.00    -0.388 OA
ATOM     48  H41 9PH d   1     -10.342  17.846  21.545  0.00  0.00     0.210 HD
ENDBRANCH  34  47
ENDBRANCH  26  27
ENDBRANCH  15  26
BRANCH  17  49
ATOM     49  OAY 9PH d   1      -7.907  13.298  21.050  0.00  0.00    -0.390 OA
ATOM     50  H34 9PH d   1      -7.622  14.187  20.875  0.00  0.00     0.210 HD
ENDBRANCH  17  49
BRANCH  19  51
ATOM     51  CAQ 9PH d   1      -8.598  11.163  23.033  0.00  0.00     0.043 C 
ATOM     52  H30 9PH d   1      -7.607  11.116  22.558  0.00  0.00     0.078 H 
ATOM     53  H31 9PH d   1      -8.964  10.143  23.219  0.00  0.00     0.078 H 
BRANCH  51  54
ATOM     54  OAT 9PH d   1      -8.493  11.861  24.278  0.00  0.00    -0.398 OA
ATOM     55  H32 9PH d   1      -9.348  11.901  24.691  0.00  0.00     0.209 HD
ENDBRANCH  51  54
ENDBRANCH  19  51
ENDBRANCH  12  13
ENDBRANCH   6  12
BRANCH   2  56
ATOM     56  OBB 9PH d   1     -14.553  10.896  20.727  0.00  0.00    -0.388 OA
ATOM     57  H18 9PH d   1     -13.969  10.164  20.563  0.00  0.00     0.210 HD
ENDBRANCH   2  56
BRANCH   5  58
ATOM     58  OBA 9PH d   1     -12.683  11.097  25.172  0.00  0.00    -0.390 OA
ATOM     59  H24 9PH d   1     -12.272  11.937  25.005  0.00  0.00     0.210 HD
ENDBRANCH   5  58
BRANCH   1  60
ATOM     60  NBJ 9PH d   1     -16.940   9.523  22.024  0.00  0.00    -0.229 N 
ATOM     61  CBH 9PH d   1     -17.554   8.404  21.650  0.00  0.00     0.031 A 
ATOM     62  CBI 9PH d   1     -18.778   8.791  21.341  0.00  0.00     0.099 A 
ATOM     63  H15 9PH d   1     -17.141   7.397  21.608  0.00  0.00     0.117 H 
ATOM     64  NBL 9PH d   1     -18.863  10.097  21.540  0.00  0.00    -0.133 NA
ATOM     65  NBK 9PH d   1     -17.767  10.485  21.948  0.00  0.00    -0.064 NA
BRANCH  62  66
ATOM     66  CBM 9PH d   1     -19.919   7.903  20.843  0.00  0.00     0.063 C 
ATOM     67  H13 9PH d   1     -19.605   6.849  20.878  0.00  0.00     0.084 H 
ATOM     68  H14 9PH d   1     -20.800   8.045  21.486  0.00  0.00     0.084 H 
BRANCH  66  69
ATOM     69  OBO 9PH d   1     -20.250   8.255  19.499  0.00  0.00    -0.381 OA
BRANCH  69  70
ATOM     70  CBN 9PH d   1     -21.553   7.799  19.112  0.00  0.00     0.044 C 
ATOM     71  H11 9PH d   1     -21.607   6.705  19.218  0.00  0.00     0.081 H 
ATOM     72  H12 9PH d   1     -22.313   8.268  19.755  0.00  0.00     0.081 H 
BRANCH  70  73
ATOM     73  CBP 9PH d   1     -21.784   8.153  17.778  0.00  0.00    -0.035 A 
ATOM     74  CBQ 9PH d   1     -22.651   9.197  17.440  0.00  0.00    -0.075 A 
ATOM     75  CBS 9PH d   1     -22.863   9.532  16.099  0.00  0.00    -0.082 A 
ATOM     76  H6  9PH d   1     -23.161   9.749  18.221  0.00  0.00     0.084 H 
ATOM     77  CBV 9PH d   1     -22.212   8.827  15.088  0.00  0.00    -0.083 A 
ATOM     78  H7  9PH d   1     -23.536  10.343  15.845  0.00  0.00     0.083 H 
ATOM     79  CBT 9PH d   1     -21.346   7.786  15.419  0.00  0.00    -0.082 A 
ATOM     80  H8  9PH d   1     -22.378   9.087  14.049  0.00  0.00     0.083 H 
ATOM     81  CBR 9PH d   1     -21.139   7.454  16.760  0.00  0.00    -0.075 A 
ATOM     82  H9  9PH d   1     -20.834   7.236  14.638  0.00  0.00     0.083 H 
ATOM     83  H10 9PH d   1     -20.467   6.641  17.012  0.00  0.00     0.084 H 
ENDBRANCH  70  73
ENDBRANCH  69  70
ENDBRANCH  66  69
ENDBRANCH  62  66
ENDBRANCH   1  60
BRANCH   4  84
ATOM     84  CAR 9PH d   1     -14.906   9.456  26.172  0.00  0.00     0.043 C 
ATOM     85  H20 9PH d   1     -14.162   9.982  26.789  0.00  0.00     0.078 H 
ATOM     86  H21 9PH d   1     -14.879   8.381  26.402  0.00  0.00     0.078 H 
BRANCH  84  87
ATOM     87  OAU 9PH d   1     -16.200   9.967  26.454  0.00  0.00    -0.398 OA
ATOM     88  H22 9PH d   1     -16.842   9.512  25.921  0.00  0.00     0.209 HD
ENDBRANCH  84  87
ENDBRANCH   4  84
TORSDOF 22
