REMARK  22 active torsions:
REMARK  status: ('A' for Active; 'I' for Inactive)
REMARK    1  A    between atoms: C4_1  and  O4_34 
REMARK    2  A    between atoms: C5_2  and  C6_3 
REMARK    3  A    between atoms: C6_3  and  O6_33 
REMARK    4  A    between atoms: C3_4  and  O3_35 
REMARK    5  A    between atoms: CBN_10  and  CBP_9 
REMARK    6  A    between atoms: OBO_11  and  CBN_10 
REMARK    7  A    between atoms: CBM_12  and  OBO_11 
REMARK    8  A    between atoms: CBL_13  and  CBM_12 
REMARK    9  A    between atoms: CAG_18  and  NBI_17 
REMARK   10  A    between atoms: CAK_19  and  OBA_20 
REMARK   11  A    between atoms: CAI_22  and  CAJ_23 
REMARK   12  A    between atoms: CAJ_23  and  OBB_24 
REMARK   13  A    between atoms: CAH_25  and  OAZ_26 
REMARK   14  A    between atoms: O1_28  and  CAL_27 
REMARK   15  A    between atoms: C1_29  and  O1_28 
REMARK   16  A    between atoms: C2_30  and  O2_31 
REMARK   17  A    between atoms: O3_35  and  CAM_36 
REMARK   18  A    between atoms: CAO_38  and  CAP_39 
REMARK   19  A    between atoms: CAP_39  and  OBG_40 
REMARK   20  A    between atoms: CAN_41  and  OBE_42 
REMARK   21  A    between atoms: CAR_43  and  OBC_44 
REMARK   22  A    between atoms: CAQ_45  and  OBF_46 
ROOT
ATOM      1  C4  9PK d   1      -9.084  13.383  21.850  0.00  0.00     0.090 C 
ATOM      2  C5  9PK d   1      -9.677  11.995  22.029  0.00  0.00     0.089 C 
ATOM      3  C3  9PK d   1     -10.083  14.272  21.127  0.00  0.00     0.098 C 
ATOM      4  C1  9PK d   1     -11.872  12.818  22.049  0.00  0.00     0.159 C 
ATOM      5  C2  9PK d   1     -11.409  14.255  21.870  0.00  0.00     0.110 C 
ATOM      6  O5  9PK d   1     -10.888  12.087  22.795  0.00  0.00    -0.348 OA
ATOM      7  H1  9PK d   1      -8.856  13.814  22.836  0.00  0.00     0.091 H 
ATOM      8  H2  9PK d   1      -9.899  11.561  21.043  0.00  0.00     0.090 H 
ATOM      9  H5  9PK d   1     -10.232  13.898  20.103  0.00  0.00     0.091 H 
ATOM     10  H24 9PK d   1     -12.004  12.351  21.062  0.00  0.00     0.133 H 
ATOM     11  H25 9PK d   1     -11.282  14.724  22.857  0.00  0.00     0.094 H 
ENDROOT
BRANCH   4  12
ATOM     12  O1  9PK d   1     -13.120  12.801  22.756  0.00  0.00    -0.348 OA
BRANCH  12  13
ATOM     13  CAL 9PK d   1     -13.572  11.446  22.900  0.00  0.00     0.097 C 
ATOM     14  CAK 9PK d   1     -14.944  11.299  22.263  0.00  0.00     0.106 C 
ATOM     15  CAG 9PK d   1     -15.485   9.905  22.538  0.00  0.00     0.154 C 
ATOM     16  H15 9PK d   1     -15.628  12.048  22.689  0.00  0.00     0.094 H 
ATOM     17  OAY 9PK d   1     -15.582   9.699  23.955  0.00  0.00    -0.352 OA
ATOM     18  H14 9PK d   1     -14.791   9.165  22.113  0.00  0.00     0.125 H 
ATOM     19  CAI 9PK d   1     -14.268   9.710  24.532  0.00  0.00     0.088 C 
ATOM     20  CAH 9PK d   1     -13.657  11.093  24.375  0.00  0.00     0.090 C 
ATOM     21  H17 9PK d   1     -13.636   8.970  24.018  0.00  0.00     0.090 H 
ATOM     22  H21 9PK d   1     -14.286  11.832  24.892  0.00  0.00     0.091 H 
ATOM     23  H23 9PK d   1     -12.863  10.769  22.402  0.00  0.00     0.091 H 
BRANCH  14  24
ATOM     24  OBA 9PK d   1     -14.839  11.500  20.846  0.00  0.00    -0.388 OA
ATOM     25  H16 9PK d   1     -15.698  11.409  20.450  0.00  0.00     0.210 HD
ENDBRANCH  14  24
BRANCH  15  26
ATOM     26  NBI 9PK d   1     -16.818   9.722  21.920  0.00  0.00    -0.229 N 
ATOM     27  CBH 9PK d   1     -17.334   8.559  21.534  0.00  0.00     0.031 A 
ATOM     28  CBL 9PK d   1     -18.516   8.891  21.052  0.00  0.00     0.099 A 
ATOM     29  H13 9PK d   1     -16.887   7.568  21.600  0.00  0.00     0.117 H 
ATOM     30  NBK 9PK d   1     -18.660  10.203  21.164  0.00  0.00    -0.133 NA
ATOM     31  NBJ 9PK d   1     -17.640  10.643  21.678  0.00  0.00    -0.064 NA
BRANCH  28  32
ATOM     32  CBM 9PK d   1     -19.546   7.925  20.463  0.00  0.00     0.063 C 
ATOM     33  H11 9PK d   1     -19.120   6.912  20.428  0.00  0.00     0.084 H 
ATOM     34  H12 9PK d   1     -20.448   7.922  21.093  0.00  0.00     0.084 H 
BRANCH  32  35
ATOM     35  OBO 9PK d   1     -19.891   8.342  19.140  0.00  0.00    -0.380 OA
BRANCH  35  36
ATOM     36  CBN 9PK d   1     -21.145   7.765  18.768  0.00  0.00     0.050 C 
ATOM     37  H9  9PK d   1     -21.080   6.669  18.839  0.00  0.00     0.082 H 
ATOM     38  H10 9PK d   1     -21.932   8.130  19.445  0.00  0.00     0.082 H 
BRANCH  36  39
ATOM     39  CBP 9PK d   1     -21.484   8.163  17.330  0.00  0.00     0.006 A 
ATOM     40  CBT 9PK d   1     -22.236   9.208  16.978  0.00  0.00    -0.068 A 
ATOM     41  CBS 9PK d   1     -22.379   9.333  15.644  0.00  0.00    -0.076 A 
ATOM     42  H6  9PK d   1     -22.688   9.890  17.696  0.00  0.00     0.085 H 
ATOM     43  CBR 9PK d   1     -21.746   8.396  14.925  0.00  0.00    -0.044 A 
ATOM     44  H7  9PK d   1     -22.962  10.131  15.187  0.00  0.00     0.084 H 
ATOM     45  SBQ 9PK d   1     -20.987   7.384  16.004  0.00  0.00    -0.104 SA
ATOM     46  H8  9PK d   1     -21.731   8.313  13.839  0.00  0.00     0.095 H 
ENDBRANCH  36  39
ENDBRANCH  35  36
ENDBRANCH  32  35
ENDBRANCH  28  32
ENDBRANCH  15  26
BRANCH  19  47
ATOM     47  CAJ 9PK d   1     -14.359   9.357  26.018  0.00  0.00     0.043 C 
ATOM     48  H18 9PK d   1     -13.428   9.655  26.523  0.00  0.00     0.078 H 
ATOM     49  H19 9PK d   1     -14.506   8.273  26.129  0.00  0.00     0.078 H 
BRANCH  47  50
ATOM     50  OBB 9PK d   1     -15.463  10.050  26.606  0.00  0.00    -0.398 OA
ATOM     51  H20 9PK d   1     -15.518   9.830  27.529  0.00  0.00     0.209 HD
ENDBRANCH  47  50
ENDBRANCH  19  47
BRANCH  20  52
ATOM     52  OAZ 9PK d   1     -12.340  11.102  24.947  0.00  0.00    -0.390 OA
ATOM     53  H22 9PK d   1     -11.959  11.967  24.848  0.00  0.00     0.210 HD
ENDBRANCH  20  52
ENDBRANCH  12  13
ENDBRANCH   4  12
BRANCH   5  54
ATOM     54  O2  9PK d   1     -12.390  14.984  21.118  0.00  0.00    -0.388 OA
ATOM     55  H26 9PK d   1     -12.099  15.882  21.007  0.00  0.00     0.210 HD
ENDBRANCH   5  54
BRANCH   3  56
ATOM     56  O3  9PK d   1      -9.580  15.615  21.077  0.00  0.00    -0.348 OA
BRANCH  56  57
ATOM     57  CAM 9PK d   1      -9.834  16.174  19.779  0.00  0.00     0.159 C 
ATOM     58  OBD 9PK d   1      -9.085  15.451  18.791  0.00  0.00    -0.348 OA
ATOM     59  CAO 9PK d   1      -9.435  15.926  17.483  0.00  0.00     0.089 C 
ATOM     60  CAN 9PK d   1      -8.993  17.372  17.333  0.00  0.00     0.090 C 
ATOM     61  H30 9PK d   1     -10.525  15.861  17.350  0.00  0.00     0.090 H 
ATOM     62  CAR 9PK d   1      -9.677  18.225  18.389  0.00  0.00     0.092 C 
ATOM     63  H34 9PK d   1      -7.902  17.436  17.461  0.00  0.00     0.091 H 
ATOM     64  CAQ 9PK d   1      -9.415  17.635  19.765  0.00  0.00     0.110 C 
ATOM     65  H36 9PK d   1     -10.760  18.244  18.199  0.00  0.00     0.091 H 
ATOM     66  H38 9PK d   1      -8.342  17.711  19.998  0.00  0.00     0.094 H 
ATOM     67  H29 9PK d   1     -10.908  16.099  19.552  0.00  0.00     0.133 H 
BRANCH  59  68
ATOM     68  CAP 9PK d   1      -8.741  15.067  16.425  0.00  0.00     0.043 C 
ATOM     69  H31 9PK d   1      -8.821  15.558  15.444  0.00  0.00     0.078 H 
ATOM     70  H32 9PK d   1      -9.223  14.079  16.381  0.00  0.00     0.078 H 
BRANCH  68  71
ATOM     71  OBG 9PK d   1      -7.361  14.910  16.768  0.00  0.00    -0.398 OA
ATOM     72  H33 9PK d   1      -7.293  14.486  17.615  0.00  0.00     0.209 HD
ENDBRANCH  68  71
ENDBRANCH  59  68
BRANCH  60  73
ATOM     73  OBE 9PK d   1      -9.349  17.849  16.028  0.00  0.00    -0.390 OA
ATOM     74  H35 9PK d   1      -9.072  18.753  15.936  0.00  0.00     0.210 HD
ENDBRANCH  60  73
BRANCH  62  75
ATOM     75  OBC 9PK d   1      -9.160  19.562  18.335  0.00  0.00    -0.390 OA
ATOM     76  H37 9PK d   1      -9.326  19.930  17.475  0.00  0.00     0.210 HD
ENDBRANCH  62  75
BRANCH  64  77
ATOM     77  OBF 9PK d   1     -10.169  18.359  20.748  0.00  0.00    -0.388 OA
ATOM     78  H39 9PK d   1     -11.095  18.294  20.546  0.00  0.00     0.210 HD
ENDBRANCH  64  77
ENDBRANCH  56  57
ENDBRANCH   3  56
BRANCH   2  79
ATOM     79  C6  9PK d   1      -8.675  11.103  22.764  0.00  0.00     0.043 C 
ATOM     80  H3  9PK d   1      -7.788  10.950  22.132  0.00  0.00     0.078 H 
ATOM     81  H4  9PK d   1      -9.141  10.131  22.983  0.00  0.00     0.078 H 
BRANCH  79  82
ATOM     82  O6  9PK d   1      -8.285  11.731  23.989  0.00  0.00    -0.398 OA
ATOM     83  H27 9PK d   1      -7.663  11.176  24.444  0.00  0.00     0.209 HD
ENDBRANCH  79  82
ENDBRANCH   2  79
BRANCH   1  84
ATOM     84  O4  9PK d   1      -7.878  13.292  21.078  0.00  0.00    -0.390 OA
ATOM     85  H28 9PK d   1      -7.508  14.160  20.967  0.00  0.00     0.210 HD
ENDBRANCH   1  84
TORSDOF 22
