REMARK  22 active torsions:
REMARK  status: ('A' for Active; 'I' for Inactive)
REMARK    1  A    between atoms: C4_1  and  O4_35 
REMARK    2  A    between atoms: C5_2  and  C6_3 
REMARK    3  A    between atoms: C6_3  and  O6_34 
REMARK    4  A    between atoms: C3_4  and  O3_36 
REMARK    5  A    between atoms: CBN_11  and  NBQ_10 
REMARK    6  A    between atoms: CBU_12  and  CBN_11 
REMARK    7  A    between atoms: CBM_13  and  CBU_12 
REMARK    8  A    between atoms: CBL_14  and  CBM_13 
REMARK    9  A    between atoms: CAG_19  and  NBI_18 
REMARK   10  A    between atoms: CAK_20  and  OBA_21 
REMARK   11  A    between atoms: CAI_23  and  CAJ_24 
REMARK   12  A    between atoms: CAJ_24  and  OBB_25 
REMARK   13  A    between atoms: CAH_26  and  OAZ_27 
REMARK   14  A    between atoms: O1_29  and  CAL_28 
REMARK   15  A    between atoms: C1_30  and  O1_29 
REMARK   16  A    between atoms: C2_31  and  O2_32 
REMARK   17  A    between atoms: O3_36  and  CAM_37 
REMARK   18  A    between atoms: CAO_39  and  CAP_40 
REMARK   19  A    between atoms: CAP_40  and  OBG_41 
REMARK   20  A    between atoms: CAN_42  and  OBE_43 
REMARK   21  A    between atoms: CAR_44  and  OBC_45 
REMARK   22  A    between atoms: CAQ_46  and  OBF_47 
ROOT
ATOM      1  CAG 9PN d   1     -15.572   9.649  22.362  0.00  0.00     0.154 C 
ATOM      2  CAK 9PN d   1     -14.839  10.948  21.985  0.00  0.00     0.106 C 
ATOM      3  OAY 9PN d   1     -15.802   9.602  23.777  0.00  0.00    -0.352 OA
ATOM      4  CAI 9PN d   1     -14.589   9.645  24.548  0.00  0.00     0.088 C 
ATOM      5  CAH 9PN d   1     -13.942  11.000  24.336  0.00  0.00     0.090 C 
ATOM      6  CAL 9PN d   1     -13.593  11.132  22.859  0.00  0.00     0.097 C 
ATOM      7  H19 9PN d   1     -14.974   8.791  22.021  0.00  0.00     0.125 H 
ATOM      8  H20 9PN d   1     -15.515  11.801  22.144  0.00  0.00     0.094 H 
ATOM      9  H22 9PN d   1     -13.903   8.866  24.183  0.00  0.00     0.090 H 
ATOM     10  H26 9PN d   1     -14.648  11.792  24.625  0.00  0.00     0.091 H 
ATOM     11  H28 9PN d   1     -12.838  10.381  22.584  0.00  0.00     0.091 H 
ENDROOT
BRANCH   6  12
ATOM     12  O1  9PN d   1     -13.072  12.451  22.666  0.00  0.00    -0.348 OA
BRANCH  12  13
ATOM     13  C1  9PN d   1     -11.836  12.511  21.948  0.00  0.00     0.159 C 
ATOM     14  C2  9PN d   1     -11.483  13.973  21.735  0.00  0.00     0.110 C 
ATOM     15  C3  9PN d   1     -10.146  14.069  21.006  0.00  0.00     0.098 C 
ATOM     16  H30 9PN d   1     -11.398  14.475  22.710  0.00  0.00     0.094 H 
ATOM     17  C4  9PN d   1      -9.071  13.305  21.774  0.00  0.00     0.090 C 
ATOM     18  H5  9PN d   1     -10.248  13.648  19.995  0.00  0.00     0.091 H 
ATOM     19  C5  9PN d   1      -9.537  11.868  22.032  0.00  0.00     0.089 C 
ATOM     20  H1  9PN d   1      -8.889  13.805  22.737  0.00  0.00     0.091 H 
ATOM     21  O5  9PN d   1     -10.801  11.884  22.713  0.00  0.00    -0.348 OA
ATOM     22  H2  9PN d   1      -9.631  11.338  21.073  0.00  0.00     0.090 H 
ATOM     23  H29 9PN d   1     -11.941  12.003  20.978  0.00  0.00     0.133 H 
BRANCH  14  24
ATOM     24  O2  9PN d   1     -12.526  14.602  20.970  0.00  0.00    -0.388 OA
ATOM     25  H31 9PN d   1     -12.310  15.517  20.834  0.00  0.00     0.210 HD
ENDBRANCH  14  24
BRANCH  15  26
ATOM     26  O3  9PN d   1      -9.753  15.447  20.924  0.00  0.00    -0.348 OA
BRANCH  26  27
ATOM     27  CAM 9PN d   1      -9.987  16.061  19.647  0.00  0.00     0.159 C 
ATOM     28  OBD 9PN d   1      -9.210  15.391  18.648  0.00  0.00    -0.348 OA
ATOM     29  CAO 9PN d   1      -9.469  15.901  17.331  0.00  0.00     0.089 C 
ATOM     30  CAN 9PN d   1      -9.007  17.355  17.258  0.00  0.00     0.090 C 
ATOM     31  H35 9PN d   1     -10.548  15.858  17.120  0.00  0.00     0.090 H 
ATOM     32  CAR 9PN d   1      -9.700  18.177  18.352  0.00  0.00     0.092 C 
ATOM     33  H39 9PN d   1      -7.917  17.401  17.396  0.00  0.00     0.091 H 
ATOM     34  CAQ 9PN d   1      -9.547  17.516  19.720  0.00  0.00     0.110 C 
ATOM     35  H41 9PN d   1     -10.770  18.263  18.111  0.00  0.00     0.091 H 
ATOM     36  H43 9PN d   1      -8.490  17.552  20.021  0.00  0.00     0.094 H 
ATOM     37  H34 9PN d   1     -11.056  16.002  19.392  0.00  0.00     0.133 H 
BRANCH  29  38
ATOM     38  CAP 9PN d   1      -8.722  15.009  16.331  0.00  0.00     0.043 C 
ATOM     39  H36 9PN d   1      -8.727  15.489  15.341  0.00  0.00     0.078 H 
ATOM     40  H37 9PN d   1      -9.225  14.033  16.268  0.00  0.00     0.078 H 
BRANCH  38  41
ATOM     41  OBG 9PN d   1      -7.370  14.819  16.759  0.00  0.00    -0.398 OA
ATOM     42  H38 9PN d   1      -7.365  14.404  17.613  0.00  0.00     0.209 HD
ENDBRANCH  38  41
ENDBRANCH  29  38
BRANCH  30  43
ATOM     43  OBE 9PN d   1      -9.356  17.904  15.977  0.00  0.00    -0.390 OA
ATOM     44  H40 9PN d   1      -9.068  18.808  15.932  0.00  0.00     0.210 HD
ENDBRANCH  30  43
BRANCH  32  45
ATOM     45  OBC 9PN d   1      -9.119  19.480  18.410  0.00  0.00    -0.390 OA
ATOM     46  H42 9PN d   1      -9.549  19.988  19.088  0.00  0.00     0.210 HD
ENDBRANCH  32  45
BRANCH  34  47
ATOM     47  OBF 9PN d   1     -10.331  18.236  20.682  0.00  0.00    -0.388 OA
ATOM     48  H44 9PN d   1     -11.244  18.221  20.420  0.00  0.00     0.210 HD
ENDBRANCH  34  47
ENDBRANCH  26  27
ENDBRANCH  15  26
BRANCH  17  49
ATOM     49  O4  9PN d   1      -7.854  13.288  21.011  0.00  0.00    -0.390 OA
ATOM     50  H33 9PN d   1      -7.563  14.180  20.862  0.00  0.00     0.210 HD
ENDBRANCH  17  49
BRANCH  19  51
ATOM     51  C6  9PN d   1      -8.551  11.128  22.941  0.00  0.00     0.043 C 
ATOM     52  H3  9PN d   1      -7.560  11.106  22.464  0.00  0.00     0.078 H 
ATOM     53  H4  9PN d   1      -8.904  10.098  23.101  0.00  0.00     0.078 H 
BRANCH  51  54
ATOM     54  O6  9PN d   1      -8.457  11.799  24.200  0.00  0.00    -0.398 OA
ATOM     55  H32 9PN d   1      -9.313  11.817  24.612  0.00  0.00     0.209 HD
ENDBRANCH  51  54
ENDBRANCH  19  51
ENDBRANCH  12  13
ENDBRANCH   6  12
BRANCH   2  56
ATOM     56  OBA 9PN d   1     -14.460  10.898  20.597  0.00  0.00    -0.388 OA
ATOM     57  H21 9PN d   1     -13.885  10.156  20.453  0.00  0.00     0.210 HD
ENDBRANCH   2  56
BRANCH   5  58
ATOM     58  OAZ 9PN d   1     -12.740  11.127  25.117  0.00  0.00    -0.390 OA
ATOM     59  H27 9PN d   1     -12.355  11.982  24.967  0.00  0.00     0.210 HD
ENDBRANCH   5  58
BRANCH   1  60
ATOM     60  NBI 9PN d   1     -16.952   9.558  21.851  0.00  0.00    -0.229 N 
ATOM     61  CBH 9PN d   1     -17.607   8.444  21.526  0.00  0.00     0.029 A 
ATOM     62  CBL 9PN d   1     -18.799   8.878  21.158  0.00  0.00     0.075 A 
ATOM     63  H18 9PN d   1     -17.245   7.418  21.557  0.00  0.00     0.117 H 
ATOM     64  NBK 9PN d   1     -18.806  10.196  21.289  0.00  0.00    -0.135 NA
ATOM     65  NBJ 9PN d   1     -17.721  10.539  21.698  0.00  0.00    -0.064 NA
BRANCH  62  66
ATOM     66  CBM 9PN d   1     -20.001   8.053  20.671  0.00  0.00    -0.020 C 
ATOM     67  H16 9PN d   1     -19.816   6.981  20.832  0.00  0.00     0.042 H 
ATOM     68  H17 9PN d   1     -20.911   8.353  21.211  0.00  0.00     0.042 H 
BRANCH  66  69
ATOM     69  CBU 9PN d   1     -20.150   8.342  19.194  0.00  0.00    -0.045 C 
ATOM     70  H14 9PN d   1     -20.134   9.425  19.003  0.00  0.00     0.035 H 
ATOM     71  H15 9PN d   1     -19.350   7.856  18.616  0.00  0.00     0.035 H 
BRANCH  69  72
ATOM     72  CBN 9PN d   1     -21.501   7.752  18.848  0.00  0.00    -0.005 C 
ATOM     73  H12 9PN d   1     -21.608   6.795  19.380  0.00  0.00     0.064 H 
ATOM     74  H13 9PN d   1     -22.281   8.449  19.188  0.00  0.00     0.064 H 
BRANCH  72  75
ATOM     75  NBQ 9PN d   1     -21.694   7.504  17.390  0.00  0.00    -0.387 N 
ATOM     76  CBP 9PN d   1     -22.786   6.697  17.019  0.00  0.00    -0.025 A 
ATOM     77  CBO 9PN d   1     -23.042   6.416  15.681  0.00  0.00    -0.069 A 
ATOM     78  H6  9PN d   1     -23.438   6.288  17.789  0.00  0.00     0.111 H 
ATOM     79  CBT 9PN d   1     -22.213   6.939  14.693  0.00  0.00    -0.084 A 
ATOM     80  H7  9PN d   1     -23.889   5.788  15.407  0.00  0.00     0.085 H 
ATOM     81  CBS 9PN d   1     -21.124   7.742  15.037  0.00  0.00    -0.086 A 
ATOM     82  H8  9PN d   1     -22.415   6.721  13.645  0.00  0.00     0.083 H 
ATOM     83  CBR 9PN d   1     -20.854   8.033  16.376  0.00  0.00     0.009 A 
ATOM     84  H9  9PN d   1     -20.481   8.144  14.256  0.00  0.00     0.079 H 
ATOM     85  H10 9PN d   1     -20.881   9.128  16.477  0.00  0.00     0.070 H 
ATOM     86  H11 9PN d   1     -19.836   7.671  16.583  0.00  0.00     0.070 H 
ENDBRANCH  72  75
ENDBRANCH  69  72
ENDBRANCH  66  69
ENDBRANCH  62  66
ENDBRANCH   1  60
BRANCH   4  87
ATOM     87  CAJ 9PN d   1     -14.886   9.368  26.031  0.00  0.00     0.043 C 
ATOM     88  H23 9PN d   1     -14.142   9.884  26.655  0.00  0.00     0.078 H 
ATOM     89  H24 9PN d   1     -14.835   8.285  26.218  0.00  0.00     0.078 H 
BRANCH  87  90
ATOM     90  OBB 9PN d   1     -16.186   9.843  26.356  0.00  0.00    -0.398 OA
ATOM     91  H25 9PN d   1     -16.829   9.397  25.817  0.00  0.00     0.209 HD
ENDBRANCH  87  90
ENDBRANCH   4  87
TORSDOF 22
