REMARK  23 active torsions:
REMARK  status: ('A' for Active; 'I' for Inactive)
REMARK    1  A    between atoms: C4_1  and  O4_38 
REMARK    2  A    between atoms: C5_2  and  C6_3 
REMARK    3  A    between atoms: C6_3  and  O6_37 
REMARK    4  A    between atoms: C3_4  and  O3_39 
REMARK    5  A    between atoms: CBU_7  and  NBV_8 
REMARK    6  A    between atoms: CBN_14  and  CBR_13 
REMARK    7  A    between atoms: OBO_15  and  CBN_14 
REMARK    8  A    between atoms: CBM_16  and  OBO_15 
REMARK    9  A    between atoms: CBL_17  and  CBM_16 
REMARK   10  A    between atoms: CAG_22  and  NBI_21 
REMARK   11  A    between atoms: CAK_23  and  OBA_24 
REMARK   12  A    between atoms: CAI_26  and  CAJ_27 
REMARK   13  A    between atoms: CAJ_27  and  OBB_28 
REMARK   14  A    between atoms: CAH_29  and  OAZ_30 
REMARK   15  A    between atoms: O1_32  and  CAL_31 
REMARK   16  A    between atoms: C1_33  and  O1_32 
REMARK   17  A    between atoms: C2_34  and  O2_35 
REMARK   18  A    between atoms: O3_39  and  CAM_40 
REMARK   19  A    between atoms: CAO_42  and  CAP_43 
REMARK   20  A    between atoms: CAP_43  and  OBG_44 
REMARK   21  A    between atoms: CAN_45  and  OBE_46 
REMARK   22  A    between atoms: CAR_47  and  OBC_48 
REMARK   23  A    between atoms: CAQ_49  and  OBF_50 
ROOT
ATOM      1  CAG 9PW d   1      93.883  13.076  82.545  0.00  0.00     0.154 C 
ATOM      2  CAK 9PW d   1      92.549  13.294  81.817  0.00  0.00     0.106 C 
ATOM      3  OAY 9PW d   1      94.036  14.051  83.614  0.00  0.00    -0.352 OA
ATOM      4  CAI 9PW d   1      94.018  15.401  83.141  0.00  0.00     0.088 C 
ATOM      5  CAH 9PW d   1      92.616  15.685  82.609  0.00  0.00     0.090 C 
ATOM      6  CAL 9PW d   1      92.386  14.772  81.419  0.00  0.00     0.097 C 
ATOM      7  H15 9PW d   1      94.697  13.177  81.811  0.00  0.00     0.125 H 
ATOM      8  H16 9PW d   1      91.720  12.999  82.477  0.00  0.00     0.094 H 
ATOM      9  H18 9PW d   1      94.737  15.507  82.316  0.00  0.00     0.090 H 
ATOM     10  H22 9PW d   1      91.874  15.474  83.393  0.00  0.00     0.091 H 
ATOM     11  H24 9PW d   1      93.116  15.011  80.632  0.00  0.00     0.091 H 
ENDROOT
BRANCH   6  12
ATOM     12  O1  9PW d   1      91.052  15.007  80.923  0.00  0.00    -0.348 OA
BRANCH  12  13
ATOM     13  C1  9PW d   1      91.004  15.280  79.501  0.00  0.00     0.159 C 
ATOM     14  C2  9PW d   1      89.544  15.381  79.060  0.00  0.00     0.110 C 
ATOM     15  C3  9PW d   1      89.456  15.628  77.537  0.00  0.00     0.098 C 
ATOM     16  H26 9PW d   1      89.054  16.209  79.594  0.00  0.00     0.094 H 
ATOM     17  C4  9PW d   1      90.330  16.819  77.110  0.00  0.00     0.090 C 
ATOM     18  H5  9PW d   1      89.806  14.727  77.011  0.00  0.00     0.091 H 
ATOM     19  C5  9PW d   1      91.755  16.710  77.718  0.00  0.00     0.089 C 
ATOM     20  H1  9PW d   1      89.860  17.748  77.465  0.00  0.00     0.091 H 
ATOM     21  O5  9PW d   1      91.684  16.508  79.164  0.00  0.00    -0.348 OA
ATOM     22  H2  9PW d   1      92.261  15.846  77.263  0.00  0.00     0.090 H 
ATOM     23  H25 9PW d   1      91.489  14.450  78.966  0.00  0.00     0.133 H 
BRANCH  14  24
ATOM     24  O2  9PW d   1      88.895  14.150  79.374  0.00  0.00    -0.388 OA
ATOM     25  H27 9PW d   1      88.943  13.998  80.311  0.00  0.00     0.210 HD
ENDBRANCH  14  24
BRANCH  15  26
ATOM     26  O3  9PW d   1      88.064  15.885  77.173  0.00  0.00    -0.348 OA
BRANCH  26  27
ATOM     27  CAM 9PW d   1      87.450  14.738  76.539  0.00  0.00     0.159 C 
ATOM     28  OBD 9PW d   1      88.066  14.476  75.263  0.00  0.00    -0.348 OA
ATOM     29  CAO 9PW d   1      87.618  13.241  74.711  0.00  0.00     0.089 C 
ATOM     30  CAN 9PW d   1      86.142  13.416  74.364  0.00  0.00     0.090 C 
ATOM     31  H31 9PW d   1      87.736  12.421  75.435  0.00  0.00     0.090 H 
ATOM     32  CAR 9PW d   1      85.351  13.753  75.615  0.00  0.00     0.092 C 
ATOM     33  H35 9PW d   1      86.047  14.246  73.649  0.00  0.00     0.091 H 
ATOM     34  CAQ 9PW d   1      85.956  14.967  76.325  0.00  0.00     0.110 C 
ATOM     35  H37 9PW d   1      85.341  12.888  76.294  0.00  0.00     0.091 H 
ATOM     36  H39 9PW d   1      85.808  15.862  75.702  0.00  0.00     0.094 H 
ATOM     37  H30 9PW d   1      87.587  13.862  77.190  0.00  0.00     0.133 H 
BRANCH  29  38
ATOM     38  CAP 9PW d   1      88.482  12.968  73.468  0.00  0.00     0.043 C 
ATOM     39  H32 9PW d   1      87.978  12.228  72.828  0.00  0.00     0.078 H 
ATOM     40  H33 9PW d   1      89.460  12.576  73.782  0.00  0.00     0.078 H 
BRANCH  38  41
ATOM     41  OBG 9PW d   1      88.671  14.189  72.730  0.00  0.00    -0.398 OA
ATOM     42  H34 9PW d   1      89.106  14.828  73.282  0.00  0.00     0.209 HD
ENDBRANCH  38  41
ENDBRANCH  29  38
BRANCH  30  43
ATOM     43  OBE 9PW d   1      85.599  12.216  73.755  0.00  0.00    -0.390 OA
ATOM     44  H36 9PW d   1      84.682  12.354  73.550  0.00  0.00     0.210 HD
ENDBRANCH  30  43
BRANCH  32  45
ATOM     45  OBC 9PW d   1      84.020  14.095  75.223  0.00  0.00    -0.390 OA
ATOM     46  H38 9PW d   1      83.624  13.357  74.774  0.00  0.00     0.210 HD
ENDBRANCH  32  45
BRANCH  34  47
ATOM     47  OBF 9PW d   1      85.332  15.162  77.578  0.00  0.00    -0.388 OA
ATOM     48  H40 9PW d   1      85.716  15.917  78.008  0.00  0.00     0.210 HD
ENDBRANCH  34  47
ENDBRANCH  26  27
ENDBRANCH  15  26
BRANCH  17  49
ATOM     49  O4  9PW d   1      90.435  16.860  75.676  0.00  0.00    -0.390 OA
ATOM     50  H29 9PW d   1      90.976  17.598  75.420  0.00  0.00     0.210 HD
ENDBRANCH  17  49
BRANCH  19  51
ATOM     51  C6  9PW d   1      92.583  17.973  77.434  0.00  0.00     0.043 C 
ATOM     52  H3  9PW d   1      92.757  18.059  76.351  0.00  0.00     0.078 H 
ATOM     53  H4  9PW d   1      93.548  17.901  77.956  0.00  0.00     0.078 H 
BRANCH  51  54
ATOM     54  O6  9PW d   1      91.882  19.128  77.893  0.00  0.00    -0.398 OA
ATOM     55  H28 9PW d   1      92.400  19.904  77.714  0.00  0.00     0.209 HD
ENDBRANCH  51  54
ENDBRANCH  19  51
ENDBRANCH  12  13
ENDBRANCH   6  12
BRANCH   2  56
ATOM     56  OBA 9PW d   1      92.531  12.496  80.632  0.00  0.00    -0.388 OA
ATOM     57  H17 9PW d   1      93.251  12.753  80.068  0.00  0.00     0.210 HD
ENDBRANCH   2  56
BRANCH   5  58
ATOM     58  OAZ 9PW d   1      92.487  17.057  82.191  0.00  0.00    -0.390 OA
ATOM     59  H23 9PW d   1      91.607  17.206  81.865  0.00  0.00     0.210 HD
ENDBRANCH   5  58
BRANCH   1  60
ATOM     60  NBI 9PW d   1      94.006  11.760  83.254  0.00  0.00    -0.229 N 
ATOM     61  CBH 9PW d   1      95.081  10.981  83.333  0.00  0.00     0.031 A 
ATOM     62  CBL 9PW d   1      94.712   9.956  84.090  0.00  0.00     0.099 A 
ATOM     63  H14 9PW d   1      96.055  11.149  82.875  0.00  0.00     0.117 H 
ATOM     64  NBK 9PW d   1      93.456  10.144  84.464  0.00  0.00    -0.133 NA
ATOM     65  NBJ 9PW d   1      93.079  11.226  83.948  0.00  0.00    -0.064 NA
BRANCH  62  66
ATOM     66  CBM 9PW d   1      95.586   8.768  84.500  0.00  0.00     0.063 C 
ATOM     67  H12 9PW d   1      96.571   8.846  84.016  0.00  0.00     0.084 H 
ATOM     68  H13 9PW d   1      95.714   8.760  85.593  0.00  0.00     0.084 H 
BRANCH  66  69
ATOM     69  OBO 9PW d   1      94.938   7.572  84.083  0.00  0.00    -0.381 OA
BRANCH  69  70
ATOM     70  CBN 9PW d   1      95.947   6.573  83.787  0.00  0.00     0.044 C 
ATOM     71  H10 9PW d   1      96.475   6.857  82.865  0.00  0.00     0.081 H 
ATOM     72  H11 9PW d   1      96.663   6.527  84.621  0.00  0.00     0.081 H 
BRANCH  70  73
ATOM     73  CBR 9PW d   1      95.376   5.333  83.615  0.00  0.00    -0.034 A 
ATOM     74  CBQ 9PW d   1      95.909   4.496  82.628  0.00  0.00    -0.072 A 
ATOM     75  CBP 9PW d   1      95.383   3.226  82.418  0.00  0.00    -0.050 A 
ATOM     76  H6  9PW d   1      96.739   4.841  82.022  0.00  0.00     0.084 H 
ATOM     77  CBU 9PW d   1      94.324   2.767  83.196  0.00  0.00     0.102 A 
ATOM     78  H7  9PW d   1      95.800   2.591  81.645  0.00  0.00     0.087 H 
ATOM     79  CBT 9PW d   1      93.786   3.590  84.193  0.00  0.00    -0.050 A 
ATOM     80  CBS 9PW d   1      94.315   4.869  84.408  0.00  0.00    -0.072 A 
ATOM     81  H8  9PW d   1      92.959   3.237  84.799  0.00  0.00     0.087 H 
ATOM     82  H9  9PW d   1      93.905   5.501  85.187  0.00  0.00     0.084 H 
BRANCH  77  83
ATOM     83  NBV 9PW d   1      93.836   1.544  82.967  0.00  0.00    -0.116 N 
ATOM     84  OBX 9PW d   1      93.089   1.320  81.745  0.00  0.00    -0.532 OA
ATOM     85  OBW 9PW d   1      94.079   0.463  83.961  0.00  0.00    -0.532 OA
ENDBRANCH  77  83
ENDBRANCH  70  73
ENDBRANCH  69  70
ENDBRANCH  66  69
ENDBRANCH  62  66
ENDBRANCH   1  60
BRANCH   4  86
ATOM     86  CAJ 9PW d   1      94.432  16.356  84.264  0.00  0.00     0.043 C 
ATOM     87  H19 9PW d   1      94.375  17.393  83.902  0.00  0.00     0.078 H 
ATOM     88  H20 9PW d   1      95.463  16.132  84.574  0.00  0.00     0.078 H 
BRANCH  86  89
ATOM     89  OBB 9PW d   1      93.561  16.194  85.371  0.00  0.00    -0.398 OA
ATOM     90  H21 9PW d   1      93.611  15.298  85.683  0.00  0.00     0.209 HD
ENDBRANCH  86  89
ENDBRANCH   4  86
TORSDOF 23
