REMARK  22 active torsions:
REMARK  status: ('A' for Active; 'I' for Inactive)
REMARK    1  A    between atoms: C4_1  and  O4_28 
REMARK    2  A    between atoms: C5_2  and  C6_3 
REMARK    3  A    between atoms: C6_3  and  O6_27 
REMARK    4  A    between atoms: C3_4  and  O3_29 
REMARK    5  A    between atoms: CBN_15  and  NBQ_14 
REMARK    6  A    between atoms: CBO_16  and  CBN_15 
REMARK    7  A    between atoms: CAA_17  and  CBO_16 
REMARK    8  A    between atoms: CAB_18  and  CAA_17 
REMARK    9  A    between atoms: C1_23  and  NAF_22 
REMARK   10  A    between atoms: C2_24  and  O2_25 
REMARK   11  A    between atoms: O3_29  and  CAR_30 
REMARK   12  A    between atoms: CAS_31  and  OAT_32 
REMARK   13  A    between atoms: CAV_34  and  CAW_35 
REMARK   14  A    between atoms: CAW_35  and  OAX_36 
REMARK   15  A    between atoms: CAY_37  and  OAZ_38 
REMARK   16  A    between atoms: CBA_39  and  OBB_40 
REMARK   17  A    between atoms: OBB_40  and  CBC_41 
REMARK   18  A    between atoms: CBE_43  and  CBF_44 
REMARK   19  A    between atoms: CBF_44  and  OBG_45 
REMARK   20  A    between atoms: CBH_46  and  OBI_47 
REMARK   21  A    between atoms: CBJ_48  and  OBK_49 
REMARK   22  A    between atoms: CBL_50  and  OBM_51 
ROOT
ATOM      1  C4  9PT d   1      10.775 -10.697 -24.420  0.00  0.00     0.090 C 
ATOM      2  C5  9PT d   1      10.134  -9.317 -24.546  0.00  0.00     0.088 C 
ATOM      3  C3  9PT d   1      11.251 -10.851 -22.979  0.00  0.00     0.097 C 
ATOM      4  C1  9PT d   1       9.366  -9.353 -22.268  0.00  0.00     0.154 C 
ATOM      5  C2  9PT d   1      10.075 -10.686 -22.012  0.00  0.00     0.106 C 
ATOM      6  O5  9PT d   1       9.044  -9.236 -23.640  0.00  0.00    -0.352 OA
ATOM      7  H1  9PT d   1      10.026 -11.469 -24.651  0.00  0.00     0.091 H 
ATOM      8  H2  9PT d   1      10.902  -8.564 -24.316  0.00  0.00     0.090 H 
ATOM      9  H5  9PT d   1      12.022 -10.100 -22.755  0.00  0.00     0.091 H 
ATOM     10  H21 9PT d   1      10.002  -8.530 -21.911  0.00  0.00     0.125 H 
ATOM     11  H22 9PT d   1       9.366 -11.514 -22.161  0.00  0.00     0.094 H 
ENDROOT
BRANCH   3  12
ATOM     12  O3  9PT d   1      11.791 -12.167 -22.847  0.00  0.00    -0.348 OA
BRANCH  12  13
ATOM     13  CAR 9PT d   1      12.996 -12.263 -22.096  0.00  0.00     0.159 C 
ATOM     14  CAS 9PT d   1      13.317 -13.745 -21.883  0.00  0.00     0.110 C 
ATOM     15  CBA 9PT d   1      14.644 -13.862 -21.149  0.00  0.00     0.098 C 
ATOM     16  H27 9PT d   1      13.382 -14.259 -22.853  0.00  0.00     0.094 H 
ATOM     17  CAY 9PT d   1      15.754 -13.107 -21.879  0.00  0.00     0.090 C 
ATOM     18  H35 9PT d   1      14.530 -13.446 -20.137  0.00  0.00     0.091 H 
ATOM     19  CAV 9PT d   1      15.303 -11.655 -22.139  0.00  0.00     0.089 C 
ATOM     20  H33 9PT d   1      15.978 -13.602 -22.835  0.00  0.00     0.091 H 
ATOM     21  OAU 9PT d   1      14.045 -11.670 -22.843  0.00  0.00    -0.348 OA
ATOM     22  H29 9PT d   1      15.204 -11.143 -21.171  0.00  0.00     0.090 H 
ATOM     23  H26 9PT d   1      12.884 -11.754 -21.127  0.00  0.00     0.133 H 
BRANCH  14  24
ATOM     24  OAT 9PT d   1      12.279 -14.325 -21.097  0.00  0.00    -0.388 OA
ATOM     25  H28 9PT d   1      12.466 -15.246 -20.957  0.00  0.00     0.210 HD
ENDBRANCH  14  24
BRANCH  15  26
ATOM     26  OBB 9PT d   1      15.024 -15.250 -21.059  0.00  0.00    -0.348 OA
BRANCH  26  27
ATOM     27  CBC 9PT d   1      14.814 -15.814 -19.746  0.00  0.00     0.159 C 
ATOM     28  OBD 9PT d   1      15.607 -15.121 -18.764  0.00  0.00    -0.348 OA
ATOM     29  CBE 9PT d   1      15.349 -15.604 -17.418  0.00  0.00     0.089 C 
ATOM     30  CBH 9PT d   1      15.763 -17.111 -17.339  0.00  0.00     0.090 C 
ATOM     31  H37 9PT d   1      14.270 -15.517 -17.225  0.00  0.00     0.090 H 
ATOM     32  CBJ 9PT d   1      15.081 -17.933 -18.435  0.00  0.00     0.092 C 
ATOM     33  H41 9PT d   1      16.853 -17.184 -17.465  0.00  0.00     0.091 H 
ATOM     34  CBL 9PT d   1      15.259 -17.270 -19.795  0.00  0.00     0.110 C 
ATOM     35  H43 9PT d   1      14.009 -18.023 -18.206  0.00  0.00     0.091 H 
ATOM     36  H45 9PT d   1      16.322 -17.305 -20.076  0.00  0.00     0.094 H 
ATOM     37  H36 9PT d   1      13.750 -15.749 -19.476  0.00  0.00     0.133 H 
BRANCH  29  38
ATOM     38  CBF 9PT d   1      16.086 -14.834 -16.331  0.00  0.00     0.043 C 
ATOM     39  H38 9PT d   1      16.121 -15.420 -15.401  0.00  0.00     0.078 H 
ATOM     40  H39 9PT d   1      15.592 -13.870 -16.139  0.00  0.00     0.078 H 
BRANCH  38  41
ATOM     41  OBG 9PT d   1      17.410 -14.626 -16.844  0.00  0.00    -0.398 OA
ATOM     42  H40 9PT d   1      17.361 -14.128 -17.651  0.00  0.00     0.209 HD
ENDBRANCH  38  41
ENDBRANCH  29  38
BRANCH  30  43
ATOM     43  OBI 9PT d   1      15.395 -17.657 -16.045  0.00  0.00    -0.390 OA
ATOM     44  H42 9PT d   1      14.455 -17.583 -15.927  0.00  0.00     0.210 HD
ENDBRANCH  30  43
BRANCH  32  45
ATOM     45  OBK 9PT d   1      15.679 -19.246 -18.500  0.00  0.00    -0.390 OA
ATOM     46  H44 9PT d   1      15.253 -19.753 -19.181  0.00  0.00     0.210 HD
ENDBRANCH  32  45
BRANCH  34  47
ATOM     47  OBM 9PT d   1      14.499 -17.991 -20.755  0.00  0.00    -0.388 OA
ATOM     48  H46 9PT d   1      14.602 -17.586 -21.608  0.00  0.00     0.210 HD
ENDBRANCH  34  47
ENDBRANCH  26  27
ENDBRANCH  15  26
BRANCH  17  49
ATOM     49  OAZ 9PT d   1      16.911 -13.104 -21.051  0.00  0.00    -0.390 OA
ATOM     50  H34 9PT d   1      17.188 -13.999 -20.892  0.00  0.00     0.210 HD
ENDBRANCH  17  49
BRANCH  19  51
ATOM     51  CAW 9PT d   1      16.212 -10.845 -23.053  0.00  0.00     0.043 C 
ATOM     52  H30 9PT d   1      17.075 -10.476 -22.479  0.00  0.00     0.078 H 
ATOM     53  H31 9PT d   1      15.653  -9.992 -23.464  0.00  0.00     0.078 H 
BRANCH  51  54
ATOM     54  OAX 9PT d   1      16.674 -11.678 -24.129  0.00  0.00    -0.398 OA
ATOM     55  H32 9PT d   1      17.241 -11.172 -24.699  0.00  0.00     0.209 HD
ENDBRANCH  51  54
ENDBRANCH  19  51
ENDBRANCH  12  13
ENDBRANCH   3  12
BRANCH   1  56
ATOM     56  O4  9PT d   1      11.903 -10.855 -25.311  0.00  0.00    -0.390 OA
ATOM     57  H25 9PT d   1      11.611 -10.760 -26.210  0.00  0.00     0.210 HD
ENDBRANCH   1  56
BRANCH   5  58
ATOM     58  O2  9PT d   1      10.538 -10.694 -20.674  0.00  0.00    -0.388 OA
ATOM     59  H23 9PT d   1      11.143  -9.973 -20.545  0.00  0.00     0.210 HD
ENDBRANCH   5  58
BRANCH   2  60
ATOM     60  C6  9PT d   1       9.458  -8.961 -25.862  0.00  0.00     0.043 C 
ATOM     61  H3  9PT d   1       9.939  -8.070 -26.292  0.00  0.00     0.078 H 
ATOM     62  H4  9PT d   1       8.393  -8.752 -25.682  0.00  0.00     0.078 H 
BRANCH  60  63
ATOM     63  O6  9PT d   1       9.580 -10.048 -26.769  0.00  0.00    -0.398 OA
ATOM     64  H24 9PT d   1      10.500 -10.228 -26.924  0.00  0.00     0.209 HD
ENDBRANCH  60  63
ENDBRANCH   2  60
BRANCH   4  65
ATOM     65  NAF 9PT d   1       7.991  -9.255 -21.719  0.00  0.00    -0.229 N 
ATOM     66  CAC 9PT d   1       7.351  -8.164 -21.287  0.00  0.00     0.029 A 
ATOM     67  CAB 9PT d   1       6.144  -8.601 -20.951  0.00  0.00     0.075 A 
ATOM     68  H20 9PT d   1       7.734  -7.146 -21.225  0.00  0.00     0.117 H 
ATOM     69  NAD 9PT d   1       6.105  -9.907 -21.191  0.00  0.00    -0.135 NA
ATOM     70  NAE 9PT d   1       7.182 -10.252 -21.646  0.00  0.00    -0.064 NA
BRANCH  67  71
ATOM     71  CAA 9PT d   1       4.959  -7.791 -20.374  0.00  0.00    -0.020 C 
ATOM     72  H18 9PT d   1       5.154  -6.711 -20.445  0.00  0.00     0.042 H 
ATOM     73  H19 9PT d   1       4.027  -8.031 -20.907  0.00  0.00     0.042 H 
BRANCH  71  74
ATOM     74  CBO 9PT d   1       4.876  -8.226 -18.926  0.00  0.00    -0.045 C 
ATOM     75  H16 9PT d   1       4.708  -9.312 -18.873  0.00  0.00     0.035 H 
ATOM     76  H17 9PT d   1       5.813  -7.974 -18.408  0.00  0.00     0.035 H 
BRANCH  74  77
ATOM     77  CBN 9PT d   1       3.711  -7.492 -18.271  0.00  0.00    -0.000 C 
ATOM     78  H14 9PT d   1       3.776  -6.420 -18.510  0.00  0.00     0.064 H 
ATOM     79  H15 9PT d   1       2.763  -7.897 -18.656  0.00  0.00     0.064 H 
BRANCH  77  80
ATOM     80  NBQ 9PT d   1       3.760  -7.672 -16.788  0.00  0.00    -0.357 N 
ATOM     81  CBR 9PT d   1       4.857  -8.352 -16.146  0.00  0.00    -0.023 A 
ATOM     82  CBS 9PT d   1       4.903  -8.516 -14.766  0.00  0.00    -0.084 A 
ATOM     83  H6  9PT d   1       5.668  -8.746 -16.756  0.00  0.00     0.111 H 
ATOM     84  CBP 9PT d   1       3.872  -8.016 -13.987  0.00  0.00    -0.022 A 
ATOM     85  H7  9PT d   1       5.742  -9.033 -14.302  0.00  0.00     0.079 H 
ATOM     86  CBT 9PT d   1       2.808  -7.350 -14.591  0.00  0.00    -0.028 A 
ATOM     87  H8  9PT d   1       4.325  -7.312 -13.274  0.00  0.00     0.046 H 
ATOM     88  H9  9PT d   1       3.444  -8.869 -13.439  0.00  0.00     0.046 H 
ATOM     89  CBY 9PT d   1       1.795  -6.864 -13.759  0.00  0.00    -0.074 A 
ATOM     90  CBU 9PT d   1       2.752  -7.180 -15.995  0.00  0.00     0.040 A 
ATOM     91  CBX 9PT d   1       0.702  -6.193 -14.299  0.00  0.00    -0.082 A 
ATOM     92  H10 9PT d   1       1.861  -7.011 -12.687  0.00  0.00     0.084 H 
ATOM     93  CBW 9PT d   1       0.625  -6.011 -15.676  0.00  0.00    -0.081 A 
ATOM     94  H11 9PT d   1      -0.082  -5.816 -13.653  0.00  0.00     0.083 H 
ATOM     95  CBV 9PT d   1       1.635  -6.498 -16.517  0.00  0.00    -0.057 A 
ATOM     96  H12 9PT d   1      -0.223  -5.488 -16.102  0.00  0.00     0.083 H 
ATOM     97  H13 9PT d   1       1.555  -6.347 -17.587  0.00  0.00     0.086 H 
ENDBRANCH  77  80
ENDBRANCH  74  77
ENDBRANCH  71  74
ENDBRANCH  67  71
ENDBRANCH   4  65
TORSDOF 22
