REMARK  4 active torsions:
REMARK  status: ('A' for Active; 'I' for Inactive)
REMARK    1  A    between atoms: C12_1  and  C9_4 
REMARK    2  A    between atoms: N1_9  and  C8_3 
REMARK    3  A    between atoms: C9_4  and  O3_6 
REMARK    4  A    between atoms: O3_6  and  C3_14 
ROOT
ATOM      1  C7  TKT d   1      50.745  23.293  56.061  0.00  0.00    -0.036 C 
ATOM      2  C6  TKT d   1      51.383  24.675  56.258  0.00  0.00    -0.036 C 
ATOM      3  N1  TKT d   1      53.121  23.093  55.796  0.00  0.00    -0.066 N 
ATOM      4  C5  TKT d   1      52.790  24.530  55.665  0.00  0.00     0.106 C 
ATOM      5  C4  TKT d   1      52.838  24.869  54.164  0.00  0.00    -0.013 C 
ATOM      6  C1  TKT d   1      51.848  22.464  55.381  0.00  0.00     0.106 C 
ATOM      7  C2  TKT d   1      51.784  22.562  53.848  0.00  0.00    -0.013 C 
ATOM      8  C3  TKT d   1      51.882  24.009  53.339  0.00  0.00     0.052 C 
ATOM      9  H5  TKT d   1      49.855  23.362  55.418  0.00  0.00     0.036 H 
ATOM     10  H6  TKT d   1      50.465  22.851  57.028  0.00  0.00     0.036 H 
ATOM     11  H7  TKT d   1      51.435  24.932  57.326  0.00  0.00     0.036 H 
ATOM     12  H8  TKT d   1      50.812  25.448  55.722  0.00  0.00     0.036 H 
ATOM     13  H9  TKT d   1      53.829  22.864  55.116  0.00  0.00     0.280 HD
ATOM     14  H10 TKT d   1      53.504  25.160  56.216  0.00  0.00     0.084 H 
ATOM     15  H11 TKT d   1      53.863  24.707  53.798  0.00  0.00     0.039 H 
ATOM     16  H12 TKT d   1      52.564  25.926  54.032  0.00  0.00     0.039 H 
ATOM     17  H13 TKT d   1      51.792  21.412  55.698  0.00  0.00     0.084 H 
ATOM     18  H14 TKT d   1      50.830  22.134  53.508  0.00  0.00     0.039 H 
ATOM     19  H15 TKT d   1      52.617  21.983  53.424  0.00  0.00     0.039 H 
ATOM     20  H16 TKT d   1      52.227  23.990  52.295  0.00  0.00     0.084 H 
ENDROOT
BRANCH   8  21
ATOM     21  O3  TKT d   1      50.556  24.644  53.413  0.00  0.00    -0.312 OA
BRANCH  21  22
ATOM     22  C9  TKT d   1      49.803  24.736  52.277  0.00  0.00     0.296 C 
ATOM     23  O4  TKT d   1      50.019  24.237  51.186  0.00  0.00    -0.259 OA
BRANCH  22  24
ATOM     24  C12 TKT d   1      48.637  25.492  52.589  0.00  0.00     0.067 A 
ATOM     25  C11 TKT d   1      48.233  26.035  53.791  0.00  0.00    -0.006 A 
ATOM     26  N10 TKT d   1      47.050  26.692  53.631  0.00  0.00    -0.364 N 
ATOM     27  H4  TKT d   1      48.779  25.951  54.730  0.00  0.00     0.112 H 
ATOM     28  C15 TKT d   1      46.668  26.616  52.308  0.00  0.00     0.043 A 
ATOM     29  H20 TKT d   1      46.525  27.169  54.378  0.00  0.00     0.165 HD
ATOM     30  C16 TKT d   1      47.651  25.871  51.621  0.00  0.00     0.008 A 
ATOM     31  C21 TKT d   1      45.625  27.249  51.636  0.00  0.00    -0.056 A 
ATOM     32  C17 TKT d   1      47.595  25.794  50.226  0.00  0.00    -0.070 A 
ATOM     33  C18 TKT d   1      46.565  26.436  49.550  0.00  0.00    -0.082 A 
ATOM     34  H18 TKT d   1      48.348  25.239  49.678  0.00  0.00     0.084 H 
ATOM     35  C13 TKT d   1      45.579  27.147  50.248  0.00  0.00    -0.081 A 
ATOM     36  H19 TKT d   1      46.523  26.386  48.468  0.00  0.00     0.083 H 
ATOM     37  H17 TKT d   1      44.772  27.622  49.702  0.00  0.00     0.083 H 
ATOM     38  H21 TKT d   1      44.870  27.806  52.179  0.00  0.00     0.086 H 
ENDBRANCH  22  24
ENDBRANCH  21  22
ENDBRANCH   8  21
BRANCH   3  39
ATOM     39  C8  TKT d   1      53.661  22.666  57.089  0.00  0.00     0.067 C 
ATOM     40  H1  TKT d   1      54.603  23.199  57.287  0.00  0.00     0.068 H 
ATOM     41  H2  TKT d   1      53.850  21.583  57.068  0.00  0.00     0.068 H 
ATOM     42  H3  TKT d   1      52.936  22.896  57.883  0.00  0.00     0.068 H 
ENDBRANCH   3  39
TORSDOF 4
