REMARK  0 active torsions:
REMARK  status: ('A' for Active; 'I' for Inactive)
ROOT
ATOM      1  CAV SY9 d   1      33.859  19.433  24.848  0.00  0.00     0.118 C 
ATOM      2  CAU SY9 d   1      32.883  18.417  25.417  0.00  0.00    -0.030 C 
ATOM      3  CAT SY9 d   1      31.474  19.027  25.415  0.00  0.00    -0.021 C 
ATOM      4  CAN SY9 d   1      31.070  19.132  23.939  0.00  0.00    -0.000 C 
ATOM      5  CAK SY9 d   1      31.981  20.088  23.173  0.00  0.00     0.040 C 
ATOM      6  NAH SY9 d   1      31.807  19.776  21.735  0.00  0.00    -0.311 N 
ATOM      7  CAA SY9 d   1      32.992  19.236  21.217  0.00  0.00     0.044 A 
ATOM      8  CAF SY9 d   1      33.197  18.679  19.953  0.00  0.00    -0.056 A 
ATOM      9  CAE SY9 d   1      34.304  17.870  19.777  0.00  0.00    -0.081 A 
ATOM     10  CAD SY9 d   1      35.203  17.652  20.825  0.00  0.00    -0.082 A 
ATOM     11  CAC SY9 d   1      35.026  18.273  22.050  0.00  0.00    -0.074 A 
ATOM     12  CAB SY9 d   1      33.921  19.087  22.242  0.00  0.00    -0.018 A 
ATOM     13  CAG SY9 d   1      33.508  19.937  23.422  0.00  0.00     0.041 C 
ATOM     14  CAW SY9 d   1      34.188  21.317  23.433  0.00  0.00    -0.027 C 
ATOM     15  CAX SY9 d   1      33.890  21.840  24.830  0.00  0.00     0.085 C 
ATOM     16  NAY SY9 d   1      33.914  20.665  25.702  0.00  0.00    -0.062 N 
ATOM     17  CAS SY9 d   1      32.846  20.713  26.715  0.00  0.00     0.104 C 
ATOM     18  CAR SY9 d   1      31.508  20.365  26.124  0.00  0.00    -0.051 C 
ATOM     19  CAQ SY9 d   1      30.469  21.180  26.161  0.00  0.00    -0.076 C 
ATOM     20  CAP SY9 d   1      29.134  20.832  25.577  0.00  0.00     0.035 C 
ATOM     21  OAO SY9 d   1      29.187  20.763  24.137  0.00  0.00    -0.381 OA
ATOM     22  CAM SY9 d   1      29.613  19.504  23.608  0.00  0.00     0.053 C 
ATOM     23  CAL SY9 d   1      29.391  19.603  22.056  0.00  0.00     0.034 C 
ATOM     24  CAI SY9 d   1      30.579  19.788  21.136  0.00  0.00     0.227 C 
ATOM     25  OAJ SY9 d   1      30.440  19.943  19.922  0.00  0.00    -0.273 OA
ATOM     26  H1  SY9 d   1      34.852  18.962  24.821  0.00  0.00     0.086 H 
ATOM     27  H2  SY9 d   1      33.174  18.162  26.447  0.00  0.00     0.037 H 
ATOM     28  H3  SY9 d   1      32.893  17.508  24.797  0.00  0.00     0.037 H 
ATOM     29  H4  SY9 d   1      30.771  18.365  25.942  0.00  0.00     0.048 H 
ATOM     30  H5  SY9 d   1      31.228  18.126  23.523  0.00  0.00     0.048 H 
ATOM     31  H6  SY9 d   1      31.678  21.122  23.396  0.00  0.00     0.076 H 
ATOM     32  H7  SY9 d   1      32.511  18.875  19.137  0.00  0.00     0.086 H 
ATOM     33  H8  SY9 d   1      34.477  17.399  18.816  0.00  0.00     0.083 H 
ATOM     34  H9  SY9 d   1      36.048  16.989  20.677  0.00  0.00     0.083 H 
ATOM     35  H10 SY9 d   1      35.743  18.124  22.849  0.00  0.00     0.084 H 
ATOM     36  H11 SY9 d   1      33.756  21.976  22.665  0.00  0.00     0.037 H 
ATOM     37  H12 SY9 d   1      35.272  21.224  23.270  0.00  0.00     0.037 H 
ATOM     38  H13 SY9 d   1      32.900  22.319  24.858  0.00  0.00     0.076 H 
ATOM     39  H14 SY9 d   1      34.657  22.565  25.141  0.00  0.00     0.076 H 
ATOM     40  H15 SY9 d   1      34.793  20.660  26.195  0.00  0.00     0.280 HD
ATOM     41  H16 SY9 d   1      32.798  21.728  27.135  0.00  0.00     0.083 H 
ATOM     42  H17 SY9 d   1      33.080  19.996  27.515  0.00  0.00     0.083 H 
ATOM     43  H18 SY9 d   1      30.589  22.151  26.639  0.00  0.00     0.080 H 
ATOM     44  H19 SY9 d   1      28.404  21.601  25.871  0.00  0.00     0.080 H 
ATOM     45  H20 SY9 d   1      28.816  19.855  25.970  0.00  0.00     0.080 H 
ATOM     46  H21 SY9 d   1      28.967  18.714  24.018  0.00  0.00     0.084 H 
ATOM     47  H22 SY9 d   1      28.719  20.457  21.884  0.00  0.00     0.051 H 
ATOM     48  H23 SY9 d   1      28.890  18.674  21.746  0.00  0.00     0.051 H 
ENDROOT
TORSDOF 0
