REMARK  7 active torsions:
REMARK  status: ('A' for Active; 'I' for Inactive)
REMARK    1  A    between atoms: C13_11  and  C14_2 
REMARK    2  A    between atoms: C14_2  and  S1_18 
REMARK    3  A    between atoms: O2_17  and  C9_8 
REMARK    4  A    between atoms: C1_15  and  C3_12 
REMARK    5  A    between atoms: P1_14  and  C1_15 
REMARK    6  A    between atoms: P1_14  and  O2_17 
REMARK    7  A    between atoms: C1_15  and  C2_16 
ROOT
ATOM      1  C11 MOL d   1      40.797  16.710  19.376  0.00  0.00    -0.067 A 
ATOM      2  C9  MOL d   1      39.499  15.567  17.741  0.00  0.00     0.082 A 
ATOM      3  C10 MOL d   1      39.621  16.116  19.014  0.00  0.00    -0.049 A 
ATOM      4  C12 MOL d   1      41.896  16.746  18.510  0.00  0.00     0.005 A 
ATOM      5  C13 MOL d   1      43.185  17.350  18.803  0.00  0.00    -0.023 A 
ATOM      6  C15 MOL d   1      44.139  17.316  17.854  0.00  0.00    -0.002 A 
ATOM      7  C16 MOL d   1      43.955  16.688  16.587  0.00  0.00     0.288 A 
ATOM      8  O6  MOL d   1      42.724  16.139  16.321  0.00  0.00    -0.275 OA
ATOM      9  O7  MOL d   1      44.758  16.581  15.701  0.00  0.00    -0.260 OA
ATOM     10  C17 MOL d   1      41.713  16.192  17.243  0.00  0.00     0.093 A 
ATOM     11  C18 MOL d   1      40.543  15.599  16.845  0.00  0.00    -0.017 A 
ATOM     12  H6  MOL d   1      40.881  17.164  20.357  0.00  0.00     0.085 H 
ATOM     13  H9  MOL d   1      38.792  16.073  19.711  0.00  0.00     0.087 H 
ATOM     14  H14 MOL d   1      45.096  17.791  18.064  0.00  0.00     0.093 H 
ATOM     15  H15 MOL d   1      40.443  15.169  15.855  0.00  0.00     0.092 H 
ENDROOT
BRANCH   2  16
ATOM     16  O2  MOL d   1      38.287  15.015  17.365  0.00  0.00    -0.269 OA
BRANCH  16  17
ATOM     17  P1  MOL d   1      37.569  13.812  18.161  0.00  0.00     0.263 P 
ATOM     18  O1  MOL d   1      36.736  14.317  19.326  0.00  0.00    -0.646 OA
ATOM     19  O8  MOL d   1      38.581  12.764  18.542  0.00  0.00    -0.646 OA
BRANCH  17  20
ATOM     20  C1  MOL d   1      36.562  13.250  16.747  0.00  0.00     0.069 C 
ATOM     21  H10 MOL d   1      36.161  14.147  16.253  0.00  0.00     0.066 H 
BRANCH  20  22
ATOM     22  C3  MOL d   1      35.368  12.480  17.286  0.00  0.00    -0.042 A 
ATOM     23  C4  MOL d   1      34.266  13.176  17.741  0.00  0.00    -0.076 A 
ATOM     24  C5  MOL d   1      33.146  12.507  18.214  0.00  0.00    -0.082 A 
ATOM     25  H1  MOL d   1      34.276  14.260  17.729  0.00  0.00     0.084 H 
ATOM     26  C6  MOL d   1      33.089  11.136  18.174  0.00  0.00    -0.083 A 
ATOM     27  H4  MOL d   1      32.312  13.070  18.617  0.00  0.00     0.083 H 
ATOM     28  C7  MOL d   1      34.162  10.436  17.667  0.00  0.00    -0.082 A 
ATOM     29  H5  MOL d   1      32.212  10.611  18.536  0.00  0.00     0.083 H 
ATOM     30  C8  MOL d   1      35.280  11.097  17.186  0.00  0.00    -0.076 A 
ATOM     31  H7  MOL d   1      34.131   9.353  17.644  0.00  0.00     0.083 H 
ATOM     32  H8  MOL d   1      36.087  10.535  16.731  0.00  0.00     0.084 H 
ENDBRANCH  20  22
BRANCH  20  33
ATOM     33  C2  MOL d   1      37.394  12.532  15.693  0.00  0.00    -0.058 C 
ATOM     34  H11 MOL d   1      36.743  12.215  14.865  0.00  0.00     0.029 H 
ATOM     35  H12 MOL d   1      37.872  11.649  16.142  0.00  0.00     0.029 H 
ATOM     36  H13 MOL d   1      38.168  13.213  15.310  0.00  0.00     0.029 H 
ENDBRANCH  20  33
ENDBRANCH  17  20
ENDBRANCH  16  17
ENDBRANCH   2  16
BRANCH   5  37
ATOM     37  C14 MOL d   1      43.398  18.075  20.104  0.00  0.00     0.070 C 
ATOM     38  H2  MOL d   1      42.424  18.468  20.430  0.00  0.00     0.067 H 
ATOM     39  H3  MOL d   1      44.086  18.912  19.911  0.00  0.00     0.067 H 
BRANCH  37  40
ATOM     40  S1  MOL d   1      44.073  17.118  21.448  0.00  0.00     0.105 S 
ATOM     41  O3  MOL d   1      44.658  15.866  20.745  0.00  0.00    -0.595 OA
ATOM     42  O4  MOL d   1      45.120  17.981  21.911  0.00  0.00    -0.595 OA
ATOM     43  O5  MOL d   1      42.973  16.816  22.317  0.00  0.00    -0.595 OA
ENDBRANCH  37  40
ENDBRANCH   5  37
TORSDOF 7
