REMARK  8 active torsions:
REMARK  status: ('A' for Active; 'I' for Inactive)
REMARK       I    between atoms: N2_17  and  C1_1 
REMARK    1  A    between atoms: C1_1  and  C4_19 
REMARK    2  A    between atoms: C7_2  and  O8_22 
REMARK    3  A    between atoms: C11_5  and  C14_6 
REMARK       I    between atoms: C14_6  and  N17_26 
REMARK    4  A    between atoms: C19_8  and  O22_28 
REMARK    5  A    between atoms: C24_11  and  N2_17 
REMARK    6  A    between atoms: N2_17  and  C30_13 
REMARK    7  A    between atoms: O22_28  and  C23_29 
REMARK    8  A    between atoms: C26_31  and  N31_34 
ROOT
ATOM      1  C7  9RZ d   1      -1.355  32.841  23.900  0.00  0.00     0.083 A 
ATOM      2  C9  9RZ d   1      -0.124  32.124  25.826  0.00  0.00     0.065 A 
ATOM      3  C10 9RZ d   1       1.055  32.611  25.234  0.00  0.00     0.029 A 
ATOM      4  C11 9RZ d   1       2.095  32.329  26.213  0.00  0.00     0.157 A 
ATOM      5  C4  9RZ d   1      -0.173  33.317  23.316  0.00  0.00     0.066 A 
ATOM      6  C5  9RZ d   1       1.020  33.202  23.985  0.00  0.00    -0.050 A 
ATOM      7  C6  9RZ d   1      -1.322  32.237  25.135  0.00  0.00    -0.022 A 
ATOM      8  N12 9RZ d   1       1.493  31.789  27.226  0.00  0.00    -0.168 NA
ATOM      9  N13 9RZ d   1       0.257  31.627  27.024  0.00  0.00    -0.277 N 
ATOM     10  H18 9RZ d   1       1.933  33.574  23.535  0.00  0.00     0.086 H 
ATOM     11  H19 9RZ d   1      -2.235  31.848  25.570  0.00  0.00     0.091 H 
ATOM     12  H21 9RZ d   1      -0.383  31.172  27.691  0.00  0.00     0.189 HD
ENDROOT
BRANCH   5  13
ATOM     13  C1  9RZ d   1      -0.227  33.960  21.998  0.00  0.00     0.260 C 
ATOM     14  N2  9RZ d   1       0.363  35.156  21.816  0.00  0.00    -0.318 N 
ATOM     15  O3  9RZ d   1      -0.794  33.391  21.109  0.00  0.00    -0.267 OA
BRANCH  14  16
ATOM     16  C24 9RZ d   1       1.043  35.847  22.825  0.00  0.00     0.037 A 
ATOM     17  C25 9RZ d   1       0.406  36.338  23.945  0.00  0.00    -0.055 A 
ATOM     18  C28 9RZ d   1       1.076  37.026  24.917  0.00  0.00    -0.055 A 
ATOM     19  H27 9RZ d   1      -0.659  36.173  24.058  0.00  0.00     0.087 H 
ATOM     20  C26 9RZ d   1       2.431  37.248  24.810  0.00  0.00     0.030 A 
ATOM     21  H28 9RZ d   1       0.536  37.400  25.779  0.00  0.00     0.087 H 
ATOM     22  C27 9RZ d   1       3.064  36.774  23.677  0.00  0.00    -0.055 A 
ATOM     23  C29 9RZ d   1       2.386  36.086  22.708  0.00  0.00    -0.055 A 
ATOM     24  H8  9RZ d   1       4.126  36.952  23.552  0.00  0.00     0.087 H 
ATOM     25  H29 9RZ d   1       2.919  35.725  21.836  0.00  0.00     0.087 H 
BRANCH  20  26
ATOM     26  N31 9RZ d   1       3.116  37.961  25.799  0.00  0.00    -0.377 N 
ATOM     27  C32 9RZ d   1       2.527  38.043  27.141  0.00  0.00     0.015 C 
ATOM     28  C33 9RZ d   1       3.193  39.124  27.984  0.00  0.00     0.034 C 
ATOM     29  H12 9RZ d   1       1.456  38.274  27.047  0.00  0.00     0.067 H 
ATOM     30  H13 9RZ d   1       2.650  37.072  27.644  0.00  0.00     0.067 H 
ATOM     31  O34 9RZ d   1       4.578  38.925  27.957  0.00  0.00    -0.388 OA
ATOM     32  H14 9RZ d   1       2.830  39.061  29.020  0.00  0.00     0.076 H 
ATOM     33  H15 9RZ d   1       2.954  40.115  27.571  0.00  0.00     0.076 H 
ATOM     34  C35 9RZ d   1       5.122  39.118  26.670  0.00  0.00     0.034 C 
ATOM     35  C36 9RZ d   1       4.571  38.024  25.743  0.00  0.00     0.015 C 
ATOM     36  H16 9RZ d   1       6.219  39.049  26.716  0.00  0.00     0.076 H 
ATOM     37  H17 9RZ d   1       4.833  40.108  26.289  0.00  0.00     0.076 H 
ATOM     38  H30 9RZ d   1       4.983  37.052  26.052  0.00  0.00     0.067 H 
ATOM     39  H31 9RZ d   1       4.880  38.242  24.710  0.00  0.00     0.067 H 
ENDBRANCH  20  26
ENDBRANCH  14  16
BRANCH  14  40
ATOM     40  C30 9RZ d   1       0.302  35.796  20.521  0.00  0.00    -0.011 C 
ATOM     41  H9  9RZ d   1      -0.255  35.156  19.821  0.00  0.00     0.057 H 
ATOM     42  H10 9RZ d   1       1.322  35.953  20.141  0.00  0.00     0.057 H 
ATOM     43  H11 9RZ d   1      -0.208  36.766  20.615  0.00  0.00     0.057 H 
ENDBRANCH  14  40
ENDBRANCH   5  13
BRANCH   1  44
ATOM     44  O8  9RZ d   1      -2.501  32.990  23.237  0.00  0.00    -0.360 OA
ATOM     45  H20 9RZ d   1      -2.332  33.425  22.409  0.00  0.00     0.217 HD
ENDBRANCH   1  44
BRANCH   4  46
ATOM     46  C14 9RZ d   1       3.492  32.763  26.067  0.00  0.00     0.275 C 
ATOM     47  O15 9RZ d   1       3.792  33.677  26.767  0.00  0.00    -0.266 OA
ATOM     48  N17 9RZ d   1       4.391  32.283  25.213  0.00  0.00    -0.344 N 
ATOM     49  C16 9RZ d   1       5.756  32.879  25.128  0.00  0.00    -0.002 C 
ATOM     50  C18 9RZ d   1       4.035  31.177  24.351  0.00  0.00     0.022 C 
ATOM     51  C21 9RZ d   1       6.848  31.873  24.836  0.00  0.00    -0.048 C 
ATOM     52  H1  9RZ d   1       5.756  33.632  24.326  0.00  0.00     0.064 H 
ATOM     53  H2  9RZ d   1       5.981  33.366  26.088  0.00  0.00     0.064 H 
ATOM     54  C20 9RZ d   1       6.395  31.061  23.674  0.00  0.00    -0.038 C 
ATOM     55  H6  9RZ d   1       7.008  31.225  25.710  0.00  0.00     0.035 H 
ATOM     56  H7  9RZ d   1       7.785  32.394  24.590  0.00  0.00     0.035 H 
ATOM     57  C19 9RZ d   1       5.225  30.248  24.198  0.00  0.00     0.053 C 
ATOM     58  H4  9RZ d   1       6.074  31.713  22.848  0.00  0.00     0.036 H 
ATOM     59  H5  9RZ d   1       7.202  30.399  23.327  0.00  0.00     0.036 H 
ATOM     60  H3  9RZ d   1       5.485  29.782  25.160  0.00  0.00     0.085 H 
ATOM     61  H22 9RZ d   1       3.193  30.624  24.794  0.00  0.00     0.068 H 
ATOM     62  H23 9RZ d   1       3.742  31.562  23.363  0.00  0.00     0.068 H 
BRANCH  57  63
ATOM     63  O22 9RZ d   1       4.870  29.294  23.282  0.00  0.00    -0.389 OA
BRANCH  63  64
ATOM     64  C23 9RZ d   1       5.876  28.333  23.045  0.00  0.00     0.005 C 
ATOM     65  H24 9RZ d   1       5.519  27.604  22.302  0.00  0.00     0.066 H 
ATOM     66  H25 9RZ d   1       6.114  27.812  23.984  0.00  0.00     0.066 H 
ATOM     67  H26 9RZ d   1       6.778  28.833  22.664  0.00  0.00     0.066 H 
ENDBRANCH  63  64
ENDBRANCH  57  63
ENDBRANCH   4  46
TORSDOF 8
