REMARK  5 active torsions:
REMARK  status: ('A' for Active; 'I' for Inactive)
REMARK    1  A    between atoms: C3_2  and  C2_1 
REMARK    2  A    between atoms: C2_1  and  C1_8 
REMARK    3  A    between atoms: C4_3  and  C3_2 
REMARK    4  A    between atoms: C5_7  and  C4_3 
REMARK    5  A    between atoms: C6_4  and  C5_7 
ROOT
ATOM      1  C3  OOG d   1      10.072 194.593  85.644  0.00  0.00    -0.049 C 
ATOM      2  H3  OOG d   1      10.319 195.022  84.662  0.00  0.00     0.034 H 
ATOM      3  H4  OOG d   1       9.542 195.344  86.248  0.00  0.00     0.034 H 
ENDROOT
BRANCH   1   4
ATOM      4  C2  OOG d   1      11.358 194.201  86.354  0.00  0.00     0.016 C 
ATOM      5  H1  OOG d   1      11.795 193.337  85.831  0.00  0.00     0.049 H 
ATOM      6  H2  OOG d   1      11.112 193.918  87.388  0.00  0.00     0.049 H 
BRANCH   4   7
ATOM      7  C1  OOG d   1      12.408 195.329  86.394  0.00  0.00     0.172 C 
ATOM      8  O1  OOG d   1      13.228 195.403  85.403  0.00  0.00    -0.648 OA
ATOM      9  O2  OOG d   1      12.463 196.139  87.400  0.00  0.00    -0.648 OA
ENDBRANCH   4   7
ENDBRANCH   1   4
BRANCH   1  10
ATOM     10  C4  OOG d   1       9.162 193.375  85.445  0.00  0.00     0.001 C 
ATOM     11  H5  OOG d   1       8.866 193.008  86.439  0.00  0.00     0.045 H 
ATOM     12  H6  OOG d   1       9.744 192.599  84.925  0.00  0.00     0.045 H 
BRANCH  10  13
ATOM     13  C5  OOG d   1       7.911 193.622  84.653  0.00  0.00     0.225 C 
ATOM     14  O5  OOG d   1       7.532 194.787  84.425  0.00  0.00    -0.286 OA
BRANCH  13  15
ATOM     15  C6  OOG d   1       7.050 192.451  84.283  0.00  0.00     0.246 C 
ATOM     16  O4  OOG d   1       7.404 191.267  84.594  0.00  0.00    -0.642 OA
ATOM     17  O3  OOG d   1       5.942 192.696  83.770  0.00  0.00    -0.642 OA
ENDBRANCH  13  15
ENDBRANCH  10  13
ENDBRANCH   1  10
TORSDOF 5
