REMARK  8 active torsions:
REMARK  status: ('A' for Active; 'I' for Inactive)
REMARK    1  A    between atoms: C12_10  and  C14_2 
REMARK    2  A    between atoms: C5_3  and  C15_16 
REMARK    3  A    between atoms: C7_6  and  C11_5 
REMARK    4  A    between atoms: C7_6  and  C10_9 
REMARK    5  A    between atoms: C12_10  and  C13_11 
REMARK    6  A    between atoms: C12_10  and  N1_12 
REMARK    7  A    between atoms: C16_17  and  C17_18 
REMARK    8  A    between atoms: C20_21  and  C23_24 
ROOT
ATOM      1  C4  MOL d   1       2.415  -1.088   0.838  0.00  0.00    -0.063 A 
ATOM      2  C5  MOL d   1       1.174  -0.480   0.720  0.00  0.00     0.018 A 
ATOM      3  C6  MOL d   1       0.177  -0.766   1.646  0.00  0.00    -0.056 A 
ATOM      4  C7  MOL d   1      -0.648  -1.920   3.747  0.00  0.00     0.001 A 
ATOM      5  C8  MOL d   1      -0.138  -2.820   4.853  0.00  0.00    -0.076 A 
ATOM      6  C9  MOL d   1       1.076  -3.344   4.852  0.00  0.00    -0.022 A 
ATOM      7  N1  MOL d   1       1.987  -3.092   3.902  0.00  0.00    -0.353 N 
ATOM      8  C3  MOL d   1       2.680  -1.920   1.884  0.00  0.00    -0.055 A 
ATOM      9  C1  MOL d   1       0.430  -1.629   2.715  0.00  0.00    -0.018 A 
ATOM     10  C2  MOL d   1       1.691  -2.231   2.814  0.00  0.00     0.042 A 
ATOM     11  H1  MOL d   1       3.179  -0.900   0.093  0.00  0.00     0.085 H 
ATOM     12  H5  MOL d   1      -0.803  -0.316   1.538  0.00  0.00     0.086 H 
ATOM     13  H9  MOL d   1      -0.801  -3.046   5.687  0.00  0.00     0.080 H 
ATOM     14  H10 MOL d   1       1.350  -4.015   5.665  0.00  0.00     0.111 H 
ATOM     15  H18 MOL d   1       3.671  -2.345   1.994  0.00  0.00     0.087 H 
ENDROOT
BRANCH   2  16
ATOM     16  C15 MOL d   1       0.964   0.308  -0.454  0.00  0.00    -0.061 C 
ATOM     17  C16 MOL d   1       0.809   0.944  -1.432  0.00  0.00    -0.061 C 
BRANCH  17  18
ATOM     18  C17 MOL d   1       0.683   1.696  -2.645  0.00  0.00     0.018 A 
ATOM     19  C18 MOL d   1       1.850   1.993  -3.342  0.00  0.00    -0.064 A 
ATOM     20  C19 MOL d   1       1.808   2.678  -4.540  0.00  0.00    -0.065 A 
ATOM     21  H19 MOL d   1       2.807   1.682  -2.938  0.00  0.00     0.085 H 
ATOM     22  C20 MOL d   1       0.584   3.063  -5.078  0.00  0.00     0.040 A 
ATOM     23  H20 MOL d   1       2.728   2.916  -5.061  0.00  0.00     0.085 H 
ATOM     24  C21 MOL d   1      -0.596   2.768  -4.390  0.00  0.00    -0.065 A 
ATOM     25  C22 MOL d   1      -0.554   2.085  -3.182  0.00  0.00    -0.064 A 
ATOM     26  H21 MOL d   1      -1.551   3.075  -4.802  0.00  0.00     0.085 H 
ATOM     27  H22 MOL d   1      -1.473   1.853  -2.656  0.00  0.00     0.085 H 
BRANCH  22  28
ATOM     28  C23 MOL d   1       0.572   3.776  -6.362  0.00  0.00     0.209 C 
ATOM     29  O1  MOL d   1      -0.448   3.686  -7.059  0.00  0.00    -0.644 OA
ATOM     30  O2  MOL d   1       1.640   4.385  -6.690  0.00  0.00    -0.644 OA
ENDBRANCH  22  28
ENDBRANCH  17  18
ENDBRANCH   2  16
BRANCH   4  31
ATOM     31  C11 MOL d   1      -1.865  -2.559   3.045  0.00  0.00    -0.062 C 
ATOM     32  H6  MOL d   1      -2.647  -2.771   3.788  0.00  0.00     0.029 H 
ATOM     33  H7  MOL d   1      -1.557  -3.497   2.559  0.00  0.00     0.029 H 
ATOM     34  H8  MOL d   1      -2.258  -1.865   2.288  0.00  0.00     0.029 H 
ENDBRANCH   4  31
BRANCH   4  35
ATOM     35  C10 MOL d   1      -1.098  -0.601   4.408  0.00  0.00    -0.062 C 
ATOM     36  H11 MOL d   1      -0.240  -0.133   4.913  0.00  0.00     0.029 H 
ATOM     37  H12 MOL d   1      -1.888  -0.811   5.144  0.00  0.00     0.029 H 
ATOM     38  H13 MOL d   1      -1.487   0.081   3.638  0.00  0.00     0.029 H 
ENDBRANCH   4  35
BRANCH   7  39
ATOM     39  C12 MOL d   1       3.361  -3.735   4.001  0.00  0.00     0.009 C 
ATOM     40  H14 MOL d   1       3.885  -3.481   3.068  0.00  0.00     0.072 H 
BRANCH  39  41
ATOM     41  C14 MOL d   1       3.286  -5.243   4.042  0.00  0.00    -0.057 C 
ATOM     42  H2  MOL d   1       4.302  -5.659   4.113  0.00  0.00     0.030 H 
ATOM     43  H3  MOL d   1       2.803  -5.611   3.125  0.00  0.00     0.030 H 
ATOM     44  H4  MOL d   1       2.699  -5.557   4.918  0.00  0.00     0.030 H 
ENDBRANCH  39  41
BRANCH  39  45
ATOM     45  C13 MOL d   1       4.192  -3.161   5.113  0.00  0.00    -0.057 C 
ATOM     46  H15 MOL d   1       4.209  -2.064   5.030  0.00  0.00     0.030 H 
ATOM     47  H16 MOL d   1       5.219  -3.550   5.042  0.00  0.00     0.030 H 
ATOM     48  H17 MOL d   1       3.757  -3.449   6.082  0.00  0.00     0.030 H 
ENDBRANCH  39  45
ENDBRANCH   7  39
TORSDOF 8
