REMARK  0 active torsions:
REMARK  status: ('A' for Active; 'I' for Inactive)
ROOT
ATOM      1  OAA BAQ d   1      21.482  16.072  -7.352  0.00  0.00    -0.274 OA
ATOM      2  CAF BAQ d   1      22.445  16.813  -7.517  0.00  0.00     0.217 C 
ATOM      3  CAD BAQ d   1      22.705  18.062  -6.715  0.00  0.00     0.011 C 
ATOM      4  CAB BAQ d   1      24.140  18.433  -7.117  0.00  0.00    -0.042 C 
ATOM      5  CAC BAQ d   1      24.536  17.556  -8.309  0.00  0.00    -0.004 C 
ATOM      6  NAE BAQ d   1      23.435  16.618  -8.379  0.00  0.00    -0.361 N 
ATOM      7  H1  BAQ d   1      22.635  17.861  -5.636  0.00  0.00     0.047 H 
ATOM      8  H2  BAQ d   1      21.999  18.861  -6.986  0.00  0.00     0.047 H 
ATOM      9  H3  BAQ d   1      24.823  18.250  -6.275  0.00  0.00     0.036 H 
ATOM     10  H4  BAQ d   1      24.186  19.494  -7.402  0.00  0.00     0.036 H 
ATOM     11  H5  BAQ d   1      25.489  17.039  -8.124  0.00  0.00     0.064 H 
ATOM     12  H6  BAQ d   1      24.614  18.149  -9.232  0.00  0.00     0.064 H 
ATOM     13  H7  BAQ d   1      23.422  15.867  -9.039  0.00  0.00     0.162 HD
ENDROOT
TORSDOF 0
