REMARK  3 active torsions:
REMARK  status: ('A' for Active; 'I' for Inactive)
REMARK    1  A    between atoms: C1_4  and  C3_5 
REMARK    2  A    between atoms: C1_4  and  C5_7 
REMARK    3  A    between atoms: C3_5  and  C7_6 
ROOT
ATOM      1  O1  9V2 d   1      26.212  15.961  -8.457  0.00  0.00    -0.272 OA
ATOM      2  C4  9V2 d   1      25.132  16.441  -8.152  0.00  0.00     0.233 C 
ATOM      3  N   9V2 d   1      23.945  15.823  -8.266  0.00  0.00    -0.297 N 
ATOM      4  C1  9V2 d   1      24.949  17.823  -7.573  0.00  0.00     0.045 C 
ATOM      5  C2  9V2 d   1      23.543  17.674  -6.967  0.00  0.00     0.024 C 
ATOM      6  C6  9V2 d   1      23.044  16.360  -7.563  0.00  0.00     0.225 C 
ATOM      7  O2  9V2 d   1      21.923  15.882  -7.376  0.00  0.00    -0.273 OA
ATOM      8  H1  9V2 d   1      23.791  15.023  -8.846  0.00  0.00     0.171 HD
ATOM      9  H10 9V2 d   1      22.895  18.512  -7.263  0.00  0.00     0.049 H 
ATOM     10  H11 9V2 d   1      23.590  17.616  -5.870  0.00  0.00     0.049 H 
ENDROOT
BRANCH   4  11
ATOM     11  C3  9V2 d   1      24.960  18.875  -8.684  0.00  0.00    -0.053 C 
ATOM     12  H2  9V2 d   1      24.814  19.861  -8.220  0.00  0.00     0.034 H 
ATOM     13  H3  9V2 d   1      24.121  18.661  -9.363  0.00  0.00     0.034 H 
BRANCH  11  14
ATOM     14  C7  9V2 d   1      26.233  18.931  -9.514  0.00  0.00    -0.075 C 
ATOM     15  H4  9V2 d   1      26.137  19.715 -10.279  0.00  0.00     0.027 H 
ATOM     16  H5  9V2 d   1      26.395  17.959 -10.003  0.00  0.00     0.027 H 
ATOM     17  H6  9V2 d   1      27.087  19.159  -8.860  0.00  0.00     0.027 H 
ENDBRANCH  11  14
ENDBRANCH   4  11
BRANCH   4  18
ATOM     18  C5  9V2 d   1      26.017  18.173  -6.564  0.00  0.00    -0.060 C 
ATOM     19  H7  9V2 d   1      26.020  17.424  -5.759  0.00  0.00     0.029 H 
ATOM     20  H8  9V2 d   1      25.809  19.166  -6.140  0.00  0.00     0.029 H 
ATOM     21  H9  9V2 d   1      26.999  18.184  -7.059  0.00  0.00     0.029 H 
ENDBRANCH   4  18
TORSDOF 3
