REMARK  0 active torsions:
REMARK  status: ('A' for Active; 'I' for Inactive)
ROOT
ATOM      1  O05 9UZ d   1      21.326  15.853  -7.490  0.00  0.00    -0.273 OA
ATOM      2  C04 9UZ d   1      22.382  16.490  -7.466  0.00  0.00     0.224 C 
ATOM      3  N03 9UZ d   1      23.378  16.084  -8.212  0.00  0.00    -0.298 N 
ATOM      4  C06 9UZ d   1      22.598  17.714  -6.594  0.00  0.00     0.010 C 
ATOM      5  C07 9UZ d   1      23.711  18.619  -7.134  0.00  0.00    -0.049 C 
ATOM      6  C08 9UZ d   1      24.944  17.861  -7.580  0.00  0.00     0.010 C 
ATOM      7  C02 9UZ d   1      24.599  16.570  -8.265  0.00  0.00     0.224 C 
ATOM      8  O01 9UZ d   1      25.447  15.954  -8.888  0.00  0.00    -0.273 OA
ATOM      9  H1  9UZ d   1      23.187  15.310  -8.815  0.00  0.00     0.171 HD
ATOM     10  H2  9UZ d   1      22.870  17.384  -5.581  0.00  0.00     0.047 H 
ATOM     11  H3  9UZ d   1      21.662  18.290  -6.553  0.00  0.00     0.047 H 
ATOM     12  H4  9UZ d   1      24.003  19.323  -6.341  0.00  0.00     0.034 H 
ATOM     13  H5  9UZ d   1      23.317  19.180  -7.995  0.00  0.00     0.034 H 
ATOM     14  H6  9UZ d   1      25.562  17.640  -6.698  0.00  0.00     0.047 H 
ATOM     15  H7  9UZ d   1      25.514  18.491  -8.278  0.00  0.00     0.047 H 
ENDROOT
TORSDOF 0
