REMARK  0 active torsions:
REMARK  status: ('A' for Active; 'I' for Inactive)
ROOT
ATOM      1  O   HYN d   1      21.362  15.044  -7.239  0.00  0.00    -0.271 OA
ATOM      2  C   HYN d   1      22.466  15.696  -7.329  0.00  0.00     0.243 A 
ATOM      3  C1  HYN d   1      22.781  16.865  -6.478  0.00  0.00     0.071 A 
ATOM      4  N   HYN d   1      24.120  17.134  -6.937  0.00  0.00    -0.334 N 
ATOM      5  N1  HYN d   1      23.408  15.309  -8.214  0.00  0.00    -0.278 N 
ATOM      6  C2  HYN d   1      24.407  16.225  -7.900  0.00  0.00     0.323 A 
ATOM      7  O1  HYN d   1      25.530  16.264  -8.455  0.00  0.00    -0.247 OA
ATOM      8  H1  HYN d   1      22.756  16.613  -5.408  0.00  0.00     0.078 H 
ATOM      9  H2  HYN d   1      22.103  17.709  -6.672  0.00  0.00     0.078 H 
ATOM     10  H3  HYN d   1      24.726  17.858  -6.606  0.00  0.00     0.164 HD
ATOM     11  H4  HYN d   1      23.393  14.578  -8.896  0.00  0.00     0.173 HD
ENDROOT
TORSDOF 0
