REMARK  0 active torsions:
REMARK  status: ('A' for Active; 'I' for Inactive)
ROOT
ATOM      1  O2  9UT d   1      25.651  17.369  -8.784  0.00  0.00    -0.260 OA
ATOM      2  C2  9UT d   1      24.618  17.538  -8.132  0.00  0.00     0.286 A 
ATOM      3  N3  9UT d   1      23.571  16.729  -8.321  0.00  0.00    -0.288 N 
ATOM      4  S1  9UT d   1      24.396  18.778  -7.010  0.00  0.00    -0.060 SA
ATOM      5  C5  9UT d   1      22.726  18.216  -6.614  0.00  0.00     0.060 A 
ATOM      6  C4  9UT d   1      22.527  16.978  -7.510  0.00  0.00     0.234 A 
ATOM      7  O4  9UT d   1      21.555  16.228  -7.470  0.00  0.00    -0.272 OA
ATOM      8  H1  9UT d   1      23.564  16.001  -9.007  0.00  0.00     0.172 HD
ATOM      9  H2  9UT d   1      21.985  18.994  -6.851  0.00  0.00     0.064 H 
ATOM     10  H3  9UT d   1      22.646  17.946  -5.551  0.00  0.00     0.064 H 
ENDROOT
TORSDOF 0
