REMARK  1 active torsions:
REMARK  status: ('A' for Active; 'I' for Inactive)
REMARK    1  A    between atoms: C8_5  and  S8_7 
ROOT
ATOM      1  O7  9UW d   1      21.440  16.114  -7.492  0.00  0.00    -0.271 OA
ATOM      2  C7  9UW d   1      22.480  16.873  -7.573  0.00  0.00     0.243 A 
ATOM      3  C1  9UW d   1      22.698  18.085  -6.714  0.00  0.00     0.091 A 
ATOM      4  N2  9UW d   1      24.028  18.507  -7.212  0.00  0.00    -0.258 NA
ATOM      5  C8  9UW d   1      24.361  17.549  -8.103  0.00  0.00     0.161 A 
ATOM      6  N1  9UW d   1      23.488  16.525  -8.407  0.00  0.00    -0.305 N 
ATOM      7  H1  9UW d   1      22.723  17.830  -5.644  0.00  0.00     0.082 H 
ATOM      8  H2  9UW d   1      21.932  18.855  -6.889  0.00  0.00     0.082 H 
ATOM      9  H3  9UW d   1      23.573  15.761  -9.046  0.00  0.00     0.171 HD
ENDROOT
BRANCH   5  10
ATOM     10  S8  9UW d   1      25.917  17.648  -8.975  0.00  0.00    -0.105 SA
ATOM     11  H4  9UW d   1      26.438  18.444  -8.642  0.00  0.00     0.110 HD
ENDBRANCH   5  10
TORSDOF 1
