REMARK  4 active torsions:
REMARK  status: ('A' for Active; 'I' for Inactive)
REMARK    1  A    between atoms: S1_2  and  C1_5 
REMARK    2  A    between atoms: C1_5  and  C2_6 
REMARK    3  A    between atoms: C5_10  and  O4_11 
REMARK    4  A    between atoms: C6_12  and  O5_13 
ROOT
ATOM      1  C2  MOL d   1      18.194 -93.423  11.599  0.00  0.00     0.011 C 
ATOM      2  C3  MOL d   1      18.248 -91.920  11.372  0.00  0.00     0.088 C 
ATOM      3  N1  MOL d   1      17.737 -91.377  10.098  0.00  0.00    -0.072 N 
ATOM      4  C4  MOL d   1      16.363 -91.810   9.798  0.00  0.00     0.107 C 
ATOM      5  C5  MOL d   1      15.959 -93.144  10.437  0.00  0.00     0.084 C 
ATOM      6  C6  MOL d   1      17.154 -94.068  10.667  0.00  0.00     0.068 C 
ATOM      7  H3  MOL d   1      17.819 -93.570  12.623  0.00  0.00     0.048 H 
ATOM      8  H4  MOL d   1      19.303 -91.618  11.453  0.00  0.00     0.076 H 
ATOM      9  H5  MOL d   1      17.669 -91.449  12.180  0.00  0.00     0.076 H 
ATOM     10  H6  MOL d   1      18.341 -91.685   9.352  0.00  0.00     0.277 HD
ATOM     11  H7  MOL d   1      17.753 -90.370  10.149  0.00  0.00     0.277 HD
ATOM     12  H8  MOL d   1      16.265 -91.909   8.707  0.00  0.00     0.079 H 
ATOM     13  H9  MOL d   1      15.672 -91.034  10.159  0.00  0.00     0.079 H 
ATOM     14  H10 MOL d   1      15.501 -92.926  11.413  0.00  0.00     0.089 H 
ATOM     15  H12 MOL d   1      17.628 -94.299   9.702  0.00  0.00     0.087 H 
ENDROOT
BRANCH   1  16
ATOM     16  C1  MOL d   1      19.585 -94.084  11.569  0.00  0.00     0.052 C 
ATOM     17  H1  MOL d   1      19.436 -95.172  11.628  0.00  0.00     0.061 H 
ATOM     18  H2  MOL d   1      20.052 -93.830  10.606  0.00  0.00     0.061 H 
BRANCH  16  19
ATOM     19  S1  MOL d   1      20.727 -93.626  12.859  0.00  0.00     0.102 S 
ATOM     20  O1  MOL d   1      20.078 -93.694  14.127  0.00  0.00    -0.595 OA
ATOM     21  O2  MOL d   1      21.899 -94.377  12.598  0.00  0.00    -0.595 OA
ATOM     22  O3  MOL d   1      21.116 -92.208  12.567  0.00  0.00    -0.595 OA
ENDBRANCH  16  19
ENDBRANCH   1  16
BRANCH   6  23
ATOM     23  O5  MOL d   1      16.668 -95.270  11.269  0.00  0.00    -0.392 OA
ATOM     24  H13 MOL d   1      17.395 -95.862  11.422  0.00  0.00     0.210 HD
ENDBRANCH   6  23
BRANCH   5  25
ATOM     25  O4  MOL d   1      15.009 -93.813   9.633  0.00  0.00    -0.391 OA
ATOM     26  H11 MOL d   1      14.771 -94.636  10.044  0.00  0.00     0.210 HD
ENDBRANCH   5  25
TORSDOF 4
