REMARK  4 active torsions:
REMARK  status: ('A' for Active; 'I' for Inactive)
REMARK    1  A    between atoms: S1_2  and  C1_5 
REMARK    2  A    between atoms: C1_5  and  C2_6 
REMARK    3  A    between atoms: C5_10  and  O4_11 
REMARK    4  A    between atoms: C6_12  and  O5_13 
ROOT
ATOM      1  C2  MOL d   1      23.408   8.767  28.403  0.00  0.00     0.011 C 
ATOM      2  C3  MOL d   1      22.833   8.693  29.809  0.00  0.00     0.088 C 
ATOM      3  N1  MOL d   1      22.154   7.472  30.220  0.00  0.00    -0.072 N 
ATOM      4  C4  MOL d   1      21.216   6.962  29.162  0.00  0.00     0.107 C 
ATOM      5  C5  MOL d   1      21.821   6.887  27.756  0.00  0.00     0.084 C 
ATOM      6  C6  MOL d   1      22.404   8.248  27.347  0.00  0.00     0.068 C 
ATOM      7  H3  MOL d   1      24.282   8.100  28.360  0.00  0.00     0.048 H 
ATOM      8  H4  MOL d   1      22.109   9.515  29.907  0.00  0.00     0.076 H 
ATOM      9  H5  MOL d   1      23.666   8.852  30.509  0.00  0.00     0.076 H 
ATOM     10  H6  MOL d   1      21.627   7.660  31.058  0.00  0.00     0.277 HD
ATOM     11  H7  MOL d   1      22.846   6.764  30.410  0.00  0.00     0.277 HD
ATOM     12  H8  MOL d   1      20.344   7.631  29.125  0.00  0.00     0.079 H 
ATOM     13  H9  MOL d   1      20.891   5.951  29.450  0.00  0.00     0.079 H 
ATOM     14  H10 MOL d   1      22.650   6.164  27.776  0.00  0.00     0.089 H 
ATOM     15  H12 MOL d   1      21.573   8.967  27.285  0.00  0.00     0.087 H 
ENDROOT
BRANCH   1  16
ATOM     16  C1  MOL d   1      23.913  10.191  28.167  0.00  0.00     0.052 C 
ATOM     17  H1  MOL d   1      23.956  10.343  27.078  0.00  0.00     0.061 H 
ATOM     18  H2  MOL d   1      23.170  10.875  28.604  0.00  0.00     0.061 H 
BRANCH  16  19
ATOM     19  S1  MOL d   1      25.493  10.651  28.821  0.00  0.00     0.102 S 
ATOM     20  O1  MOL d   1      25.411  10.221  30.303  0.00  0.00    -0.595 OA
ATOM     21  O2  MOL d   1      25.558  12.076  28.769  0.00  0.00    -0.595 OA
ATOM     22  O3  MOL d   1      26.504  10.020  28.050  0.00  0.00    -0.595 OA
ENDBRANCH  16  19
ENDBRANCH   1  16
BRANCH   6  23
ATOM     23  O5  MOL d   1      23.032   8.175  26.047  0.00  0.00    -0.392 OA
ATOM     24  H13 MOL d   1      23.384   9.027  25.818  0.00  0.00     0.210 HD
ENDBRANCH   6  23
BRANCH   5  25
ATOM     25  O4  MOL d   1      20.838   6.399  26.835  0.00  0.00    -0.391 OA
ATOM     26  H11 MOL d   1      21.216   6.354  25.965  0.00  0.00     0.210 HD
ENDBRANCH   5  25
TORSDOF 4
