REMARK  5 active torsions:
REMARK  status: ('A' for Active; 'I' for Inactive)
REMARK    1  A    between atoms: C2_2  and  C3_4 
REMARK    2  A    between atoms: C3_4  and  C4_5 
REMARK    3  A    between atoms: C4_5  and  C5_6 
REMARK    4  A    between atoms: C5_6  and  C6_7 
REMARK    5  A    between atoms: C6_7  and  C7_8 
ROOT
ATOM      1  C4  0L1 d   1      56.049 357.786  85.066  0.00  0.00    -0.056 C 
ATOM      2  H3  0L1 d   1      56.593 357.132  84.369  0.00  0.00     0.033 H 
ATOM      3  H4  0L1 d   1      55.911 357.265  86.025  0.00  0.00     0.033 H 
ENDROOT
BRANCH   1   4
ATOM      4  C3  0L1 d   1      54.662 358.098  84.469  0.00  0.00     0.016 C 
ATOM      5  H1  0L1 d   1      54.053 358.590  85.242  0.00  0.00     0.049 H 
ATOM      6  H2  0L1 d   1      54.795 358.781  83.617  0.00  0.00     0.049 H 
BRANCH   4   7
ATOM      7  C2  0L1 d   1      53.917 356.862  83.983  0.00  0.00     0.172 C 
ATOM      8  O1  0L1 d   1      54.287 355.690  84.318  0.00  0.00    -0.648 OA
ATOM      9  O2  0L1 d   1      52.896 357.099  83.293  0.00  0.00    -0.648 OA
ENDBRANCH   4   7
ENDBRANCH   1   4
BRANCH   1  10
ATOM     10  C5  0L1 d   1      56.889 359.055  85.310  0.00  0.00    -0.056 C 
ATOM     11  H5  0L1 d   1      56.365 359.697  86.033  0.00  0.00     0.033 H 
ATOM     12  H6  0L1 d   1      57.007 359.595  84.359  0.00  0.00     0.033 H 
BRANCH  10  13
ATOM     13  C6  0L1 d   1      58.314 358.699  85.878  0.00  0.00     0.016 C 
ATOM     14  H7  0L1 d   1      58.771 357.940  85.225  0.00  0.00     0.049 H 
ATOM     15  H8  0L1 d   1      58.193 358.287  86.891  0.00  0.00     0.049 H 
BRANCH  13  16
ATOM     16  C7  0L1 d   1      59.266 359.921  85.954  0.00  0.00     0.172 C 
ATOM     17  O4  0L1 d   1      60.030 360.209  84.971  0.00  0.00    -0.648 OA
ATOM     18  O3  0L1 d   1      59.257 360.631  87.007  0.00  0.00    -0.648 OA
ENDBRANCH  13  16
ENDBRANCH  10  13
ENDBRANCH   1  10
TORSDOF 5
