REMARK  10 active torsions:
REMARK  status: ('A' for Active; 'I' for Inactive)
REMARK    1  A    between atoms: C2_3  and  C21_5 
REMARK       I    between atoms: C21_5  and  N21_6 
REMARK    2  A    between atoms: C3_7  and  O3_8 
REMARK    3  A    between atoms: C4_9  and  N4_10 
REMARK    4  A    between atoms: N4_10  and  C41_11 
REMARK    5  A    between atoms: N4_10  and  C42_12 
REMARK    6  A    between atoms: C5_14  and  O5_15 
REMARK    7  A    between atoms: C6_17  and  C61_18 
REMARK    8  A    between atoms: C10_23  and  O10_24 
REMARK    9  A    between atoms: C12_29  and  O12_30 
REMARK   10  A    between atoms: C4B_31  and  O13_32 
ROOT
ATOM      1  C1  DXT d   1       2.490 -16.720 -15.729  0.00  0.00     0.208 C 
ATOM      2  O1  DXT d   1       1.380 -17.228 -15.695  0.00  0.00    -0.288 OA
ATOM      3  C2  DXT d   1       2.951 -15.847 -16.780  0.00  0.00     0.112 C 
ATOM      4  C3  DXT d   1       4.094 -15.140 -16.721  0.00  0.00     0.094 C 
ATOM      5  C4  DXT d   1       4.986 -15.160 -15.510  0.00  0.00     0.158 C 
ATOM      6  C4A DXT d   1       4.929 -16.575 -14.873  0.00  0.00     0.048 C 
ATOM      7  C5  DXT d   1       5.748 -17.598 -15.708  0.00  0.00     0.053 C 
ATOM      8  C5A DXT d   1       5.768 -18.996 -15.039  0.00  0.00     0.010 C 
ATOM      9  C6  DXT d   1       6.331 -20.134 -15.949  0.00  0.00    -0.021 C 
ATOM     10  C6A DXT d   1       6.337 -21.459 -15.211  0.00  0.00    -0.037 A 
ATOM     11  C7  DXT d   1       7.308 -22.433 -15.421  0.00  0.00    -0.075 A 
ATOM     12  C8  DXT d   1       7.282 -23.643 -14.738  0.00  0.00    -0.080 A 
ATOM     13  C9  DXT d   1       6.293 -23.926 -13.827  0.00  0.00    -0.050 A 
ATOM     14  C10 DXT d   1       5.313 -22.948 -13.603  0.00  0.00     0.080 A 
ATOM     15  C6B DXT d   1       5.333 -21.734 -14.286  0.00  0.00     0.054 A 
ATOM     16  C11 DXT d   1       4.301 -20.769 -13.997  0.00  0.00     0.194 C 
ATOM     17  O11 DXT d   1       3.339 -21.078 -13.284  0.00  0.00    -0.287 OA
ATOM     18  C5B DXT d   1       4.415 -19.402 -14.525  0.00  0.00     0.033 C 
ATOM     19  C12 DXT d   1       3.452 -18.504 -14.191  0.00  0.00     0.097 C 
ATOM     20  C4B DXT d   1       3.457 -17.007 -14.562  0.00  0.00     0.180 C 
ATOM     21  H4  DXT d   1       6.021 -14.944 -15.812  0.00  0.00     0.096 H 
ATOM     22  H12 DXT d   1       5.435 -16.503 -13.899  0.00  0.00     0.053 H 
ATOM     23  H13 DXT d   1       5.279 -17.694 -16.699  0.00  0.00     0.084 H 
ATOM     24  H15 DXT d   1       6.439 -18.916 -14.171  0.00  0.00     0.052 H 
ATOM     25  H16 DXT d   1       5.640 -20.244 -16.797  0.00  0.00     0.048 H 
ATOM     26  H20 DXT d   1       8.103 -22.244 -16.134  0.00  0.00     0.084 H 
ATOM     27  H21 DXT d   1       8.056 -24.377 -14.928  0.00  0.00     0.083 H 
ATOM     28  H22 DXT d   1       6.271 -24.873 -13.300  0.00  0.00     0.087 H 
ENDROOT
BRANCH   5  29
ATOM     29  N4  DXT d   1       4.510 -14.063 -14.512  0.00  0.00    -0.068 N 
ATOM     30  H5  DXT d   1       3.620 -14.330 -14.122  0.00  0.00     0.279 HD
BRANCH  29  31
ATOM     31  C41 DXT d   1       4.393 -12.728 -15.227  0.00  0.00     0.067 C 
ATOM     32  H6  DXT d   1       4.057 -11.959 -14.516  0.00  0.00     0.068 H 
ATOM     33  H7  DXT d   1       3.664 -12.813 -16.046  0.00  0.00     0.068 H 
ATOM     34  H8  DXT d   1       5.374 -12.444 -15.637  0.00  0.00     0.068 H 
ENDBRANCH  29  31
BRANCH  29  35
ATOM     35  C42 DXT d   1       5.531 -13.858 -13.395  0.00  0.00     0.067 C 
ATOM     36  H9  DXT d   1       5.659 -14.798 -12.838  0.00  0.00     0.068 H 
ATOM     37  H10 DXT d   1       5.175 -13.073 -12.712  0.00  0.00     0.068 H 
ATOM     38  H11 DXT d   1       6.495 -13.556 -13.830  0.00  0.00     0.068 H 
ENDBRANCH  29  35
ENDBRANCH   5  29
BRANCH   4  39
ATOM     39  O3  DXT d   1       4.726 -14.644 -17.797  0.00  0.00    -0.362 OA
ATOM     40  H3  DXT d   1       4.967 -15.356 -18.378  0.00  0.00     0.217 HD
ENDBRANCH   4  39
BRANCH   3  41
ATOM     41  C21 DXT d   1       2.277 -15.948 -18.114  0.00  0.00     0.255 C 
ATOM     42  O21 DXT d   1       2.796 -15.609 -19.169  0.00  0.00    -0.268 OA
ATOM     43  N21 DXT d   1       0.990 -16.468 -18.076  0.00  0.00    -0.366 N 
ATOM     44  H1  DXT d   1       0.467 -16.570 -18.922  0.00  0.00     0.159 HD
ATOM     45  H2  DXT d   1       0.586 -16.740 -17.203  0.00  0.00     0.159 HD
ENDBRANCH   3  41
BRANCH   7  46
ATOM     46  O5  DXT d   1       7.057 -17.129 -15.871  0.00  0.00    -0.394 OA
ATOM     47  H14 DXT d   1       7.556 -17.756 -16.382  0.00  0.00     0.210 HD
ENDBRANCH   7  46
BRANCH  20  48
ATOM     48  O13 DXT d   1       3.040 -16.282 -13.448  0.00  0.00    -0.374 OA
ATOM     49  H25 DXT d   1       2.147 -16.522 -13.232  0.00  0.00     0.211 HD
ENDBRANCH  20  48
BRANCH  19  50
ATOM     50  O12 DXT d   1       2.322 -18.755 -13.518  0.00  0.00    -0.361 OA
ATOM     51  H24 DXT d   1       1.827 -17.950 -13.421  0.00  0.00     0.217 HD
ENDBRANCH  19  50
BRANCH   9  52
ATOM     52  C61 DXT d   1       7.690 -19.763 -16.536  0.00  0.00    -0.068 C 
ATOM     53  H17 DXT d   1       8.053 -20.586 -17.169  0.00  0.00     0.028 H 
ATOM     54  H18 DXT d   1       8.406 -19.585 -15.720  0.00  0.00     0.028 H 
ATOM     55  H19 DXT d   1       7.591 -18.851 -17.142  0.00  0.00     0.028 H 
ENDBRANCH   9  52
BRANCH  14  56
ATOM     56  O10 DXT d   1       4.358 -23.273 -12.683  0.00  0.00    -0.360 OA
ATOM     57  H23 DXT d   1       3.743 -22.554 -12.600  0.00  0.00     0.217 HD
ENDBRANCH  14  56
TORSDOF 10
