REMARK  10 active torsions:
REMARK  status: ('A' for Active; 'I' for Inactive)
REMARK    1  A    between atoms: C2_3  and  C21_5 
REMARK       I    between atoms: C21_5  and  N21_6 
REMARK    2  A    between atoms: C3_7  and  O3_8 
REMARK    3  A    between atoms: C4_9  and  N4_10 
REMARK    4  A    between atoms: N4_10  and  C41_11 
REMARK    5  A    between atoms: N4_10  and  C42_12 
REMARK    6  A    between atoms: C5_14  and  O5_15 
REMARK    7  A    between atoms: C6_17  and  C61_18 
REMARK    8  A    between atoms: C10_23  and  O10_24 
REMARK    9  A    between atoms: C12_29  and  O12_30 
REMARK   10  A    between atoms: C4B_31  and  O13_32 
ROOT
ATOM      1  C1  DXT d   1      -2.235  16.296 -15.905  0.00  0.00     0.183 C 
ATOM      2  O1  DXT d   1      -1.154  16.863 -15.897  0.00  0.00    -0.293 OA
ATOM      3  C2  DXT d   1      -2.635  15.323 -16.910  0.00  0.00     0.111 C 
ATOM      4  C3  DXT d   1      -3.836  14.710 -16.971  0.00  0.00     0.082 C 
ATOM      5  C4  DXT d   1      -4.851  14.792 -15.849  0.00  0.00     0.138 C 
ATOM      6  C4A DXT d   1      -4.709  16.144 -15.038  0.00  0.00     0.044 C 
ATOM      7  C5  DXT d   1      -5.623  17.197 -15.758  0.00  0.00     0.053 C 
ATOM      8  C5A DXT d   1      -5.615  18.622 -15.110  0.00  0.00     0.010 C 
ATOM      9  C6  DXT d   1      -6.168  19.776 -16.029  0.00  0.00    -0.021 C 
ATOM     10  C6A DXT d   1      -6.138  21.100 -15.324  0.00  0.00    -0.037 A 
ATOM     11  C7  DXT d   1      -7.095  22.074 -15.577  0.00  0.00    -0.075 A 
ATOM     12  C8  DXT d   1      -7.068  23.311 -14.928  0.00  0.00    -0.080 A 
ATOM     13  C9  DXT d   1      -6.088  23.606 -14.004  0.00  0.00    -0.050 A 
ATOM     14  C10 DXT d   1      -5.115  22.622 -13.741  0.00  0.00     0.080 A 
ATOM     15  C6B DXT d   1      -5.134  21.376 -14.395  0.00  0.00     0.054 A 
ATOM     16  C11 DXT d   1      -4.108  20.377 -14.096  0.00  0.00     0.194 C 
ATOM     17  O11 DXT d   1      -3.130  20.644 -13.373  0.00  0.00    -0.287 OA
ATOM     18  C5B DXT d   1      -4.239  19.023 -14.662  0.00  0.00     0.033 C 
ATOM     19  C12 DXT d   1      -3.207  18.162 -14.476  0.00  0.00     0.096 C 
ATOM     20  C4B DXT d   1      -3.219  16.637 -14.760  0.00  0.00     0.175 C 
ATOM     21  H1  DXT d   1      -2.156  14.483 -16.386  0.00  0.00     0.070 H 
ATOM     22  H4  DXT d   1      -3.459  13.695 -16.776  0.00  0.00     0.088 H 
ATOM     23  H6  DXT d   1      -5.836  14.852 -16.335  0.00  0.00     0.089 H 
ATOM     24  H14 DXT d   1      -5.145  15.965 -14.044  0.00  0.00     0.053 H 
ATOM     25  H15 DXT d   1      -5.227  17.318 -16.777  0.00  0.00     0.084 H 
ATOM     26  H17 DXT d   1      -6.262  18.568 -14.222  0.00  0.00     0.052 H 
ATOM     27  H18 DXT d   1      -5.494  19.845 -16.895  0.00  0.00     0.048 H 
ATOM     28  H22 DXT d   1      -7.881  21.870 -16.295  0.00  0.00     0.084 H 
ATOM     29  H23 DXT d   1      -7.829  24.050 -15.154  0.00  0.00     0.083 H 
ATOM     30  H24 DXT d   1      -6.067  24.564 -13.497  0.00  0.00     0.087 H 
ENDROOT
BRANCH   5  31
ATOM     31  N4  DXT d   1      -4.897  13.456 -14.991  0.00  0.00    -0.071 N 
ATOM     32  H7  DXT d   1      -5.702  13.494 -14.385  0.00  0.00     0.279 HD
BRANCH  31  33
ATOM     33  C41 DXT d   1      -3.667  13.249 -14.158  0.00  0.00     0.066 C 
ATOM     34  H8  DXT d   1      -3.762  12.311 -13.591  0.00  0.00     0.068 H 
ATOM     35  H9  DXT d   1      -3.552  14.090 -13.459  0.00  0.00     0.068 H 
ATOM     36  H10 DXT d   1      -2.785  13.194 -14.813  0.00  0.00     0.068 H 
ENDBRANCH  31  33
BRANCH  31  37
ATOM     37  C42 DXT d   1      -5.007  12.264 -15.906  0.00  0.00     0.066 C 
ATOM     38  H11 DXT d   1      -5.899  12.370 -16.541  0.00  0.00     0.068 H 
ATOM     39  H12 DXT d   1      -5.092  11.347 -15.305  0.00  0.00     0.068 H 
ATOM     40  H13 DXT d   1      -4.111  12.205 -16.541  0.00  0.00     0.068 H 
ENDBRANCH  31  37
ENDBRANCH   5  31
BRANCH   4  41
ATOM     41  O3  DXT d   1      -4.471  14.466 -18.138  0.00  0.00    -0.392 OA
ATOM     42  H5  DXT d   1      -4.635  15.288 -18.586  0.00  0.00     0.210 HD
ENDBRANCH   4  41
BRANCH   3  43
ATOM     43  C21 DXT d   1      -1.770  15.233 -18.141  0.00  0.00     0.229 C 
ATOM     44  O21 DXT d   1      -0.696  15.814 -18.302  0.00  0.00    -0.273 OA
ATOM     45  N21 DXT d   1      -2.313  14.409 -19.121  0.00  0.00    -0.369 N 
ATOM     46  H2  DXT d   1      -1.827  14.272 -19.984  0.00  0.00     0.159 HD
ATOM     47  H3  DXT d   1      -3.189  13.954 -18.962  0.00  0.00     0.159 HD
ENDBRANCH   3  43
BRANCH   7  48
ATOM     48  O5  DXT d   1      -6.924  16.682 -15.871  0.00  0.00    -0.394 OA
ATOM     49  H16 DXT d   1      -7.479  17.319 -16.307  0.00  0.00     0.210 HD
ENDBRANCH   7  48
BRANCH  20  50
ATOM     50  O13 DXT d   1      -2.760  16.040 -13.591  0.00  0.00    -0.375 OA
ATOM     51  H27 DXT d   1      -1.872  16.328 -13.417  0.00  0.00     0.211 HD
ENDBRANCH  20  50
BRANCH  19  52
ATOM     52  O12 DXT d   1      -2.111  18.415 -13.753  0.00  0.00    -0.361 OA
ATOM     53  H26 DXT d   1      -1.537  17.658 -13.775  0.00  0.00     0.217 HD
ENDBRANCH  19  52
BRANCH   9  54
ATOM     54  C61 DXT d   1      -7.555  19.512 -16.563  0.00  0.00    -0.068 C 
ATOM     55  H19 DXT d   1      -7.872  20.356 -17.192  0.00  0.00     0.028 H 
ATOM     56  H20 DXT d   1      -8.256  19.397 -15.723  0.00  0.00     0.028 H 
ATOM     57  H21 DXT d   1      -7.548  18.590 -17.163  0.00  0.00     0.028 H 
ENDBRANCH   9  54
BRANCH  14  58
ATOM     58  O10 DXT d   1      -4.178  22.976 -12.819  0.00  0.00    -0.360 OA
ATOM     59  H25 DXT d   1      -3.564  22.260 -12.702  0.00  0.00     0.217 HD
ENDBRANCH  14  58
TORSDOF 10
