REMARK  13 active torsions:
REMARK  status: ('A' for Active; 'I' for Inactive)
REMARK    1  A    between atoms: C4_4  and  O4_5 
REMARK    2  A    between atoms: O4_5  and  C21_30 
REMARK    3  A    between atoms: C8_10  and  O8_11 
REMARK    4  A    between atoms: C10_13  and  O10_14 
REMARK    5  A    between atoms: O10_14  and  C1'_31 
REMARK    6  A    between atoms: C12_16  and  O12_17 
REMARK    7  A    between atoms: C12_16  and  C13_18 
REMARK    8  A    between atoms: C13_18  and  C14_20 
REMARK    9  A    between atoms: C14_20  and  O14_21 
REMARK   10  A    between atoms: C17_24  and  O17_25 
REMARK   11  A    between atoms: C3'_33  and  N3'_34 
REMARK   12  A    between atoms: C4'_35  and  O4'_36 
REMARK   13  A    between atoms: C5'_37  and  C6'_39 
ROOT
ATOM      1  C1  DM2 d   1     -23.010   6.027   2.046  0.00  0.00    -0.068 A 
ATOM      2  C2  DM2 d   1     -23.342   7.283   2.521  0.00  0.00    -0.079 A 
ATOM      3  C3  DM2 d   1     -22.347   8.192   2.821  0.00  0.00    -0.050 A 
ATOM      4  C4  DM2 d   1     -21.001   7.828   2.652  0.00  0.00     0.083 A 
ATOM      5  C5  DM2 d   1     -20.652   6.561   2.207  0.00  0.00     0.062 A 
ATOM      6  C6  DM2 d   1     -19.242   6.152   1.992  0.00  0.00     0.200 A 
ATOM      7  O6  DM2 d   1     -18.293   6.883   2.240  0.00  0.00    -0.286 OA
ATOM      8  C7  DM2 d   1     -18.998   4.798   1.452  0.00  0.00     0.066 A 
ATOM      9  C8  DM2 d   1     -17.671   4.370   1.230  0.00  0.00     0.090 A 
ATOM     10  C9  DM2 d   1     -17.388   3.087   0.731  0.00  0.00     0.014 A 
ATOM     11  C10 DM2 d   1     -15.933   2.683   0.475  0.00  0.00     0.073 C 
ATOM     12  C11 DM2 d   1     -15.850   1.383  -0.430  0.00  0.00    -0.001 C 
ATOM     13  C12 DM2 d   1     -16.857   0.332   0.086  0.00  0.00     0.127 C 
ATOM     14  C15 DM2 d   1     -18.275   0.867  -0.137  0.00  0.00    -0.002 C 
ATOM     15  C16 DM2 d   1     -18.447   2.229   0.409  0.00  0.00    -0.009 A 
ATOM     16  C17 DM2 d   1     -19.773   2.658   0.626  0.00  0.00     0.088 A 
ATOM     17  C18 DM2 d   1     -20.047   3.937   1.140  0.00  0.00     0.066 A 
ATOM     18  C19 DM2 d   1     -21.433   4.374   1.334  0.00  0.00     0.197 A 
ATOM     19  O19 DM2 d   1     -22.353   3.624   1.061  0.00  0.00    -0.286 OA
ATOM     20  C20 DM2 d   1     -21.698   5.694   1.861  0.00  0.00     0.032 A 
ATOM     21  H1  DM2 d   1     -23.790   5.308   1.821  0.00  0.00     0.085 H 
ATOM     22  H2  DM2 d   1     -24.383   7.553   2.658  0.00  0.00     0.083 H 
ATOM     23  H3  DM2 d   1     -22.603   9.181   3.185  0.00  0.00     0.087 H 
ATOM     24  H5  DM2 d   1     -15.501   3.494  -0.129  0.00  0.00     0.091 H 
ATOM     25  H6  DM2 d   1     -14.832   0.969  -0.385  0.00  0.00     0.042 H 
ATOM     26  H7  DM2 d   1     -16.093   1.644  -1.470  0.00  0.00     0.042 H 
ATOM     27  H12 DM2 d   1     -18.990   0.194   0.358  0.00  0.00     0.045 H 
ATOM     28  H13 DM2 d   1     -18.480   0.889  -1.218  0.00  0.00     0.045 H 
ENDROOT
BRANCH  11  29
ATOM     29  O10 DM2 d   1     -15.126   2.626   1.656  0.00  0.00    -0.351 OA
BRANCH  29  30
ATOM     30  C1' DM2 d   1     -13.909   3.343   1.549  0.00  0.00     0.134 C 
ATOM     31  C2' DM2 d   1     -13.318   3.521   2.967  0.00  0.00     0.010 C 
ATOM     32  C3' DM2 d   1     -12.820   2.178   3.497  0.00  0.00     0.131 C 
ATOM     33  H19 DM2 d   1     -14.096   3.912   3.639  0.00  0.00     0.043 H 
ATOM     34  H20 DM2 d   1     -12.478   4.230   2.925  0.00  0.00     0.043 H 
ATOM     35  C4' DM2 d   1     -11.844   1.538   2.455  0.00  0.00     0.087 C 
ATOM     36  H21 DM2 d   1     -13.676   1.506   3.657  0.00  0.00     0.088 H 
ATOM     37  C5' DM2 d   1     -12.675   1.319   1.210  0.00  0.00     0.065 C 
ATOM     38  H25 DM2 d   1     -11.425   0.590   2.823  0.00  0.00     0.090 H 
ATOM     39  O5' DM2 d   1     -13.029   2.602   0.698  0.00  0.00    -0.354 OA
ATOM     40  H27 DM2 d   1     -13.585   0.766   1.486  0.00  0.00     0.086 H 
ATOM     41  H18 DM2 d   1     -14.094   4.333   1.107  0.00  0.00     0.129 H 
BRANCH  32  42
ATOM     42  N3' DM2 d   1     -12.125   2.387   4.759  0.00  0.00    -0.072 N 
ATOM     43  H22 DM2 d   1     -11.795   1.502   5.111  0.00  0.00     0.274 HD
ATOM     44  H23 DM2 d   1     -12.758   2.800   5.427  0.00  0.00     0.274 HD
ATOM     45  H24 DM2 d   1     -11.341   3.004   4.613  0.00  0.00     0.274 HD
ENDBRANCH  32  42
BRANCH  35  46
ATOM     46  O4' DM2 d   1     -10.810   2.471   2.192  0.00  0.00    -0.391 OA
ATOM     47  H26 DM2 d   1     -11.187   3.269   1.841  0.00  0.00     0.210 HD
ENDBRANCH  35  46
BRANCH  37  48
ATOM     48  C6' DM2 d   1     -11.954   0.545   0.130  0.00  0.00    -0.050 C 
ATOM     49  H28 DM2 d   1     -12.617   0.425  -0.740  0.00  0.00     0.031 H 
ATOM     50  H29 DM2 d   1     -11.672  -0.446   0.515  0.00  0.00     0.031 H 
ATOM     51  H30 DM2 d   1     -11.049   1.093  -0.171  0.00  0.00     0.031 H 
ENDBRANCH  37  48
ENDBRANCH  29  30
ENDBRANCH  11  29
BRANCH   9  52
ATOM     52  O8  DM2 d   1     -16.653   5.229   1.528  0.00  0.00    -0.359 OA
ATOM     53  H4  DM2 d   1     -16.744   6.019   1.009  0.00  0.00     0.217 HD
ENDBRANCH   9  52
BRANCH  13  54
ATOM     54  O12 DM2 d   1     -16.583   0.086   1.453  0.00  0.00    -0.382 OA
ATOM     55  H8  DM2 d   1     -15.696  -0.241   1.543  0.00  0.00     0.211 HD
ENDBRANCH  13  54
BRANCH  13  56
ATOM     56  C13 DM2 d   1     -16.727  -0.994  -0.651  0.00  0.00     0.184 C 
ATOM     57  O13 DM2 d   1     -16.634  -1.068  -1.851  0.00  0.00    -0.292 OA
BRANCH  56  58
ATOM     58  C14 DM2 d   1     -16.754  -2.223   0.222  0.00  0.00     0.074 C 
ATOM     59  H9  DM2 d   1     -17.535  -2.134   0.991  0.00  0.00     0.086 H 
ATOM     60  H10 DM2 d   1     -15.778  -2.375   0.706  0.00  0.00     0.086 H 
BRANCH  58  61
ATOM     61  O14 DM2 d   1     -17.040  -3.278  -0.651  0.00  0.00    -0.393 OA
ATOM     62  H11 DM2 d   1     -16.361  -3.332  -1.314  0.00  0.00     0.209 HD
ENDBRANCH  58  61
ENDBRANCH  56  58
ENDBRANCH  13  56
BRANCH  16  63
ATOM     63  O17 DM2 d   1     -20.789   1.750   0.302  0.00  0.00    -0.359 OA
ATOM     64  H14 DM2 d   1     -21.634   2.143   0.487  0.00  0.00     0.217 HD
ENDBRANCH  16  63
BRANCH   4  65
ATOM     65  O4  DM2 d   1     -19.982   8.688   2.948  0.00  0.00    -0.355 OA
BRANCH  65  66
ATOM     66  C21 DM2 d   1     -20.435  10.047   3.082  0.00  0.00     0.010 C 
ATOM     67  H15 DM2 d   1     -19.580  10.697   3.319  0.00  0.00     0.066 H 
ATOM     68  H16 DM2 d   1     -21.177  10.108   3.891  0.00  0.00     0.066 H 
ATOM     69  H17 DM2 d   1     -20.894  10.375   2.138  0.00  0.00     0.066 H 
ENDBRANCH  65  66
ENDBRANCH   4  65
TORSDOF 13
