REMARK  9 active torsions:
REMARK  status: ('A' for Active; 'I' for Inactive)
REMARK    1  A    between atoms: NBL_8  and  CAB_9 
REMARK    2  A    between atoms: CBK_13  and  NBN_12 
REMARK       I    between atoms: CBA_19  and  NBM_18 
REMARK    3  A    between atoms: CBB_21  and  CBA_19 
REMARK    4  A    between atoms: CBE_23  and  OAZ_24 
REMARK    5  A    between atoms: OAZ_24  and  CAA_25 
REMARK    6  A    between atoms: NAY_29  and  CBC_28 
REMARK    7  A    between atoms: NAY_29  and  C2_30 
REMARK    8  A    between atoms: NBP_31  and  CAD_32 
REMARK    9  A    between atoms: NBO_41  and  CAC_42 
ROOT
ATOM      1  CBB 4K4 d   1      -1.730  -5.091  20.634  0.00  0.00     0.035 A 
ATOM      2  CAN 4K4 d   1      -1.376  -4.227  21.656  0.00  0.00    -0.033 A 
ATOM      3  CBE 4K4 d   1      -0.127  -3.619  21.634  0.00  0.00     0.096 A 
ATOM      4  CAI 4K4 d   1      -0.825  -5.333  19.600  0.00  0.00    -0.065 A 
ATOM      5  CAJ 4K4 d   1       0.438  -4.725  19.573  0.00  0.00    -0.053 A 
ATOM      6  CBC 4K4 d   1       0.801  -3.847  20.611  0.00  0.00     0.082 A 
ATOM      7  H24 4K4 d   1      -2.067  -4.027  22.466  0.00  0.00     0.089 H 
ATOM      8  H28 4K4 d   1      -1.105  -6.007  18.799  0.00  0.00     0.085 H 
ATOM      9  H29 4K4 d   1       1.127  -4.929  18.762  0.00  0.00     0.087 H 
ENDROOT
BRANCH   1  10
ATOM     10  CBA 4K4 d   1      -2.997  -5.699  20.705  0.00  0.00     0.253 C 
ATOM     11  NBM 4K4 d   1      -3.175  -6.972  21.144  0.00  0.00    -0.348 N 
ATOM     12  CAR 4K4 d   1      -4.556  -7.560  21.155  0.00  0.00    -0.000 C 
ATOM     13  CAQ 4K4 d   1      -1.992  -7.765  21.613  0.00  0.00    -0.000 C 
ATOM     14  CAP 4K4 d   1      -4.739  -8.736  22.075  0.00  0.00    -0.023 C 
ATOM     15  H18 4K4 d   1      -5.260  -6.773  21.463  0.00  0.00     0.064 H 
ATOM     16  H19 4K4 d   1      -4.796  -7.886  20.132  0.00  0.00     0.064 H 
ATOM     17  CBK 4K4 d   1      -3.535  -9.715  21.996  0.00  0.00     0.107 C 
ATOM     18  H16 4K4 d   1      -4.835  -8.370  23.108  0.00  0.00     0.038 H 
ATOM     19  H17 4K4 d   1      -5.656  -9.273  21.790  0.00  0.00     0.038 H 
ATOM     20  CAO 4K4 d   1      -2.321  -8.958  22.489  0.00  0.00    -0.023 C 
ATOM     21  H15 4K4 d   1      -3.385  -9.972  20.937  0.00  0.00     0.084 H 
ATOM     22  H20 4K4 d   1      -1.458  -9.640  22.497  0.00  0.00     0.038 H 
ATOM     23  H21 4K4 d   1      -2.517  -8.603  23.512  0.00  0.00     0.038 H 
ATOM     24  H22 4K4 d   1      -1.455  -8.132  20.726  0.00  0.00     0.064 H 
ATOM     25  H23 4K4 d   1      -1.337  -7.092  22.186  0.00  0.00     0.064 H 
ATOM     26  OAE 4K4 d   1      -3.976  -4.994  20.520  0.00  0.00    -0.267 OA
BRANCH  17  27
ATOM     27  NBN 4K4 d   1      -3.683 -11.006  22.739  0.00  0.00    -0.064 N 
ATOM     28  CAU 4K4 d   1      -3.112 -11.221  24.114  0.00  0.00     0.106 C 
ATOM     29  CAS 4K4 d   1      -2.952 -12.740  24.402  0.00  0.00     0.105 C 
ATOM     30  H2  4K4 d   1      -2.128 -10.734  24.178  0.00  0.00     0.078 H 
ATOM     31  H3  4K4 d   1      -3.789 -10.780  24.861  0.00  0.00     0.078 H 
ATOM     32  NBL 4K4 d   1      -4.225 -13.483  24.209  0.00  0.00    -0.072 N 
ATOM     33  H4  4K4 d   1      -2.619 -12.871  25.442  0.00  0.00     0.078 H 
ATOM     34  H5  4K4 d   1      -2.194 -13.152  23.720  0.00  0.00     0.078 H 
ATOM     35  CAT 4K4 d   1      -4.930 -13.152  22.937  0.00  0.00     0.105 C 
ATOM     36  H6  4K4 d   1      -4.837 -13.203  24.959  0.00  0.00     0.279 HD
ATOM     37  CAV 4K4 d   1      -5.009 -11.632  22.638  0.00  0.00     0.106 C 
ATOM     38  H10 4K4 d   1      -5.955 -13.547  22.997  0.00  0.00     0.078 H 
ATOM     39  H11 4K4 d   1      -4.396 -13.640  22.108  0.00  0.00     0.078 H 
ATOM     40  H12 4K4 d   1      -5.687 -11.158  23.363  0.00  0.00     0.078 H 
ATOM     41  H13 4K4 d   1      -5.399 -11.485  21.620  0.00  0.00     0.078 H 
ATOM     42  H14 4K4 d   1      -3.101 -11.611  22.181  0.00  0.00     0.280 HD
BRANCH  32  43
ATOM     43  CAB 4K4 d   1      -4.021 -14.943  24.335  0.00  0.00     0.066 C 
ATOM     44  H7  4K4 d   1      -4.980 -15.461  24.187  0.00  0.00     0.068 H 
ATOM     45  H8  4K4 d   1      -3.630 -15.174  25.337  0.00  0.00     0.068 H 
ATOM     46  H9  4K4 d   1      -3.301 -15.280  23.574  0.00  0.00     0.068 H 
ENDBRANCH  32  43
ENDBRANCH  17  27
ENDBRANCH   1  10
BRANCH   3  47
ATOM     47  OAZ 4K4 d   1       0.351  -2.754  22.588  0.00  0.00    -0.354 OA
BRANCH  47  48
ATOM     48  CAA 4K4 d   1      -0.120  -2.940  23.926  0.00  0.00     0.010 C 
ATOM     49  H25 4K4 d   1       0.338  -2.187  24.584  0.00  0.00     0.066 H 
ATOM     50  H26 4K4 d   1       0.154  -3.946  24.275  0.00  0.00     0.066 H 
ATOM     51  H27 4K4 d   1      -1.214  -2.830  23.948  0.00  0.00     0.066 H 
ENDBRANCH  47  48
ENDBRANCH   3  47
BRANCH   6  52
ATOM     52  NAY 4K4 d   1       2.009  -3.144  20.698  0.00  0.00    -0.185 N 
ATOM     53  H30 4K4 d   1       2.006  -2.305  21.296  0.00  0.00     0.184 HD
BRANCH  52  54
ATOM     54  C2  4K4 d   1       3.219  -3.450  20.066  0.00  0.00     0.729 A 
ATOM     55  N1  4K4 d   1       4.158  -2.481  20.156  0.00  0.00    -0.073 NA
ATOM     56  C6  4K4 d   1       5.354  -2.626  19.605  0.00  0.00     0.051 A 
ATOM     57  C5  4K4 d   1       5.593  -3.828  18.915  0.00  0.00     0.102 A 
ATOM     58  H1  4K4 d   1       6.112  -1.855  19.682  0.00  0.00     0.119 H 
ATOM     59  C4  4K4 d   1       4.565  -4.807  18.825  0.00  0.00     0.177 A 
ATOM     60  NBO 4K4 d   1       6.868  -4.011  18.355  0.00  0.00    -0.314 N 
ATOM     61  N3  4K4 d   1       3.397  -4.606  19.410  0.00  0.00    -0.042 NA
ATOM     62  NBP 4K4 d   1       4.700  -5.927  18.161  0.00  0.00    -0.333 N 
ATOM     63  CBH 4K4 d   1       5.012  -5.870  16.778  0.00  0.00     0.051 A 
ATOM     64  CAL 4K4 d   1       4.113  -6.379  15.821  0.00  0.00    -0.056 A 
ATOM     65  CBG 4K4 d   1       6.205  -5.309  16.306  0.00  0.00     0.059 A 
ATOM     66  CAH 4K4 d   1       4.424  -6.369  14.469  0.00  0.00    -0.081 A 
ATOM     67  H34 4K4 d   1       3.162  -6.785  16.146  0.00  0.00     0.087 H 
ATOM     68  CAG 4K4 d   1       5.620  -5.813  14.019  0.00  0.00    -0.082 A 
ATOM     69  H35 4K4 d   1       3.730  -6.798  13.755  0.00  0.00     0.083 H 
ATOM     70  CAK 4K4 d   1       6.504  -5.254  14.930  0.00  0.00    -0.065 A 
ATOM     71  H36 4K4 d   1       5.858  -5.817  12.961  0.00  0.00     0.083 H 
ATOM     72  H37 4K4 d   1       7.416  -4.779  14.587  0.00  0.00     0.085 H 
ATOM     73  CBF 4K4 d   1       7.188  -4.734  17.242  0.00  0.00     0.260 C 
ATOM     74  OAF 4K4 d   1       8.373  -4.918  16.940  0.00  0.00    -0.267 OA
BRANCH  62  75
ATOM     75  CAD 4K4 d   1       3.793  -7.018  18.518  0.00  0.00    -0.012 C 
ATOM     76  H31 4K4 d   1       3.600  -6.995  19.601  0.00  0.00     0.057 H 
ATOM     77  H32 4K4 d   1       4.252  -7.980  18.247  0.00  0.00     0.057 H 
ATOM     78  H33 4K4 d   1       2.844  -6.899  17.974  0.00  0.00     0.057 H 
ENDBRANCH  62  75
BRANCH  60  79
ATOM     79  CAC 4K4 d   1       7.989  -3.377  19.055  0.00  0.00    -0.011 C 
ATOM     80  H38 4K4 d   1       7.611  -2.826  19.929  0.00  0.00     0.057 H 
ATOM     81  H39 4K4 d   1       8.499  -2.679  18.374  0.00  0.00     0.057 H 
ATOM     82  H40 4K4 d   1       8.698  -4.150  19.387  0.00  0.00     0.057 H 
ENDBRANCH  60  79
ENDBRANCH  52  54
ENDBRANCH   6  52
TORSDOF 9
