REMARK  9 active torsions:
REMARK  status: ('A' for Active; 'I' for Inactive)
REMARK    1  A    between atoms: C01_1  and  C02_2 
REMARK    2  A    between atoms: C02_2  and  N03_3 
REMARK    3  A    between atoms: N03_3  and  C04_4 
REMARK    4  A    between atoms: C05_5  and  C28_27 
REMARK    5  A    between atoms: C08_8  and  N10_10 
REMARK    6  A    between atoms: N10_10  and  C11_11 
REMARK    7  A    between atoms: C14_14  and  C19_19 
REMARK    8  A    between atoms: C16_16  and  O17_17 
REMARK    9  A    between atoms: O17_17  and  C18_18 
REMARK       I    between atoms: C19_19  and  N21_21 
ROOT
ATOM      1  C11 A0T d   1       1.067  -3.077  20.333  0.00  0.00     0.085 A 
ATOM      2  C12 A0T d   1       0.835  -3.943  19.245  0.00  0.00    -0.016 A 
ATOM      3  C13 A0T d   1      -0.422  -4.582  19.179  0.00  0.00     0.134 A 
ATOM      4  C14 A0T d   1      -1.406  -4.403  20.124  0.00  0.00     0.073 A 
ATOM      5  C15 A0T d   1      -1.183  -3.529  21.174  0.00  0.00    -0.030 A 
ATOM      6  C16 A0T d   1       0.059  -2.887  21.305  0.00  0.00     0.096 A 
ATOM      7  F27 A0T d   1      -0.748  -5.414  18.208  0.00  0.00    -0.205 F 
ATOM      8  H9  A0T d   1       1.593  -4.112  18.488  0.00  0.00     0.091 H 
ATOM      9  H10 A0T d   1      -1.969  -3.340  21.896  0.00  0.00     0.089 H 
ENDROOT
BRANCH   1  10
ATOM     10  N10 A0T d   1       2.232  -2.330  20.491  0.00  0.00    -0.185 N 
ATOM     11  H8  A0T d   1       2.172  -1.520  21.124  0.00  0.00     0.184 HD
BRANCH  10  12
ATOM     12  C08 A0T d   1       3.410  -2.543  19.919  0.00  0.00     0.728 A 
ATOM     13  N07 A0T d   1       4.356  -1.603  20.079  0.00  0.00    -0.074 NA
ATOM     14  C06 A0T d   1       5.588  -1.700  19.603  0.00  0.00     0.039 A 
ATOM     15  C05 A0T d   1       5.851  -2.825  18.851  0.00  0.00     0.112 A 
ATOM     16  H7  A0T d   1       6.341  -0.944  19.793  0.00  0.00     0.117 H 
ATOM     17  C04 A0T d   1       4.811  -3.759  18.627  0.00  0.00     0.159 A 
ATOM     18  N09 A0T d   1       3.616  -3.619  19.179  0.00  0.00    -0.044 NA
BRANCH  15  19
ATOM     19  C28 A0T d   1       7.234  -2.965  18.228  0.00  0.00     0.422 C 
ATOM     20  F29 A0T d   1       7.130  -2.889  16.860  0.00  0.00    -0.166 F 
ATOM     21  F30 A0T d   1       7.763  -4.138  18.661  0.00  0.00    -0.166 F 
ATOM     22  F31 A0T d   1       7.966  -1.961  18.593  0.00  0.00    -0.166 F 
ENDBRANCH  15  19
BRANCH  17  23
ATOM     23  N03 A0T d   1       4.936  -4.825  17.902  0.00  0.00    -0.374 N 
ATOM     24  H6  A0T d   1       5.813  -5.007  17.394  0.00  0.00     0.161 HD
BRANCH  23  25
ATOM     25  C02 A0T d   1       3.822  -5.767  17.811  0.00  0.00    -0.009 C 
ATOM     26  H4  A0T d   1       4.097  -6.695  18.333  0.00  0.00     0.063 H 
ATOM     27  H5  A0T d   1       2.939  -5.322  18.294  0.00  0.00     0.063 H 
BRANCH  25  28
ATOM     28  C01 A0T d   1       3.481  -6.096  16.371  0.00  0.00    -0.061 C 
ATOM     29  H1  A0T d   1       2.641  -6.805  16.346  0.00  0.00     0.029 H 
ATOM     30  H2  A0T d   1       4.356  -6.547  15.881  0.00  0.00     0.029 H 
ATOM     31  H3  A0T d   1       3.199  -5.174  15.841  0.00  0.00     0.029 H 
ENDBRANCH  25  28
ENDBRANCH  23  25
ENDBRANCH  17  23
ENDBRANCH  10  12
ENDBRANCH   1  10
BRANCH   6  32
ATOM     32  O17 A0T d   1       0.322  -2.024  22.349  0.00  0.00    -0.354 OA
BRANCH  32  33
ATOM     33  C18 A0T d   1      -0.586  -2.082  23.458  0.00  0.00     0.010 C 
ATOM     34  H11 A0T d   1      -0.277  -1.354  24.223  0.00  0.00     0.066 H 
ATOM     35  H12 A0T d   1      -0.575  -3.094  23.889  0.00  0.00     0.066 H 
ATOM     36  H13 A0T d   1      -1.602  -1.842  23.113  0.00  0.00     0.066 H 
ENDBRANCH  32  33
ENDBRANCH   6  32
BRANCH   4  37
ATOM     37  C19 A0T d   1      -2.790  -5.094  20.000  0.00  0.00     0.257 C 
ATOM     38  O20 A0T d   1      -3.762  -4.368  19.744  0.00  0.00    -0.267 OA
ATOM     39  N21 A0T d   1      -3.065  -6.377  20.345  0.00  0.00    -0.344 N 
ATOM     40  C22 A0T d   1      -4.466  -6.775  20.670  0.00  0.00     0.018 C 
ATOM     41  C26 A0T d   1      -2.033  -7.378  20.659  0.00  0.00     0.018 C 
ATOM     42  C23 A0T d   1      -4.589  -6.875  22.200  0.00  0.00     0.034 C 
ATOM     43  H14 A0T d   1      -4.693  -7.749  20.213  0.00  0.00     0.067 H 
ATOM     44  H15 A0T d   1      -5.167  -6.019  20.288  0.00  0.00     0.067 H 
ATOM     45  O24 A0T d   1      -3.699  -7.966  22.590  0.00  0.00    -0.388 OA
ATOM     46  H16 A0T d   1      -5.626  -7.102  22.489  0.00  0.00     0.076 H 
ATOM     47  H17 A0T d   1      -4.274  -5.934  22.674  0.00  0.00     0.076 H 
ATOM     48  C25 A0T d   1      -2.310  -7.978  22.050  0.00  0.00     0.034 C 
ATOM     49  H18 A0T d   1      -1.989  -9.030  22.015  0.00  0.00     0.076 H 
ATOM     50  H19 A0T d   1      -1.683  -7.427  22.767  0.00  0.00     0.076 H 
ATOM     51  H20 A0T d   1      -1.043  -6.898  20.657  0.00  0.00     0.067 H 
ATOM     52  H21 A0T d   1      -2.055  -8.177  19.904  0.00  0.00     0.067 H 
ENDBRANCH   4  37
TORSDOF 9
