REMARK  2 active torsions:
REMARK  status: ('A' for Active; 'I' for Inactive)
REMARK    1  A    between atoms: C7_4  and  C5_14 
REMARK    2  A    between atoms: C11_17  and  N4_19 
ROOT
ATOM      1  C4  3FE d   1       8.095  -4.506  16.819  0.00  0.00    -0.052 C 
ATOM      2  C6  3FE d   1       5.854  -4.580  16.028  0.00  0.00    -0.072 C 
ATOM      3  N5  3FE d   1      11.056  -5.714  15.582  0.00  0.00    -0.191 NA
ATOM      4  C1  3FE d   1       6.290  -5.335  14.915  0.00  0.00    -0.081 C 
ATOM      5  C2  3FE d   1       7.640  -5.666  14.753  0.00  0.00    -0.063 C 
ATOM      6  C3  3FE d   1       8.543  -5.250  15.722  0.00  0.00     0.045 C 
ATOM      7  C5  3FE d   1       6.768  -4.252  17.027  0.00  0.00    -0.022 C 
ATOM      8  C17 3FE d   1       9.931  -5.529  15.620  0.00  0.00     0.099 C 
ATOM      9  H1  3FE d   1       8.822  -4.120  17.525  0.00  0.00     0.087 H 
ATOM     10  H2  3FE d   1       4.821  -4.260  16.103  0.00  0.00     0.084 H 
ATOM     11  H8  3FE d   1       5.568  -5.662  14.176  0.00  0.00     0.083 H 
ATOM     12  H9  3FE d   1       7.973  -6.234  13.892  0.00  0.00     0.085 H 
ENDROOT
BRANCH   7  13
ATOM     13  C7  3FE d   1       6.295  -3.374  18.103  0.00  0.00     0.007 A 
ATOM     14  C8  3FE d   1       7.106  -2.328  18.546  0.00  0.00    -0.009 A 
ATOM     15  N1  3FE d   1       6.398  -1.613  19.403  0.00  0.00    -0.349 N 
ATOM     16  H5  3FE d   1       8.134  -2.136  18.241  0.00  0.00     0.112 H 
ATOM     17  C9  3FE d   1       5.188  -2.141  19.533  0.00  0.00     0.143 A 
ATOM     18  H10 3FE d   1       6.735  -0.773  19.895  0.00  0.00     0.167 HD
ATOM     19  N3  3FE d   1       4.147  -1.716  20.246  0.00  0.00    -0.223 NA
ATOM     20  C10 3FE d   1       5.054  -3.247  18.721  0.00  0.00     0.068 A 
ATOM     21  C12 3FE d   1       2.979  -2.338  20.297  0.00  0.00     0.091 A 
ATOM     22  N2  3FE d   1       2.832  -3.432  19.553  0.00  0.00    -0.224 NA
ATOM     23  H11 3FE d   1       2.173  -1.970  20.921  0.00  0.00     0.146 H 
ATOM     24  C11 3FE d   1       3.814  -3.885  18.749  0.00  0.00     0.142 A 
BRANCH  24  25
ATOM     25  N4  3FE d   1       3.495  -5.023  18.081  0.00  0.00    -0.361 N 
ATOM     26  C13 3FE d   1       2.087  -5.359  17.887  0.00  0.00     0.016 C 
ATOM     27  C14 3FE d   1       1.983  -6.415  16.769  0.00  0.00     0.034 C 
ATOM     28  H3  3FE d   1       1.527  -4.457  17.598  0.00  0.00     0.067 H 
ATOM     29  H4  3FE d   1       1.671  -5.766  18.821  0.00  0.00     0.067 H 
ATOM     30  O1  3FE d   1       2.802  -7.506  16.947  0.00  0.00    -0.388 OA
ATOM     31  H12 3FE d   1       2.249  -5.936  15.816  0.00  0.00     0.076 H 
ATOM     32  H13 3FE d   1       0.942  -6.768  16.724  0.00  0.00     0.076 H 
ATOM     33  C15 3FE d   1       4.188  -7.206  17.009  0.00  0.00     0.034 C 
ATOM     34  C16 3FE d   1       4.539  -6.059  17.961  0.00  0.00     0.016 C 
ATOM     35  H14 3FE d   1       4.722  -8.108  17.343  0.00  0.00     0.076 H 
ATOM     36  H15 3FE d   1       4.527  -6.933  15.999  0.00  0.00     0.076 H 
ATOM     37  H6  3FE d   1       4.718  -6.484  18.960  0.00  0.00     0.067 H 
ATOM     38  H7  3FE d   1       5.459  -5.579  17.596  0.00  0.00     0.067 H 
ENDBRANCH  24  25
ENDBRANCH   7  13
TORSDOF 2
