REMARK  7 active torsions:
REMARK  status: ('A' for Active; 'I' for Inactive)
REMARK    1  A    between atoms: C2_2  and  C11_11 
REMARK    2  A    between atoms: C3_3  and  O7_7 
REMARK    3  A    between atoms: C6_6  and  N10_10 
REMARK    4  A    between atoms: O7_7  and  C8_8 
REMARK    5  A    between atoms: C8_8  and  C9_9 
REMARK       I    between atoms: C11_11  and  N12_12 
REMARK    6  A    between atoms: N12_12  and  C14_14 
REMARK    7  A    between atoms: N27_27  and  C30_30 
ROOT
ATOM      1  C1  A0Q d   1       1.277  -4.573  19.342  0.00  0.00    -0.039 A 
ATOM      2  C2  A0Q d   1       2.245  -4.961  18.474  0.00  0.00     0.067 A 
ATOM      3  C3  A0Q d   1       1.949  -5.769  17.401  0.00  0.00     0.085 A 
ATOM      4  C4  A0Q d   1       0.676  -6.287  17.219  0.00  0.00    -0.048 A 
ATOM      5  C5  A0Q d   1      -0.301  -5.923  18.112  0.00  0.00    -0.055 A 
ATOM      6  C6  A0Q d   1       0.018  -5.062  19.180  0.00  0.00     0.031 A 
ATOM      7  H1  A0Q d   1       1.503  -3.886  20.150  0.00  0.00     0.088 H 
ATOM      8  H2  A0Q d   1       0.459  -6.959  16.397  0.00  0.00     0.087 H 
ATOM      9  H3  A0Q d   1      -1.312  -6.296  17.996  0.00  0.00     0.087 H 
ENDROOT
BRANCH   6  10
ATOM     10  N10 A0Q d   1      -0.927  -4.712  20.133  0.00  0.00    -0.378 N 
ATOM     11  C25 A0Q d   1      -0.370  -4.315  21.448  0.00  0.00     0.018 C 
ATOM     12  C26 A0Q d   1      -1.401  -3.673  22.330  0.00  0.00     0.098 C 
ATOM     13  H16 A0Q d   1       0.450  -3.601  21.284  0.00  0.00     0.066 H 
ATOM     14  H17 A0Q d   1       0.019  -5.211  21.953  0.00  0.00     0.066 H 
ATOM     15  N27 A0Q d   1      -2.648  -4.454  22.234  0.00  0.00    -0.072 N 
ATOM     16  H18 A0Q d   1      -1.583  -2.640  21.998  0.00  0.00     0.078 H 
ATOM     17  H19 A0Q d   1      -1.046  -3.666  23.371  0.00  0.00     0.078 H 
ATOM     18  C28 A0Q d   1      -3.223  -4.472  20.866  0.00  0.00     0.098 C 
ATOM     19  H20 A0Q d   1      -2.466  -5.399  22.532  0.00  0.00     0.279 HD
ATOM     20  C29 A0Q d   1      -2.296  -5.255  19.977  0.00  0.00     0.018 C 
ATOM     21  H21 A0Q d   1      -3.320  -3.443  20.489  0.00  0.00     0.078 H 
ATOM     22  H22 A0Q d   1      -4.213  -4.950  20.885  0.00  0.00     0.078 H 
ATOM     23  H23 A0Q d   1      -2.310  -6.316  20.268  0.00  0.00     0.066 H 
ATOM     24  H24 A0Q d   1      -2.617  -5.158  18.929  0.00  0.00     0.066 H 
BRANCH  15  25
ATOM     25  C30 A0Q d   1      -3.656  -3.832  23.101  0.00  0.00     0.066 C 
ATOM     26  H25 A0Q d   1      -3.278  -3.793  24.133  0.00  0.00     0.068 H 
ATOM     27  H26 A0Q d   1      -4.582  -4.425  23.071  0.00  0.00     0.068 H 
ATOM     28  H27 A0Q d   1      -3.863  -2.811  22.748  0.00  0.00     0.068 H 
ENDBRANCH  15  25
ENDBRANCH   6  10
BRANCH   2  29
ATOM     29  C11 A0Q d   1       3.623  -4.451  18.654  0.00  0.00     0.259 C 
ATOM     30  N12 A0Q d   1       4.614  -4.993  17.932  0.00  0.00    -0.322 N 
ATOM     31  H6  A0Q d   1       4.414  -5.861  17.478  0.00  0.00     0.169 HD
ATOM     32  O13 A0Q d   1       3.830  -3.560  19.469  0.00  0.00    -0.267 OA
BRANCH  30  33
ATOM     33  C14 A0Q d   1       5.885  -4.476  17.749  0.00  0.00     0.052 A 
ATOM     34  C15 A0Q d   1       6.351  -3.398  18.418  0.00  0.00    -0.054 A 
ATOM     35  C16 A0Q d   1       7.620  -2.957  18.175  0.00  0.00    -0.064 A 
ATOM     36  H7  A0Q d   1       5.723  -2.889  19.140  0.00  0.00     0.087 H 
ATOM     37  C17 A0Q d   1       8.374  -3.598  17.213  0.00  0.00     0.002 A 
ATOM     38  H8  A0Q d   1       8.028  -2.119  18.728  0.00  0.00     0.085 H 
ATOM     39  N18 A0Q d   1       7.891  -4.633  16.563  0.00  0.00    -0.271 NA
ATOM     40  H9  A0Q d   1       9.374  -3.244  16.991  0.00  0.00     0.114 H 
ATOM     41  C19 A0Q d   1       6.679  -5.103  16.812  0.00  0.00     0.028 A 
ATOM     42  H10 A0Q d   1       6.313  -5.975  16.283  0.00  0.00     0.118 H 
ENDBRANCH  30  33
ENDBRANCH   2  29
BRANCH   3  43
ATOM     43  O7  A0Q d   1       2.988  -6.073  16.588  0.00  0.00    -0.346 OA
BRANCH  43  44
ATOM     44  C8  A0Q d   1       2.680  -6.937  15.472  0.00  0.00     0.050 C 
ATOM     45  H4  A0Q d   1       1.974  -6.441  14.789  0.00  0.00     0.082 H 
ATOM     46  H5  A0Q d   1       2.242  -7.881  15.830  0.00  0.00     0.082 H 
BRANCH  44  47
ATOM     47  C9  A0Q d   1       4.031  -7.209  14.748  0.00  0.00    -0.034 A 
ATOM     48  C20 A0Q d   1       4.468  -6.364  13.722  0.00  0.00    -0.075 A 
ATOM     49  C21 A0Q d   1       5.695  -6.568  13.122  0.00  0.00    -0.082 A 
ATOM     50  H11 A0Q d   1       3.839  -5.543  13.396  0.00  0.00     0.084 H 
ATOM     51  C22 A0Q d   1       6.502  -7.640  13.498  0.00  0.00    -0.083 A 
ATOM     52  H12 A0Q d   1       6.034  -5.887  12.350  0.00  0.00     0.083 H 
ATOM     53  C23 A0Q d   1       6.059  -8.477  14.505  0.00  0.00    -0.082 A 
ATOM     54  H13 A0Q d   1       7.455  -7.814  13.012  0.00  0.00     0.083 H 
ATOM     55  C24 A0Q d   1       4.839  -8.269  15.141  0.00  0.00    -0.075 A 
ATOM     56  H14 A0Q d   1       6.677  -9.315  14.806  0.00  0.00     0.083 H 
ATOM     57  H15 A0Q d   1       4.521  -8.930  15.939  0.00  0.00     0.084 H 
ENDBRANCH  44  47
ENDBRANCH  43  44
ENDBRANCH   3  43
TORSDOF 7
