REMARK  5 active torsions:
REMARK  status: ('A' for Active; 'I' for Inactive)
REMARK    1  A    between atoms: C10_9  and  C11_2 
REMARK    2  A    between atoms: C11_2  and  N_10 
REMARK    3  A    between atoms: C1_5  and  O_15 
REMARK    4  A    between atoms: C7_13  and  C6_14 
REMARK    5  A    between atoms: O_15  and  C_16 
ROOT
ATOM      1  C13 A4B d   1       4.184 139.116 350.683  0.00  0.00     0.045 A 
ATOM      2 CL   A4B d   1       3.077 139.442 349.389  0.00  0.00    -0.083 Cl
ATOM      3  C12 A4B d   1       4.211 137.840 351.209  0.00  0.00    -0.053 A 
ATOM      4  C10 A4B d   1       5.079 137.526 352.246  0.00  0.00    -0.031 A 
ATOM      5  C9  A4B d   1       5.910 138.521 352.733  0.00  0.00    -0.074 A 
ATOM      6  C8  A4B d   1       5.883 139.799 352.205  0.00  0.00    -0.070 A 
ATOM      7  C7  A4B d   1       5.016 140.124 351.165  0.00  0.00    -0.001 A 
ATOM      8  H6  A4B d   1       3.550 137.079 350.810  0.00  0.00     0.087 H 
ATOM      9  H10 A4B d   1       6.594 138.294 353.543  0.00  0.00     0.084 H 
ATOM     10  H11 A4B d   1       6.545 140.558 352.606  0.00  0.00     0.084 H 
ENDROOT
BRANCH   7  11
ATOM     11  C6  A4B d   1       5.012 141.515 350.619  0.00  0.00     0.009 A 
ATOM     12  C1  A4B d   1       5.578 141.840 349.383  0.00  0.00     0.079 A 
ATOM     13  C2  A4B d   1       5.559 143.141 348.905  0.00  0.00    -0.050 A 
ATOM     14  C3  A4B d   1       4.971 144.137 349.663  0.00  0.00    -0.080 A 
ATOM     15  H5  A4B d   1       6.002 143.376 347.944  0.00  0.00     0.087 H 
ATOM     16  C4  A4B d   1       4.409 143.839 350.882  0.00  0.00    -0.082 A 
ATOM     17  H4  A4B d   1       4.953 145.156 349.295  0.00  0.00     0.083 H 
ATOM     18  C5  A4B d   1       4.427 142.541 351.360  0.00  0.00    -0.070 A 
ATOM     19  H1  A4B d   1       3.950 144.625 351.471  0.00  0.00     0.083 H 
ATOM     20  H15 A4B d   1       3.981 142.319 352.323  0.00  0.00     0.085 H 
BRANCH  12  21
ATOM     21  O   A4B d   1       6.139 140.800 348.696  0.00  0.00    -0.355 OA
BRANCH  21  22
ATOM     22  C   A4B d   1       6.670 141.077 347.403  0.00  0.00     0.010 C 
ATOM     23  H12 A4B d   1       7.085 140.154 346.972  0.00  0.00     0.066 H 
ATOM     24  H13 A4B d   1       7.465 141.833 347.487  0.00  0.00     0.066 H 
ATOM     25  H14 A4B d   1       5.870 141.458 346.752  0.00  0.00     0.066 H 
ENDBRANCH  21  22
ENDBRANCH  12  21
ENDBRANCH   7  11
BRANCH   4  26
ATOM     26  C11 A4B d   1       5.112 136.134 352.825  0.00  0.00     0.103 C 
ATOM     27  H2  A4B d   1       4.100 135.709 352.749  0.00  0.00     0.082 H 
ATOM     28  H3  A4B d   1       5.399 136.212 353.884  0.00  0.00     0.082 H 
BRANCH  26  29
ATOM     29  N   A4B d   1       6.038 135.214 352.173  0.00  0.00    -0.075 N 
ATOM     30  H7  A4B d   1       5.992 134.314 352.625  0.00  0.00     0.274 HD
ATOM     31  H8  A4B d   1       6.976 135.577 352.242  0.00  0.00     0.274 HD
ATOM     32  H9  A4B d   1       5.786 135.116 351.202  0.00  0.00     0.274 HD
ENDBRANCH  26  29
ENDBRANCH   4  26
TORSDOF 5
