REMARK  9 active torsions:
REMARK  status: ('A' for Active; 'I' for Inactive)
REMARK    1  A    between atoms: C_2  and  CA_3 
REMARK    2  A    between atoms: CA_3  and  CB_4 
REMARK    3  A    between atoms: CA_3  and  N_5 
REMARK    4  A    between atoms: N_5  and  CAI_6 
REMARK    5  A    between atoms: CAI_6  and  CAE_7 
REMARK    6  A    between atoms: CAI_6  and  CAK_10 
REMARK    7  A    between atoms: CAK_10  and  CAL_11 
REMARK    8  A    between atoms: CAL_11  and  CAM_12 
REMARK    9  A    between atoms: CAM_12  and  NAN_13 
REMARK       I    between atoms: NAN_13  and  CAP_14 
REMARK       I    between atoms: CAP_14  and  NAO_15 
ROOT
ATOM      1  CAK 6DB d   1     -15.390 -24.946  22.361  0.00  0.00    -0.027 C 
ATOM      2  H8  6DB d   1     -14.516 -25.570  22.601  0.00  0.00     0.036 H 
ATOM      3  H9  6DB d   1     -15.053 -23.946  22.050  0.00  0.00     0.036 H 
ENDROOT
BRANCH   1   4
ATOM      4  CAI 6DB d   1     -16.255 -24.803  23.625  0.00  0.00     0.185 C 
ATOM      5  H7  6DB d   1     -15.595 -24.445  24.429  0.00  0.00     0.101 H 
BRANCH   4   6
ATOM      6  N   6DB d   1     -16.901 -26.043  24.111  0.00  0.00    -0.047 N 
ATOM      7  H5  6DB d   1     -17.479 -25.796  24.899  0.00  0.00     0.279 HD
ATOM      8  H6  6DB d   1     -17.481 -26.396  23.366  0.00  0.00     0.279 HD
BRANCH   6   9
ATOM      9  CA  6DB d   1     -16.023 -27.124  24.533  0.00  0.00     0.182 C 
ATOM     10  H1  6DB d   1     -15.255 -27.237  23.754  0.00  0.00     0.101 H 
BRANCH   9  11
ATOM     11  C   6DB d   1     -15.327 -26.883  25.800  0.00  0.00     0.204 C 
ATOM     12  O   6DB d   1     -14.380 -27.677  26.095  0.00  0.00    -0.646 OA
ATOM     13  OXT 6DB d   1     -15.652 -25.947  26.585  0.00  0.00    -0.646 OA
ENDBRANCH   9  11
BRANCH   9  14
ATOM     14  CB  6DB d   1     -16.804 -28.449  24.631  0.00  0.00    -0.040 C 
ATOM     15  H2  6DB d   1     -17.329 -28.636  23.683  0.00  0.00     0.031 H 
ATOM     16  H3  6DB d   1     -17.537 -28.383  25.449  0.00  0.00     0.031 H 
ATOM     17  H4  6DB d   1     -16.104 -29.273  24.831  0.00  0.00     0.031 H 
ENDBRANCH   9  14
ENDBRANCH   6   9
ENDBRANCH   4   6
BRANCH   4  18
ATOM     18  CAE 6DB d   1     -17.316 -23.767  23.381  0.00  0.00     0.204 C 
ATOM     19  OAB 6DB d   1     -16.981 -22.545  23.264  0.00  0.00    -0.646 OA
ATOM     20  OAF 6DB d   1     -18.528 -24.101  23.265  0.00  0.00    -0.646 OA
ENDBRANCH   4  18
ENDBRANCH   1   4
BRANCH   1  21
ATOM     21  CAL 6DB d   1     -16.162 -25.604  21.174  0.00  0.00    -0.047 C 
ATOM     22  H10 6DB d   1     -17.211 -25.279  21.234  0.00  0.00     0.035 H 
ATOM     23  H11 6DB d   1     -16.108 -26.695  21.302  0.00  0.00     0.035 H 
BRANCH  21  24
ATOM     24  CAM 6DB d   1     -15.650 -25.272  19.776  0.00  0.00     0.009 C 
ATOM     25  H12 6DB d   1     -14.557 -25.383  19.718  0.00  0.00     0.064 H 
ATOM     26  H13 6DB d   1     -15.931 -24.250  19.483  0.00  0.00     0.064 H 
BRANCH  24  27
ATOM     27  NAN 6DB d   1     -16.309 -26.240  18.960  0.00  0.00    -0.227 N 
ATOM     28  CAP 6DB d   1     -15.952 -26.541  17.660  0.00  0.00     0.665 C 
ATOM     29  NAO 6DB d   1     -16.671 -27.413  16.989  0.00  0.00    -0.235 N 
ATOM     30  NAQ 6DB d   1     -14.909 -25.950  17.162  0.00  0.00    -0.235 N 
ATOM     31  H15 6DB d   1     -16.420 -27.650  16.019  0.00  0.00     0.174 HD
ATOM     32  H16 6DB d   1     -17.486 -27.860  17.434  0.00  0.00     0.174 HD
ATOM     33  H17 6DB d   1     -14.380 -25.274  17.731  0.00  0.00     0.174 HD
ATOM     34  H18 6DB d   1     -14.611 -26.157  16.198  0.00  0.00     0.174 HD
ATOM     35  H14 6DB d   1     -17.106 -26.749  19.369  0.00  0.00     0.177 HD
ENDBRANCH  24  27
ENDBRANCH  21  24
ENDBRANCH   1  21
TORSDOF 9
