REMARK  4 active torsions:
REMARK  status: ('A' for Active; 'I' for Inactive)
REMARK    1  A    between atoms: C10_4  and  C11_5 
REMARK    2  A    between atoms: C11_5  and  N_6 
REMARK    3  A    between atoms: C7_9  and  C6_10 
REMARK    4  A    between atoms: C1_11  and  C_12 
ROOT
ATOM      1 CL   A4N d   1      15.924 155.810 380.202  0.00  0.00    -0.083 Cl
ATOM      2  C13 A4N d   1      17.393 155.305 379.432  0.00  0.00     0.045 A 
ATOM      3  C12 A4N d   1      18.046 156.208 378.618  0.00  0.00    -0.053 A 
ATOM      4  C10 A4N d   1      19.223 155.851 377.975  0.00  0.00    -0.031 A 
ATOM      5  C9  A4N d   1      19.725 154.577 378.181  0.00  0.00    -0.074 A 
ATOM      6  C8  A4N d   1      19.071 153.672 378.998  0.00  0.00    -0.070 A 
ATOM      7  C7  A4N d   1      17.883 154.017 379.638  0.00  0.00    -0.004 A 
ATOM      8  H1  A4N d   1      17.637 157.202 378.480  0.00  0.00     0.087 H 
ATOM      9  H7  A4N d   1      20.647 154.283 377.693  0.00  0.00     0.084 H 
ATOM     10  H8  A4N d   1      19.488 152.682 379.142  0.00  0.00     0.084 H 
ENDROOT
BRANCH   7  11
ATOM     11  C6  A4N d   1      17.180 153.004 380.481  0.00  0.00    -0.018 A 
ATOM     12  C1  A4N d   1      17.631 152.668 381.771  0.00  0.00    -0.051 A 
ATOM     13  C2  A4N d   1      16.917 151.709 382.487  0.00  0.00    -0.076 A 
ATOM     14  C3  A4N d   1      15.795 151.100 381.958  0.00  0.00    -0.082 A 
ATOM     15  H15 A4N d   1      17.249 151.435 383.482  0.00  0.00     0.084 H 
ATOM     16  C4  A4N d   1      15.361 151.434 380.701  0.00  0.00    -0.082 A 
ATOM     17  H14 A4N d   1      15.258 150.358 382.537  0.00  0.00     0.083 H 
ATOM     18  C5  A4N d   1      16.046 152.381 379.962  0.00  0.00    -0.072 A 
ATOM     19  H13 A4N d   1      14.481 150.956 380.286  0.00  0.00     0.083 H 
ATOM     20  H12 A4N d   1      15.698 152.642 378.969  0.00  0.00     0.084 H 
BRANCH  12  21
ATOM     21  C   A4N d   1      18.844 153.312 382.387  0.00  0.00    -0.050 C 
ATOM     22  H9  A4N d   1      19.008 152.898 383.393  0.00  0.00     0.033 H 
ATOM     23  H10 A4N d   1      18.686 154.398 382.459  0.00  0.00     0.033 H 
ATOM     24  H11 A4N d   1      19.725 153.110 381.760  0.00  0.00     0.033 H 
ENDBRANCH  12  21
ENDBRANCH   7  11
BRANCH   4  25
ATOM     25  C11 A4N d   1      19.928 156.824 377.063  0.00  0.00     0.103 C 
ATOM     26  H2  A4N d   1      19.215 157.155 376.293  0.00  0.00     0.082 H 
ATOM     27  H3  A4N d   1      20.769 156.301 376.584  0.00  0.00     0.082 H 
BRANCH  25  28
ATOM     28  N   A4N d   1      20.450 158.005 377.741  0.00  0.00    -0.075 N 
ATOM     29  H4  A4N d   1      20.905 158.604 377.070  0.00  0.00     0.274 HD
ATOM     30  H5  A4N d   1      21.115 157.722 378.444  0.00  0.00     0.274 HD
ATOM     31  H6  A4N d   1      19.691 158.505 378.178  0.00  0.00     0.274 HD
ENDBRANCH  25  28
ENDBRANCH   4  25
TORSDOF 4
