REMARK  5 active torsions:
REMARK  status: ('A' for Active; 'I' for Inactive)
REMARK    1  A    between atoms: C8_2  and  C7_1 
REMARK    2  A    between atoms: C11_4  and  C12_3 
REMARK    3  A    between atoms: C12_3  and  N_7 
REMARK    4  A    between atoms: C2_8  and  C1_13 
REMARK    5  A    between atoms: C1_13  and  C_14 
ROOT
ATOM      1  C7  A4Q d   1      -5.454 166.713 399.621  0.00  0.00    -0.018 A 
ATOM      2  C2  A4Q d   1      -6.119 165.928 400.575  0.00  0.00    -0.047 A 
ATOM      3  C3  A4Q d   1      -7.477 166.135 400.793  0.00  0.00    -0.076 A 
ATOM      4  C4  A4Q d   1      -8.171 167.100 400.088  0.00  0.00    -0.082 A 
ATOM      5  C5  A4Q d   1      -7.519 167.874 399.158  0.00  0.00    -0.082 A 
ATOM      6  C6  A4Q d   1      -6.169 167.686 398.923  0.00  0.00    -0.072 A 
ATOM      7  H8  A4Q d   1      -7.998 165.531 401.526  0.00  0.00     0.084 H 
ATOM      8  H9  A4Q d   1      -9.230 167.246 400.269  0.00  0.00     0.083 H 
ATOM      9  H10 A4Q d   1      -8.064 168.633 398.608  0.00  0.00     0.083 H 
ATOM     10  H11 A4Q d   1      -5.662 168.301 398.189  0.00  0.00     0.084 H 
ENDROOT
BRANCH   1  11
ATOM     11  C8  A4Q d   1      -4.008 166.527 399.298  0.00  0.00    -0.004 A 
ATOM     12  C9  A4Q d   1      -3.040 167.145 400.086  0.00  0.00    -0.070 A 
ATOM     13  C10 A4Q d   1      -1.693 166.978 399.815  0.00  0.00    -0.074 A 
ATOM     14  H4  A4Q d   1      -3.345 167.764 400.922  0.00  0.00     0.084 H 
ATOM     15  C11 A4Q d   1      -1.266 166.194 398.756  0.00  0.00    -0.031 A 
ATOM     16  H3  A4Q d   1      -0.959 167.470 400.443  0.00  0.00     0.084 H 
ATOM     17  C13 A4Q d   1      -2.224 165.578 397.963  0.00  0.00    -0.053 A 
ATOM     18  C14 A4Q d   1      -3.567 165.746 398.234  0.00  0.00     0.045 A 
ATOM     19  H17 A4Q d   1      -1.916 164.962 397.126  0.00  0.00     0.087 H 
ATOM     20 CL   A4Q d   1      -4.713 164.953 397.205  0.00  0.00    -0.083 Cl
BRANCH  15  21
ATOM     21  C12 A4Q d   1       0.207 166.008 398.479  0.00  0.00     0.103 C 
ATOM     22  H1  A4Q d   1       0.622 165.349 399.256  0.00  0.00     0.082 H 
ATOM     23  H2  A4Q d   1       0.694 166.993 398.535  0.00  0.00     0.082 H 
BRANCH  21  24
ATOM     24  N   A4Q d   1       0.510 165.424 397.177  0.00  0.00    -0.075 N 
ATOM     25  H5  A4Q d   1       1.509 165.335 397.073  0.00  0.00     0.274 HD
ATOM     26  H6  A4Q d   1       0.148 166.020 396.449  0.00  0.00     0.274 HD
ATOM     27  H7  A4Q d   1       0.082 164.514 397.109  0.00  0.00     0.274 HD
ENDBRANCH  21  24
ENDBRANCH  15  21
ENDBRANCH   1  11
BRANCH   2  28
ATOM     28  C1  A4Q d   1      -5.399 164.863 401.369  0.00  0.00    -0.043 C 
ATOM     29  H12 A4Q d   1      -4.879 164.199 400.663  0.00  0.00     0.039 H 
ATOM     30  H13 A4Q d   1      -6.149 164.286 401.930  0.00  0.00     0.039 H 
BRANCH  28  31
ATOM     31  C   A4Q d   1      -4.388 165.397 402.345  0.00  0.00    -0.073 C 
ATOM     32  H14 A4Q d   1      -3.914 164.559 402.877  0.00  0.00     0.028 H 
ATOM     33  H15 A4Q d   1      -4.890 166.055 403.070  0.00  0.00     0.028 H 
ATOM     34  H16 A4Q d   1      -3.620 165.968 401.802  0.00  0.00     0.028 H 
ENDBRANCH  28  31
ENDBRANCH   2  28
TORSDOF 5
