REMARK  3 active torsions:
REMARK  status: ('A' for Active; 'I' for Inactive)
REMARK    1  A    between atoms: C1_1  and  C_12 
REMARK    2  A    between atoms: C5_5  and  C4_4 
REMARK    3  A    between atoms: C_12  and  N_13 
ROOT
ATOM      1  C1  A4T d   1      70.178 139.621 350.658  0.00  0.00    -0.031 A 
ATOM      2  C2  A4T d   1      69.239 140.059 349.739  0.00  0.00    -0.074 A 
ATOM      3  C3  A4T d   1      69.032 141.410 349.514  0.00  0.00    -0.070 A 
ATOM      4  C4  A4T d   1      69.754 142.370 350.225  0.00  0.00    -0.001 A 
ATOM      5  C11 A4T d   1      70.680 141.916 351.156  0.00  0.00     0.045 A 
ATOM      6  C12 A4T d   1      70.888 140.572 351.379  0.00  0.00    -0.053 A 
ATOM      7 CL   A4T d   1      71.598 143.051 352.084  0.00  0.00    -0.083 Cl
ATOM      8  H1  A4T d   1      68.656 139.332 349.186  0.00  0.00     0.084 H 
ATOM      9  H2  A4T d   1      68.301 141.725 348.778  0.00  0.00     0.084 H 
ATOM     10  H6  A4T d   1      71.611 140.255 352.122  0.00  0.00     0.087 H 
ENDROOT
BRANCH   4  11
ATOM     11  C5  A4T d   1      69.503 143.824 349.992  0.00  0.00     0.014 A 
ATOM     12  C6  A4T d   1      68.336 144.422 350.464  0.00  0.00    -0.069 A 
ATOM     13  C7  A4T d   1      68.129 145.785 350.335  0.00  0.00    -0.082 A 
ATOM     14  H3  A4T d   1      67.578 143.810 350.940  0.00  0.00     0.085 H 
ATOM     15  C8  A4T d   1      69.098 146.584 349.770  0.00  0.00    -0.080 A 
ATOM     16  H12 A4T d   1      67.200 146.225 350.680  0.00  0.00     0.083 H 
ATOM     17  C9  A4T d   1      70.264 146.025 349.284  0.00  0.00    -0.045 A 
ATOM     18  H4  A4T d   1      68.945 147.655 349.706  0.00  0.00     0.083 H 
ATOM     19  C10 A4T d   1      70.432 144.664 349.388  0.00  0.00     0.127 A 
ATOM     20  H5  A4T d   1      71.029 146.645 348.831  0.00  0.00     0.088 H 
ATOM     21  F   A4T d   1      71.513 144.114 348.793  0.00  0.00    -0.205 F 
ENDBRANCH   4  11
BRANCH   1  22
ATOM     22  C   A4T d   1      70.558 138.164 350.846  0.00  0.00     0.103 C 
ATOM     23  H7  A4T d   1      71.517 137.996 350.334  0.00  0.00     0.082 H 
ATOM     24  H8  A4T d   1      69.778 137.548 350.375  0.00  0.00     0.082 H 
BRANCH  22  25
ATOM     25  N   A4T d   1      70.703 137.725 352.217  0.00  0.00    -0.075 N 
ATOM     26  H9  A4T d   1      70.955 136.749 352.232  0.00  0.00     0.274 HD
ATOM     27  H10 A4T d   1      69.831 137.855 352.705  0.00  0.00     0.274 HD
ATOM     28  H11 A4T d   1      71.424 138.265 352.668  0.00  0.00     0.274 HD
ENDBRANCH  22  25
ENDBRANCH   1  22
TORSDOF 3
