REMARK  6 active torsions:
REMARK  status: ('A' for Active; 'I' for Inactive)
REMARK    1  A    between atoms: C4_1  and  C5_2 
REMARK    2  A    between atoms: C5_2  and  O_6 
REMARK    3  A    between atoms: S2_7  and  C3_3 
REMARK    4  A    between atoms: C2_4  and  S2_7 
REMARK    5  A    between atoms: C1_5  and  S_10 
REMARK    6  A    between atoms: S_10  and  C_11 
ROOT
ATOM      1  C4  A65 d   1     -10.855  13.289 -17.219  0.00  0.00     0.026 A 
ATOM      2  C2  A65 d   1     -11.789  12.903 -16.159  0.00  0.00     0.070 A 
ATOM      3  C1  A65 d   1     -11.482  14.572 -17.666  0.00  0.00     0.111 A 
ATOM      4  S1  A65 d   1     -12.861  13.848 -15.974  0.00  0.00     0.020 SA
ATOM      5  N   A65 d   1     -12.624  14.886 -16.949  0.00  0.00    -0.203 NA
ENDROOT
BRANCH   1   6
ATOM      6  C5  A65 d   1      -9.626  12.721 -17.818  0.00  0.00     0.045 C 
ATOM      7  H1  A65 d   1      -9.125  12.082 -17.076  0.00  0.00     0.081 H 
ATOM      8  H2  A65 d   1      -8.954  13.542 -18.108  0.00  0.00     0.081 H 
BRANCH   6   9
ATOM      9  O   A65 d   1      -9.938  11.940 -18.974  0.00  0.00    -0.396 OA
ATOM     10  H6  A65 d   1      -9.137  11.586 -19.341  0.00  0.00     0.209 HD
ENDBRANCH   6   9
ENDBRANCH   1   6
BRANCH   2  11
ATOM     11  S2  A65 d   1     -11.792  11.492 -15.099  0.00  0.00    -0.125 SA
BRANCH  11  12
ATOM     12  C3  A65 d   1     -10.209  10.717 -15.329  0.00  0.00    -0.030 C 
ATOM     13  H3  A65 d   1     -10.143   9.823 -14.692  0.00  0.00     0.042 H 
ATOM     14  H4  A65 d   1      -9.412  11.423 -15.054  0.00  0.00     0.042 H 
ATOM     15  H5  A65 d   1     -10.093  10.426 -16.383  0.00  0.00     0.042 H 
ENDBRANCH  11  12
ENDBRANCH   2  11
BRANCH   3  16
ATOM     16  S   A65 d   1     -10.781  15.488 -18.936  0.00  0.00    -0.114 SA
BRANCH  16  17
ATOM     17  C   A65 d   1     -11.912  16.872 -19.031  0.00  0.00    -0.029 C 
ATOM     18  H7  A65 d   1     -11.582  17.561 -19.822  0.00  0.00     0.042 H 
ATOM     19  H8  A65 d   1     -11.926  17.401 -18.067  0.00  0.00     0.042 H 
ATOM     20  H9  A65 d   1     -12.922  16.505 -19.263  0.00  0.00     0.042 H 
ENDBRANCH  16  17
ENDBRANCH   3  16
TORSDOF 6
