REMARK  4 active torsions:
REMARK  status: ('A' for Active; 'I' for Inactive)
REMARK    1  A    between atoms: C4_7  and  C5_8 
REMARK    2  A    between atoms: O_16  and  C4_7 
REMARK    3  A    between atoms: C5_8  and  C6_9 
REMARK       I    between atoms: C6_9  and  N_14 
REMARK    4  A    between atoms: C3_10  and  O_16 
ROOT
ATOM      1  C5  A6E d   1     -10.485  11.521 -18.761  0.00  0.00     0.029 C 
ATOM      2  H13 A6E d   1     -10.582  10.611 -19.371  0.00  0.00     0.050 H 
ATOM      3  H14 A6E d   1     -11.418  12.101 -18.817  0.00  0.00     0.050 H 
ENDROOT
BRANCH   1   4
ATOM      4  C4  A6E d   1      -9.341  12.373 -19.328  0.00  0.00     0.034 C 
ATOM      5  H11 A6E d   1      -9.525  12.594 -20.390  0.00  0.00     0.075 H 
ATOM      6  H12 A6E d   1      -8.385  11.839 -19.225  0.00  0.00     0.075 H 
BRANCH   4   7
ATOM      7  O   A6E d   1      -9.309  13.591 -18.569  0.00  0.00    -0.351 OA
BRANCH   7   8
ATOM      8  C3  A6E d   1     -10.255  14.625 -18.878  0.00  0.00     0.069 A 
ATOM      9  C11 A6E d   1     -11.117  14.523 -19.948  0.00  0.00    -0.048 A 
ATOM     10  C12 A6E d   1     -12.035  15.528 -20.194  0.00  0.00    -0.043 A 
ATOM     11  H2  A6E d   1     -11.076  13.655 -20.597  0.00  0.00     0.087 H 
ATOM     12  C   A6E d   1     -12.056  16.604 -19.357  0.00  0.00     0.116 A 
ATOM     13  H1  A6E d   1     -12.720  15.462 -21.031  0.00  0.00     0.088 H 
ATOM     14  C1  A6E d   1     -11.217  16.734 -18.288  0.00  0.00    -0.043 A 
ATOM     15  F   A6E d   1     -12.947  17.588 -19.596  0.00  0.00    -0.206 F 
ATOM     16  C2  A6E d   1     -10.300  15.724 -18.049  0.00  0.00    -0.048 A 
ATOM     17  H16 A6E d   1     -11.267  17.604 -17.644  0.00  0.00     0.088 H 
ATOM     18  H15 A6E d   1      -9.618  15.798 -17.210  0.00  0.00     0.087 H 
ENDBRANCH   7   8
ENDBRANCH   4   7
ENDBRANCH   1   4
BRANCH   1  19
ATOM     19  C6  A6E d   1     -10.254  11.121 -17.337  0.00  0.00     0.221 C 
ATOM     20  O1  A6E d   1      -9.476  10.205 -17.045  0.00  0.00    -0.273 OA
ATOM     21  N   A6E d   1     -10.874  11.834 -16.376  0.00  0.00    -0.351 N 
ATOM     22  C10 A6E d   1     -11.794  12.930 -16.727  0.00  0.00     0.005 C 
ATOM     23  C7  A6E d   1     -10.589  11.685 -14.945  0.00  0.00     0.005 C 
ATOM     24  C9  A6E d   1     -13.129  12.798 -16.035  0.00  0.00    -0.008 C 
ATOM     25  H3  A6E d   1     -11.335  13.885 -16.433  0.00  0.00     0.065 H 
ATOM     26  H4  A6E d   1     -11.957  12.921 -17.815  0.00  0.00     0.065 H 
ATOM     27  S   A6E d   1     -12.970  12.871 -14.249  0.00  0.00    -0.166 SA
ATOM     28  H5  A6E d   1     -13.579  11.833 -16.312  0.00  0.00     0.051 H 
ATOM     29  H6  A6E d   1     -13.784  13.617 -16.367  0.00  0.00     0.051 H 
ATOM     30  C8  A6E d   1     -11.840  11.480 -14.121  0.00  0.00    -0.008 C 
ATOM     31  H7  A6E d   1     -11.553  11.352 -13.067  0.00  0.00     0.051 H 
ATOM     32  H8  A6E d   1     -12.353  10.573 -14.474  0.00  0.00     0.051 H 
ATOM     33  H9  A6E d   1      -9.929  10.816 -14.806  0.00  0.00     0.065 H 
ATOM     34  H10 A6E d   1     -10.079  12.593 -14.591  0.00  0.00     0.065 H 
ENDBRANCH   1  19
TORSDOF 4
