REMARK  5 active torsions:
REMARK  status: ('A' for Active; 'I' for Inactive)
REMARK    1  A    between atoms: C10_4  and  C13_2 
REMARK    2  A    between atoms: C13_2  and  O1_16 
REMARK    3  A    between atoms: C5_9  and  C7_7 
REMARK    4  A    between atoms: C7_7  and  N1_14 
REMARK    5  A    between atoms: C4_8  and  N2_15 
ROOT
ATOM      1  C12 A7K d   1     -12.131  14.971 -16.776  0.00  0.00    -0.004 C 
ATOM      2  C11 A7K d   1     -11.669  15.903 -17.884  0.00  0.00    -0.045 C 
ATOM      3  C10 A7K d   1     -12.212  15.441 -19.236  0.00  0.00    -0.031 C 
ATOM      4  C9  A7K d   1     -11.767  14.007 -19.486  0.00  0.00    -0.045 C 
ATOM      5  C8  A7K d   1     -12.314  13.120 -18.416  0.00  0.00    -0.004 C 
ATOM      6  N2  A7K d   1     -11.836  13.560 -17.097  0.00  0.00    -0.380 N 
ATOM      7  H1  A7K d   1     -13.216  15.087 -16.641  0.00  0.00     0.064 H 
ATOM      8  H2  A7K d   1     -11.614  15.241 -15.843  0.00  0.00     0.064 H 
ATOM      9  H5  A7K d   1     -10.570  15.907 -17.918  0.00  0.00     0.036 H 
ATOM     10  H6  A7K d   1     -12.033  16.920 -17.677  0.00  0.00     0.036 H 
ATOM     11  H7  A7K d   1     -13.310  15.449 -19.178  0.00  0.00     0.043 H 
ATOM     12  H8  A7K d   1     -10.668  13.957 -19.477  0.00  0.00     0.036 H 
ATOM     13  H9  A7K d   1     -12.141  13.673 -20.465  0.00  0.00     0.036 H 
ATOM     14  H10 A7K d   1     -11.983  12.087 -18.596  0.00  0.00     0.064 H 
ATOM     15  H11 A7K d   1     -13.413  13.162 -18.436  0.00  0.00     0.064 H 
ENDROOT
BRANCH   6  16
ATOM     16  C4  A7K d   1     -11.306  12.567 -16.203  0.00  0.00     0.038 A 
ATOM     17  C5  A7K d   1     -10.030  12.027 -16.452  0.00  0.00    -0.006 A 
ATOM     18  C6  A7K d   1      -9.555  11.049 -15.577  0.00  0.00    -0.073 A 
ATOM     19  C1  A7K d   1     -10.319  10.598 -14.516  0.00  0.00    -0.082 A 
ATOM     20  H14 A7K d   1      -8.566  10.634 -15.732  0.00  0.00     0.084 H 
ATOM     21  C2  A7K d   1     -11.568  11.115 -14.300  0.00  0.00    -0.081 A 
ATOM     22  H17 A7K d   1      -9.928   9.834 -13.854  0.00  0.00     0.083 H 
ATOM     23  C3  A7K d   1     -12.063  12.095 -15.134  0.00  0.00    -0.057 A 
ATOM     24  H16 A7K d   1     -12.168  10.754 -13.473  0.00  0.00     0.083 H 
ATOM     25  H15 A7K d   1     -13.052  12.502 -14.956  0.00  0.00     0.086 H 
BRANCH  17  26
ATOM     26  C7  A7K d   1      -9.149  12.513 -17.581  0.00  0.00     0.105 C 
ATOM     27  H12 A7K d   1      -8.098  12.378 -17.285  0.00  0.00     0.082 H 
ATOM     28  H13 A7K d   1      -9.350  13.582 -17.744  0.00  0.00     0.082 H 
BRANCH  26  29
ATOM     29  N1  A7K d   1      -9.373  11.793 -18.860  0.00  0.00    -0.075 N 
ATOM     30  H18 A7K d   1      -8.757  12.164 -19.567  0.00  0.00     0.274 HD
ATOM     31  H19 A7K d   1     -10.330  11.915 -19.151  0.00  0.00     0.274 HD
ATOM     32  H20 A7K d   1      -9.183  10.812 -18.731  0.00  0.00     0.274 HD
ENDBRANCH  26  29
ENDBRANCH  17  26
ENDBRANCH   6  16
BRANCH   3  33
ATOM     33  C13 A7K d   1     -11.817  16.365 -20.365  0.00  0.00     0.020 C 
ATOM     34  H3  A7K d   1     -10.738  16.574 -20.329  0.00  0.00     0.074 H 
ATOM     35  H4  A7K d   1     -12.376  17.310 -20.300  0.00  0.00     0.074 H 
BRANCH  33  36
ATOM     36  O1  A7K d   1     -12.147  15.677 -21.560  0.00  0.00    -0.400 OA
ATOM     37  H21 A7K d   1     -11.918  16.216 -22.308  0.00  0.00     0.209 HD
ENDBRANCH  33  36
ENDBRANCH   3  33
TORSDOF 5
