REMARK  1 active torsions:
REMARK  status: ('A' for Active; 'I' for Inactive)
REMARK    1  A    between atoms: C4_8  and  C8_6 
ROOT
ATOM      1  C7  A8H d   1     -10.225  11.494 -15.826  0.00  0.00     0.036 C 
ATOM      2  C4  A8H d   1     -11.491  13.100 -18.059  0.00  0.00    -0.028 C 
ATOM      3  C5  A8H d   1     -10.032  12.632 -17.995  0.00  0.00    -0.057 C 
ATOM      4  C6  A8H d   1      -9.915  11.281 -17.304  0.00  0.00    -0.052 C 
ATOM      5  C3  A8H d   1     -12.288  12.747 -16.790  0.00  0.00    -0.046 C 
ATOM      6  C2  A8H d   1     -11.315  12.543 -15.613  0.00  0.00     0.036 C 
ATOM      7  C1  A8H d   1     -12.007  12.089 -14.362  0.00  0.00     0.229 C 
ATOM      8  O1  A8H d   1     -12.848  12.684 -13.746  0.00  0.00    -0.273 OA
ATOM      9  N   A8H d   1     -11.530  10.872 -14.021  0.00  0.00    -0.297 N 
ATOM     10  C   A8H d   1     -10.582  10.403 -14.857  0.00  0.00     0.229 C 
ATOM     11  O   A8H d   1     -10.064   9.322 -14.762  0.00  0.00    -0.273 OA
ATOM     12  H6  A8H d   1      -9.288  11.915 -15.434  0.00  0.00     0.056 H 
ATOM     13  H7  A8H d   1     -11.951  12.510 -18.865  0.00  0.00     0.047 H 
ATOM     14  H8  A8H d   1      -9.442  13.373 -17.436  0.00  0.00     0.034 H 
ATOM     15  H9  A8H d   1      -9.638  12.546 -19.018  0.00  0.00     0.034 H 
ATOM     16  H10 A8H d   1     -10.634  10.572 -17.740  0.00  0.00     0.034 H 
ATOM     17  H11 A8H d   1      -8.895  10.886 -17.421  0.00  0.00     0.034 H 
ATOM     18  H12 A8H d   1     -12.857  11.821 -16.960  0.00  0.00     0.035 H 
ATOM     19  H13 A8H d   1     -12.983  13.566 -16.554  0.00  0.00     0.035 H 
ATOM     20  H14 A8H d   1     -10.833  13.514 -15.427  0.00  0.00     0.056 H 
ATOM     21  H15 A8H d   1     -11.851  10.365 -13.221  0.00  0.00     0.171 HD
ENDROOT
BRANCH   2  22
ATOM     22  C8  A8H d   1     -11.644  14.548 -18.488  0.00  0.00    -0.054 A 
ATOM     23  C13 A8H d   1     -11.798  14.879 -19.827  0.00  0.00    -0.076 A 
ATOM     24  C12 A8H d   1     -11.951  16.197 -20.230  0.00  0.00    -0.082 A 
ATOM     25  H2  A8H d   1     -11.799  14.092 -20.572  0.00  0.00     0.084 H 
ATOM     26  C11 A8H d   1     -11.943  17.208 -19.297  0.00  0.00    -0.083 A 
ATOM     27  H1  A8H d   1     -12.077  16.431 -21.281  0.00  0.00     0.083 H 
ATOM     28  C10 A8H d   1     -11.787  16.904 -17.963  0.00  0.00    -0.082 A 
ATOM     29  H3  A8H d   1     -12.059  18.239 -19.610  0.00  0.00     0.083 H 
ATOM     30  C9  A8H d   1     -11.646  15.583 -17.561  0.00  0.00    -0.076 A 
ATOM     31  H4  A8H d   1     -11.774  17.698 -17.225  0.00  0.00     0.083 H 
ATOM     32  H5  A8H d   1     -11.536  15.355 -16.507  0.00  0.00     0.084 H 
ENDBRANCH   2  22
TORSDOF 1
