REMARK  4 active torsions:
REMARK  status: ('A' for Active; 'I' for Inactive)
REMARK    1  A    between atoms: C7_5  and  O1_12 
REMARK    2  A    between atoms: S_13  and  C4_6 
REMARK    3  A    between atoms: C3_9  and  S_13 
REMARK    4  A    between atoms: C_14  and  O_15 
ROOT
ATOM      1  S   A8K d   1     -11.029  16.554 -18.455  0.00  0.00    -0.091 SA
ENDROOT
BRANCH   1   2
ATOM      2  C4  A8K d   1     -12.267  16.792 -19.710  0.00  0.00     0.005 A 
ATOM      3  C9  A8K d   1     -12.624  18.078 -20.087  0.00  0.00    -0.064 A 
ATOM      4  C8  A8K d   1     -13.578  18.285 -21.065  0.00  0.00    -0.050 A 
ATOM      5  H3  A8K d   1     -12.150  18.928 -19.610  0.00  0.00     0.085 H 
ATOM      6  C7  A8K d   1     -14.176  17.206 -21.700  0.00  0.00     0.065 A 
ATOM      7  H4  A8K d   1     -13.861  19.295 -21.337  0.00  0.00     0.087 H 
ATOM      8  C6  A8K d   1     -13.808  15.918 -21.337  0.00  0.00    -0.050 A 
ATOM      9  C5  A8K d   1     -12.862  15.714 -20.351  0.00  0.00    -0.064 A 
ATOM     10  H6  A8K d   1     -14.265  15.068 -21.830  0.00  0.00     0.087 H 
ATOM     11  H5  A8K d   1     -12.582  14.704 -20.076  0.00  0.00     0.085 H 
BRANCH   6  12
ATOM     12  O1  A8K d   1     -15.131  17.427 -22.681  0.00  0.00    -0.361 OA
ATOM     13  H9  A8K d   1     -15.254  18.362 -22.796  0.00  0.00     0.217 HD
ENDBRANCH   6  12
ENDBRANCH   1   2
BRANCH   1  14
ATOM     14  C3  A8K d   1     -11.633  15.255 -17.392  0.00  0.00     0.005 A 
ATOM     15  C10 A8K d   1     -12.985  15.151 -17.108  0.00  0.00    -0.064 A 
ATOM     16  C11 A8K d   1     -13.448  14.157 -16.265  0.00  0.00    -0.050 A 
ATOM     17  H2  A8K d   1     -13.684  15.853 -17.549  0.00  0.00     0.085 H 
ATOM     18  C   A8K d   1     -12.565  13.253 -15.695  0.00  0.00     0.065 A 
ATOM     19  H1  A8K d   1     -14.508  14.084 -16.049  0.00  0.00     0.087 H 
ATOM     20  C1  A8K d   1     -11.211  13.362 -15.975  0.00  0.00    -0.050 A 
ATOM     21  C2  A8K d   1     -10.747  14.362 -16.809  0.00  0.00    -0.064 A 
ATOM     22  H8  A8K d   1     -10.512  12.659 -15.537  0.00  0.00     0.087 H 
ATOM     23  H7  A8K d   1      -9.685  14.448 -17.008  0.00  0.00     0.085 H 
BRANCH  18  24
ATOM     24  O   A8K d   1     -13.027  12.255 -14.858  0.00  0.00    -0.361 OA
ATOM     25  H10 A8K d   1     -13.971  12.325 -14.775  0.00  0.00     0.217 HD
ENDBRANCH  18  24
ENDBRANCH   1  14
TORSDOF 4
