REMARK  6 active torsions:
REMARK  status: ('A' for Active; 'I' for Inactive)
REMARK    1  A    between atoms: C1_1  and  C2_9 
REMARK    2  A    between atoms: C3_10  and  C1_1 
REMARK    3  A    between atoms: C1_1  and  C_18 
REMARK    4  A    between atoms: C8_3  and  C9_4 
REMARK    5  A    between atoms: C12_7  and  C13_8 
REMARK    6  A    between atoms: C13_8  and  N_17 
ROOT
ATOM      1  C7  A8Q d   1      -4.917 166.071 400.860  0.00  0.00    -0.072 A 
ATOM      2  C8  A8Q d   1      -5.025 166.877 399.719  0.00  0.00    -0.018 A 
ATOM      3  C3  A8Q d   1      -6.297 167.346 399.340  0.00  0.00    -0.044 A 
ATOM      4  C4  A8Q d   1      -7.418 167.004 400.097  0.00  0.00    -0.076 A 
ATOM      5  C5  A8Q d   1      -7.291 166.190 401.208  0.00  0.00    -0.082 A 
ATOM      6  C6  A8Q d   1      -6.043 165.724 401.589  0.00  0.00    -0.082 A 
ATOM      7  H2  A8Q d   1      -3.943 165.715 401.175  0.00  0.00     0.084 H 
ATOM      8  H10 A8Q d   1      -8.395 167.379 399.813  0.00  0.00     0.084 H 
ATOM      9  H11 A8Q d   1      -8.169 165.916 401.781  0.00  0.00     0.083 H 
ATOM     10  H12 A8Q d   1      -5.947 165.086 402.460  0.00  0.00     0.083 H 
ENDROOT
BRANCH   2  11
ATOM     11  C9  A8Q d   1      -3.811 167.056 398.863  0.00  0.00    -0.004 A 
ATOM     12  C10 A8Q d   1      -3.497 166.050 397.947  0.00  0.00    -0.070 A 
ATOM     13  C11 A8Q d   1      -2.333 166.115 397.202  0.00  0.00    -0.074 A 
ATOM     14  H3  A8Q d   1      -4.171 165.211 397.818  0.00  0.00     0.084 H 
ATOM     15  C12 A8Q d   1      -1.450 167.179 397.330  0.00  0.00    -0.031 A 
ATOM     16  H4  A8Q d   1      -2.105 165.318 396.503  0.00  0.00     0.084 H 
ATOM     17  C14 A8Q d   1      -1.757 168.194 398.230  0.00  0.00    -0.053 A 
ATOM     18  C15 A8Q d   1      -2.924 168.145 398.965  0.00  0.00     0.045 A 
ATOM     19  H13 A8Q d   1      -1.076 169.028 398.355  0.00  0.00     0.087 H 
ATOM     20 CL   A8Q d   1      -3.311 169.537 399.929  0.00  0.00    -0.083 Cl
BRANCH  15  21
ATOM     21  C13 A8Q d   1      -0.174 167.274 396.515  0.00  0.00     0.103 C 
ATOM     22  H5  A8Q d   1       0.454 168.064 396.952  0.00  0.00     0.082 H 
ATOM     23  H6  A8Q d   1      -0.445 167.549 395.485  0.00  0.00     0.082 H 
BRANCH  21  24
ATOM     24  N   A8Q d   1       0.608 166.046 396.467  0.00  0.00    -0.075 N 
ATOM     25  H14 A8Q d   1       1.434 166.195 395.909  0.00  0.00     0.274 HD
ATOM     26  H15 A8Q d   1       0.054 165.310 396.057  0.00  0.00     0.274 HD
ATOM     27  H16 A8Q d   1       0.877 165.782 397.402  0.00  0.00     0.274 HD
ENDBRANCH  21  24
ENDBRANCH  15  21
ENDBRANCH   2  11
BRANCH   3  28
ATOM     28  C1  A8Q d   1      -6.457 168.148 398.060  0.00  0.00    -0.035 C 
ATOM     29  H1  A8Q d   1      -5.470 168.164 397.575  0.00  0.00     0.046 H 
BRANCH  28  30
ATOM     30  C2  A8Q d   1      -7.419 167.478 397.080  0.00  0.00    -0.069 C 
ATOM     31  H7  A8Q d   1      -7.503 168.092 396.171  0.00  0.00     0.028 H 
ATOM     32  H8  A8Q d   1      -8.409 167.378 397.548  0.00  0.00     0.028 H 
ATOM     33  H9  A8Q d   1      -7.037 166.481 396.815  0.00  0.00     0.028 H 
ENDBRANCH  28  30
BRANCH  28  34
ATOM     34  C   A8Q d   1      -6.840 169.606 398.320  0.00  0.00    -0.069 C 
ATOM     35  H17 A8Q d   1      -6.126 170.052 399.028  0.00  0.00     0.028 H 
ATOM     36  H18 A8Q d   1      -7.853 169.649 398.746  0.00  0.00     0.028 H 
ATOM     37  H19 A8Q d   1      -6.816 170.166 397.373  0.00  0.00     0.028 H 
ENDBRANCH  28  34
ENDBRANCH   3  28
TORSDOF 6
