REMARK  4 active torsions:
REMARK  status: ('A' for Active; 'I' for Inactive)
REMARK    1  A    between atoms: C10_4  and  C11_5 
REMARK    2  A    between atoms: C11_5  and  N_6 
REMARK    3  A    between atoms: C7_9  and  C6_10 
REMARK    4  A    between atoms: C1_11  and  C_12 
ROOT
ATOM      1 CL   J27 d   1    -135.264-185.224 298.919  0.00  0.00    -0.083 Cl
ATOM      2  C13 J27 d   1    -136.819-184.516 298.605  0.00  0.00     0.045 A 
ATOM      3  C12 J27 d   1    -137.319-183.633 299.541  0.00  0.00    -0.053 A 
ATOM      4  C10 J27 d   1    -138.604-183.119 299.404  0.00  0.00    -0.031 A 
ATOM      5  C9  J27 d   1    -139.346-183.468 298.283  0.00  0.00    -0.074 A 
ATOM      6  C8  J27 d   1    -138.840-184.331 297.325  0.00  0.00    -0.070 A 
ATOM      7  C7  J27 d   1    -137.560-184.878 297.465  0.00  0.00    -0.004 A 
ATOM      8  H1  J27 d   1    -136.707-183.339 300.386  0.00  0.00     0.087 H 
ATOM      9  H7  J27 d   1    -140.341-183.057 298.155  0.00  0.00     0.084 H 
ATOM     10  H8  J27 d   1    -139.441-184.585 296.459  0.00  0.00     0.084 H 
ENDROOT
BRANCH   7  11
ATOM     11  C6  J27 d   1    -137.040-185.778 296.389  0.00  0.00    -0.018 A 
ATOM     12  C1  J27 d   1    -135.991-185.391 295.525  0.00  0.00    -0.048 A 
ATOM     13  C2  J27 d   1    -135.588-186.263 294.518  0.00  0.00    -0.039 A 
ATOM     14  C3  J27 d   1    -136.256-187.451 294.351  0.00  0.00     0.117 A 
ATOM     15  H14 J27 d   1    -134.756-186.007 293.872  0.00  0.00     0.089 H 
ATOM     16  C4  J27 d   1    -137.302-187.843 295.152  0.00  0.00    -0.045 A 
ATOM     17  F   J27 d   1    -135.855-188.282 293.345  0.00  0.00    -0.206 F 
ATOM     18  C5  J27 d   1    -137.677-187.010 296.192  0.00  0.00    -0.069 A 
ATOM     19  H13 J27 d   1    -137.819-188.779 294.974  0.00  0.00     0.088 H 
ATOM     20  H12 J27 d   1    -138.473-187.315 296.862  0.00  0.00     0.085 H 
BRANCH  12  21
ATOM     21  C   J27 d   1    -135.364-184.019 295.573  0.00  0.00    -0.050 C 
ATOM     22  H9  J27 d   1    -134.573-183.950 294.811  0.00  0.00     0.033 H 
ATOM     23  H10 J27 d   1    -134.929-183.849 296.569  0.00  0.00     0.033 H 
ATOM     24  H11 J27 d   1    -136.132-183.257 295.373  0.00  0.00     0.033 H 
ENDBRANCH  12  21
ENDBRANCH   7  11
BRANCH   4  25
ATOM     25  C11 J27 d   1    -139.220-182.383 300.518  0.00  0.00     0.103 C 
ATOM     26  H2  J27 d   1    -139.988-181.694 300.137  0.00  0.00     0.082 H 
ATOM     27  H3  J27 d   1    -138.454-181.812 301.063  0.00  0.00     0.082 H 
BRANCH  25  28
ATOM     28  N   J27 d   1    -139.823-183.365 301.392  0.00  0.00    -0.075 N 
ATOM     29  H4  J27 d   1    -140.258-182.898 302.172  0.00  0.00     0.274 HD
ATOM     30  H5  J27 d   1    -139.113-183.995 301.731  0.00  0.00     0.274 HD
ATOM     31  H6  J27 d   1    -140.519-183.887 300.882  0.00  0.00     0.274 HD
ENDBRANCH  25  28
ENDBRANCH   4  25
TORSDOF 4
