REMARK  4 active torsions:
REMARK  status: ('A' for Active; 'I' for Inactive)
REMARK    1  A    between atoms: C1_1  and  C_8 
REMARK    2  A    between atoms: C4_4  and  C7_10 
REMARK    3  A    between atoms: C_8  and  N_9 
REMARK    4  A    between atoms: C12_11  and  O_12 
ROOT
ATOM      1  C1  A9K d   1    -135.794-182.998 297.111  0.00  0.00    -0.031 A 
ATOM      2  C2  A9K d   1    -136.538-183.424 296.018  0.00  0.00    -0.074 A 
ATOM      3  C3  A9K d   1    -136.000-184.287 295.076  0.00  0.00    -0.070 A 
ATOM      4  C4  A9K d   1    -134.698-184.781 295.218  0.00  0.00    -0.001 A 
ATOM      5  C5  A9K d   1    -133.968-184.370 296.347  0.00  0.00     0.045 A 
ATOM      6  C6  A9K d   1    -134.498-183.481 297.266  0.00  0.00    -0.053 A 
ATOM      7 CL   A9K d   1    -132.397-185.039 296.686  0.00  0.00    -0.083 Cl
ATOM      8  H1  A9K d   1    -137.558-183.075 295.900  0.00  0.00     0.084 H 
ATOM      9  H2  A9K d   1    -136.595-184.583 294.219  0.00  0.00     0.084 H 
ATOM     10  H3  A9K d   1    -133.900-183.159 298.111  0.00  0.00     0.087 H 
ENDROOT
BRANCH   4  11
ATOM     11  C7  A9K d   1    -134.150-185.680 294.156  0.00  0.00     0.009 A 
ATOM     12  C12 A9K d   1    -133.084-185.315 293.317  0.00  0.00     0.076 A 
ATOM     13  C11 A9K d   1    -132.660-186.166 292.294  0.00  0.00    -0.050 A 
ATOM     14  C10 A9K d   1    -133.310-187.369 292.081  0.00  0.00    -0.080 A 
ATOM     15  H10 A9K d   1    -131.822-185.884 291.667  0.00  0.00     0.087 H 
ATOM     16  C9  A9K d   1    -134.370-187.738 292.894  0.00  0.00    -0.082 A 
ATOM     17  H11 A9K d   1    -132.990-188.023 291.278  0.00  0.00     0.083 H 
ATOM     18  C8  A9K d   1    -134.776-186.912 293.933  0.00  0.00    -0.070 A 
ATOM     19  H12 A9K d   1    -134.884-188.676 292.718  0.00  0.00     0.083 H 
ATOM     20  H13 A9K d   1    -135.588-187.225 294.580  0.00  0.00     0.085 H 
BRANCH  12  21
ATOM     21  O   A9K d   1    -132.490-184.101 293.476  0.00  0.00    -0.360 OA
ATOM     22  H9  A9K d   1    -131.792-184.005 292.838  0.00  0.00     0.217 HD
ENDBRANCH  12  21
ENDBRANCH   4  11
BRANCH   1  23
ATOM     23  C   A9K d   1    -136.312-182.003 298.076  0.00  0.00     0.103 C 
ATOM     24  H4  A9K d   1    -135.700-182.046 298.989  0.00  0.00     0.082 H 
ATOM     25  H5  A9K d   1    -137.353-182.259 298.321  0.00  0.00     0.082 H 
BRANCH  23  26
ATOM     26  N   A9K d   1    -136.276-180.611 297.542  0.00  0.00    -0.075 N 
ATOM     27  H6  A9K d   1    -136.638-179.976 298.236  0.00  0.00     0.274 HD
ATOM     28  H7  A9K d   1    -136.841-180.556 296.709  0.00  0.00     0.274 HD
ATOM     29  H8  A9K d   1    -135.325-180.361 297.321  0.00  0.00     0.274 HD
ENDBRANCH  23  26
ENDBRANCH   1  23
TORSDOF 4
