REMARK  5 active torsions:
REMARK  status: ('A' for Active; 'I' for Inactive)
REMARK    1  A    between atoms: C4_1  and  O4_10 
REMARK    2  A    between atoms: C5_2  and  C6_3 
REMARK    3  A    between atoms: C6_3  and  O6_12 
REMARK    4  A    between atoms: C3_6  and  O3_11 
REMARK    5  A    between atoms: C2_8  and  O2_9 
ROOT
ATOM      1  C4  AEZ d   1     -19.477 -29.251  -6.813  0.00  0.00     0.073 C 
ATOM      2  C5  AEZ d   1     -19.516 -28.134  -5.795  0.00  0.00     0.036 C 
ATOM      3  C7  AEZ d   1     -19.482 -28.788  -4.481  0.00  0.00     0.046 A 
ATOM      4  C10 AEZ d   1     -19.700 -29.359  -2.350  0.00  0.00     0.064 A 
ATOM      5  C3  AEZ d   1     -18.209 -30.080  -6.546  0.00  0.00     0.091 C 
ATOM      6  C1  AEZ d   1     -18.869 -30.115  -4.247  0.00  0.00     0.090 A 
ATOM      7  C2  AEZ d   1     -18.222 -30.925  -5.271  0.00  0.00     0.106 C 
ATOM      8  N8  AEZ d   1     -19.044 -30.368  -2.952  0.00  0.00    -0.244 NA
ATOM      9  N9  AEZ d   1     -19.988 -28.405  -3.293  0.00  0.00    -0.352 N 
ATOM     10  H1  AEZ d   1     -20.368 -29.887  -6.700  0.00  0.00     0.088 H 
ATOM     11  H2  AEZ d   1     -18.615 -27.516  -5.922  0.00  0.00     0.057 H 
ATOM     12  H5  AEZ d   1     -19.959 -29.308  -1.293  0.00  0.00     0.143 H 
ATOM     13  H6  AEZ d   1     -17.391 -29.353  -6.438  0.00  0.00     0.091 H 
ATOM     14  H7  AEZ d   1     -18.823 -31.829  -5.450  0.00  0.00     0.097 H 
ATOM     15  H12 AEZ d   1     -20.509 -27.534  -3.120  0.00  0.00     0.166 HD
ENDROOT
BRANCH   2  16
ATOM     16  C6  AEZ d   1     -20.697 -27.234  -5.882  0.00  0.00     0.028 C 
ATOM     17  H3  AEZ d   1     -20.715 -26.768  -6.878  0.00  0.00     0.075 H 
ATOM     18  H4  AEZ d   1     -20.604 -26.453  -5.114  0.00  0.00     0.075 H 
BRANCH  16  19
ATOM     19  O6  AEZ d   1     -21.925 -27.932  -5.680  0.00  0.00    -0.400 OA
ATOM     20  H11 AEZ d   1     -22.018 -28.606  -6.343  0.00  0.00     0.209 HD
ENDBRANCH  16  19
ENDBRANCH   2  16
BRANCH   1  21
ATOM     21  O4  AEZ d   1     -19.444 -28.716  -8.145  0.00  0.00    -0.392 OA
ATOM     22  H9  AEZ d   1     -20.230 -28.206  -8.300  0.00  0.00     0.210 HD
ENDBRANCH   1  21
BRANCH   5  23
ATOM     23  O3  AEZ d   1     -17.878 -30.934  -7.627  0.00  0.00    -0.390 OA
ATOM     24  H10 AEZ d   1     -17.863 -30.431  -8.433  0.00  0.00     0.210 HD
ENDBRANCH   5  23
BRANCH   7  25
ATOM     25  O2  AEZ d   1     -16.907 -31.343  -4.855  0.00  0.00    -0.387 OA
ATOM     26  H8  AEZ d   1     -16.370 -30.577  -4.691  0.00  0.00     0.210 HD
ENDBRANCH   7  25
TORSDOF 5
