REMARK  5 active torsions:
REMARK  status: ('A' for Active; 'I' for Inactive)
REMARK    1  A    between atoms: C4_1  and  O4_10 
REMARK    2  A    between atoms: C5_2  and  C6_3 
REMARK    3  A    between atoms: C6_3  and  O6_12 
REMARK    4  A    between atoms: C3_6  and  O3_11 
REMARK    5  A    between atoms: C2_8  and  O2_9 
ROOT
ATOM      1  C4  AEZ d   1     -29.728 -13.365 -17.536  0.00  0.00     0.073 C 
ATOM      2  C5  AEZ d   1     -29.174 -13.621 -18.935  0.00  0.00     0.036 C 
ATOM      3  C7  AEZ d   1     -30.330 -14.070 -19.751  0.00  0.00     0.046 A 
ATOM      4  C10 AEZ d   1     -31.716 -15.026 -21.139  0.00  0.00     0.064 A 
ATOM      5  C3  AEZ d   1     -30.781 -12.249 -17.612  0.00  0.00     0.091 C 
ATOM      6  C1  AEZ d   1     -31.673 -13.519 -19.560  0.00  0.00     0.090 A 
ATOM      7  C2  AEZ d   1     -32.016 -12.550 -18.497  0.00  0.00     0.106 C 
ATOM      8  N8  AEZ d   1     -32.459 -14.146 -20.429  0.00  0.00    -0.244 NA
ATOM      9  N9  AEZ d   1     -30.428 -14.991 -20.725  0.00  0.00    -0.352 N 
ATOM     10  H1  AEZ d   1     -30.187 -14.279 -17.131  0.00  0.00     0.088 H 
ATOM     11  H2  AEZ d   1     -28.788 -12.673 -19.337  0.00  0.00     0.057 H 
ATOM     12  H5  AEZ d   1     -32.099 -15.670 -21.930  0.00  0.00     0.143 H 
ATOM     13  H6  AEZ d   1     -30.285 -11.357 -18.022  0.00  0.00     0.091 H 
ATOM     14  H7  AEZ d   1     -32.735 -13.063 -17.842  0.00  0.00     0.097 H 
ATOM     15  H12 AEZ d   1     -29.658 -15.569 -21.092  0.00  0.00     0.166 HD
ENDROOT
BRANCH   2  16
ATOM     16  C6  AEZ d   1     -28.042 -14.646 -19.001  0.00  0.00     0.028 C 
ATOM     17  H3  AEZ d   1     -28.456 -15.658 -18.880  0.00  0.00     0.075 H 
ATOM     18  H4  AEZ d   1     -27.319 -14.447 -18.196  0.00  0.00     0.075 H 
BRANCH  16  19
ATOM     19  O6  AEZ d   1     -27.376 -14.546 -20.285  0.00  0.00    -0.400 OA
ATOM     20  H11 AEZ d   1     -27.019 -13.672 -20.388  0.00  0.00     0.209 HD
ENDBRANCH  16  19
ENDBRANCH   2  16
BRANCH   1  21
ATOM     21  O4  AEZ d   1     -28.620 -12.971 -16.723  0.00  0.00    -0.392 OA
ATOM     22  H9  AEZ d   1     -28.926 -12.780 -15.844  0.00  0.00     0.210 HD
ENDBRANCH   1  21
BRANCH   5  23
ATOM     23  O3  AEZ d   1     -31.253 -11.954 -16.290  0.00  0.00    -0.390 OA
ATOM     24  H10 AEZ d   1     -30.513 -11.765 -15.725  0.00  0.00     0.210 HD
ENDBRANCH   5  23
BRANCH   7  25
ATOM     25  O2  AEZ d   1     -32.706 -11.388 -18.973  0.00  0.00    -0.387 OA
ATOM     26  H8  AEZ d   1     -32.160 -10.933 -19.604  0.00  0.00     0.210 HD
ENDBRANCH   7  25
TORSDOF 5
