REMARK  9 active torsions:
REMARK  status: ('A' for Active; 'I' for Inactive)
REMARK    1  A    between atoms: C_2  and  CA_3 
REMARK    2  A    between atoms: CA_3  and  CB_4 
REMARK    3  A    between atoms: CA_3  and  N_5 
REMARK    4  A    between atoms: N_5  and  CAI_6 
REMARK    5  A    between atoms: CAI_6  and  CAE_7 
REMARK    6  A    between atoms: CAI_6  and  CAK_10 
REMARK    7  A    between atoms: CAK_10  and  CAL_11 
REMARK    8  A    between atoms: CAL_11  and  CAM_12 
REMARK    9  A    between atoms: CAM_12  and  NAN_13 
REMARK       I    between atoms: NAN_13  and  CAP_14 
REMARK       I    between atoms: CAP_14  and  NAO_15 
ROOT
ATOM      1  CAK 6DB d   1       4.394  19.286  -8.645  0.00  0.00    -0.027 C 
ATOM      2  H8  6DB d   1       5.409  19.656  -8.853  0.00  0.00     0.036 H 
ATOM      3  H9  6DB d   1       4.452  18.405  -7.989  0.00  0.00     0.036 H 
ENDROOT
BRANCH   1   4
ATOM      4  CAI 6DB d   1       3.743  18.870  -9.969  0.00  0.00     0.185 C 
ATOM      5  H7  6DB d   1       4.466  18.221 -10.484  0.00  0.00     0.101 H 
BRANCH   4   6
ATOM      6  N   6DB d   1       3.440  19.996 -10.898  0.00  0.00    -0.047 N 
ATOM      7  H5  6DB d   1       3.182  19.585 -11.782  0.00  0.00     0.279 HD
ATOM      8  H6  6DB d   1       2.650  20.489 -10.513  0.00  0.00     0.279 HD
BRANCH   6   9
ATOM      9  CA  6DB d   1       4.468  20.995 -11.178  0.00  0.00     0.182 C 
ATOM     10  H1  6DB d   1       4.672  21.518 -10.232  0.00  0.00     0.101 H 
BRANCH   9  11
ATOM     11  C   6DB d   1       5.751  20.438 -11.638  0.00  0.00     0.204 C 
ATOM     12  O   6DB d   1       5.788  19.349 -12.232  0.00  0.00    -0.646 OA
ATOM     13  OXT 6DB d   1       6.851  21.036 -11.430  0.00  0.00    -0.646 OA
ENDBRANCH   9  11
BRANCH   9  14
ATOM     14  CB  6DB d   1       3.920  22.039 -12.182  0.00  0.00    -0.040 C 
ATOM     15  H2  6DB d   1       2.963  22.436 -11.812  0.00  0.00     0.031 H 
ATOM     16  H3  6DB d   1       3.765  21.561 -13.160  0.00  0.00     0.031 H 
ATOM     17  H4  6DB d   1       4.643  22.862 -12.287  0.00  0.00     0.031 H 
ENDBRANCH   9  14
ENDBRANCH   6   9
ENDBRANCH   4   6
BRANCH   4  18
ATOM     18  CAE 6DB d   1       2.501  18.056  -9.718  0.00  0.00     0.204 C 
ATOM     19  OAB 6DB d   1       1.357  18.553  -9.923  0.00  0.00    -0.646 OA
ATOM     20  OAF 6DB d   1       2.596  16.846  -9.285  0.00  0.00    -0.646 OA
ENDBRANCH   4  18
ENDBRANCH   1   4
BRANCH   1  21
ATOM     21  CAL 6DB d   1       3.601  20.398  -7.911  0.00  0.00    -0.047 C 
ATOM     22  H10 6DB d   1       2.528  20.248  -8.100  0.00  0.00     0.035 H 
ATOM     23  H11 6DB d   1       3.911  21.375  -8.312  0.00  0.00     0.035 H 
BRANCH  21  24
ATOM     24  CAM 6DB d   1       3.835  20.391  -6.420  0.00  0.00     0.009 C 
ATOM     25  H12 6DB d   1       4.911  20.408  -6.192  0.00  0.00     0.064 H 
ATOM     26  H13 6DB d   1       3.376  19.506  -5.956  0.00  0.00     0.064 H 
BRANCH  24  27
ATOM     27  NAN 6DB d   1       3.205  21.580  -5.971  0.00  0.00    -0.227 N 
ATOM     28  CAP 6DB d   1       3.562  22.172  -4.772  0.00  0.00     0.665 C 
ATOM     29  NAO 6DB d   1       2.954  23.256  -4.406  0.00  0.00    -0.235 N 
ATOM     30  NAQ 6DB d   1       4.481  21.626  -4.048  0.00  0.00    -0.235 N 
ATOM     31  H15 6DB d   1       3.205  23.712  -3.517  0.00  0.00     0.174 HD
ATOM     32  H16 6DB d   1       2.220  23.662  -5.004  0.00  0.00     0.174 HD
ATOM     33  H17 6DB d   1       4.945  20.764  -4.368  0.00  0.00     0.174 HD
ATOM     34  H18 6DB d   1       4.750  22.052  -3.150  0.00  0.00     0.174 HD
ATOM     35  H14 6DB d   1       2.468  22.011  -6.548  0.00  0.00     0.177 HD
ENDBRANCH  24  27
ENDBRANCH  21  24
ENDBRANCH   1  21
TORSDOF 9
