REMARK  7 active torsions:
REMARK  status: ('A' for Active; 'I' for Inactive)
REMARK    1  A    between atoms: C_2  and  CA_3 
REMARK    2  A    between atoms: CA_3  and  CB_4 
REMARK    3  A    between atoms: CA_3  and  N_5 
REMARK    4  A    between atoms: N_5  and  CAI_6 
REMARK    5  A    between atoms: CAI_6  and  CAE_7 
REMARK    6  A    between atoms: CAI_6  and  CAK_10 
REMARK    7  A    between atoms: CAK_10  and  CAL_11 
ROOT
ATOM      1  CAI AOZ d   1      18.099  -6.065  -1.997  0.00  0.00     0.190 C 
ATOM      2  H7  AOZ d   1      17.798  -5.191  -1.400  0.00  0.00     0.102 H 
ENDROOT
BRANCH   1   3
ATOM      3  N   AOZ d   1      18.856  -6.870  -1.055  0.00  0.00    -0.047 N 
ATOM      4  H5  AOZ d   1      18.337  -6.868  -0.191  0.00  0.00     0.279 HD
ATOM      5  H6  AOZ d   1      18.882  -7.806  -1.429  0.00  0.00     0.279 HD
BRANCH   3   6
ATOM      6  CA  AOZ d   1      20.250  -6.510  -0.715  0.00  0.00     0.182 C 
ATOM      7  H1  AOZ d   1      20.844  -6.641  -1.632  0.00  0.00     0.101 H 
BRANCH   6   8
ATOM      8  C   AOZ d   1      20.457  -5.054  -0.255  0.00  0.00     0.204 C 
ATOM      9  O   AOZ d   1      21.559  -4.440  -0.445  0.00  0.00    -0.646 OA
ATOM     10  OXT AOZ d   1      19.498  -4.478   0.293  0.00  0.00    -0.646 OA
ENDBRANCH   6   8
BRANCH   6  11
ATOM     11  CB  AOZ d   1      20.793  -7.464   0.328  0.00  0.00    -0.040 C 
ATOM     12  H2  AOZ d   1      20.641  -8.500  -0.008  0.00  0.00     0.031 H 
ATOM     13  H3  AOZ d   1      20.265  -7.306   1.280  0.00  0.00     0.031 H 
ATOM     14  H4  AOZ d   1      21.868  -7.279   0.470  0.00  0.00     0.031 H 
ENDBRANCH   6  11
ENDBRANCH   3   6
ENDBRANCH   1   3
BRANCH   1  15
ATOM     15  CAE AOZ d   1      16.796  -6.737  -2.378  0.00  0.00     0.205 C 
ATOM     16  OAB AOZ d   1      16.589  -7.926  -2.017  0.00  0.00    -0.646 OA
ATOM     17  OAF AOZ d   1      15.905  -6.104  -3.019  0.00  0.00    -0.646 OA
ENDBRANCH   1  15
BRANCH   1  18
ATOM     18  CAK AOZ d   1      18.814  -5.437  -3.195  0.00  0.00     0.013 C 
ATOM     19  H8  AOZ d   1      19.684  -4.894  -2.799  0.00  0.00     0.046 H 
ATOM     20  H9  AOZ d   1      18.111  -4.722  -3.648  0.00  0.00     0.046 H 
BRANCH  18  21
ATOM     21  CAL AOZ d   1      19.319  -6.320  -4.309  0.00  0.00     0.053 A 
ATOM     22  NAN AOZ d   1      19.522  -5.918  -5.576  0.00  0.00    -0.247 NA
ATOM     23  CAQ AOZ d   1      19.976  -6.935  -6.297  0.00  0.00     0.064 A 
ATOM     24  NAQ AOZ d   1      20.085  -8.002  -5.523  0.00  0.00    -0.359 N 
ATOM     25  H11 AOZ d   1      20.220  -6.897  -7.358  0.00  0.00     0.143 H 
ATOM     26  CAP AOZ d   1      19.671  -7.672  -4.286  0.00  0.00     0.002 A 
ATOM     27  H12 AOZ d   1      20.428  -8.928  -5.817  0.00  0.00     0.166 HD
ATOM     28  H10 AOZ d   1      19.620  -8.337  -3.425  0.00  0.00     0.114 H 
ENDBRANCH  18  21
ENDBRANCH   1  18
TORSDOF 7
