REMARK  9 active torsions:
REMARK  status: ('A' for Active; 'I' for Inactive)
REMARK    1  A    between atoms: C_2  and  CA_3 
REMARK    2  A    between atoms: CA_3  and  CB_4 
REMARK    3  A    between atoms: CA_3  and  N_5 
REMARK    4  A    between atoms: N_5  and  CAN_6 
REMARK    5  A    between atoms: CAN_6  and  CAL_7 
REMARK    6  A    between atoms: CAN_6  and  CAI_10 
REMARK    7  A    between atoms: CAI_10  and  CAH_11 
REMARK    8  A    between atoms: CAH_11  and  CAG_12 
REMARK    9  A    between atoms: CAG_12  and  NAB_13 
ROOT
ATOM      1  CAN AQQ d   1       3.608  19.244 -10.091  0.00  0.00     0.185 C 
ATOM      2  H7  AQQ d   1       4.577  18.729 -10.169  0.00  0.00     0.101 H 
ENDROOT
BRANCH   1   3
ATOM      3  N   AQQ d   1       3.344  19.998 -11.284  0.00  0.00    -0.047 N 
ATOM      4  H5  AQQ d   1       3.276  19.339 -12.044  0.00  0.00     0.279 HD
ATOM      5  H6  AQQ d   1       2.456  20.457 -11.156  0.00  0.00     0.279 HD
BRANCH   3   6
ATOM      6  CA  AQQ d   1       4.318  21.035 -11.690  0.00  0.00     0.182 C 
ATOM      7  H1  AQQ d   1       4.398  21.758 -10.865  0.00  0.00     0.101 H 
BRANCH   6   8
ATOM      8  C   AQQ d   1       5.738  20.479 -11.963  0.00  0.00     0.204 C 
ATOM      9  O   AQQ d   1       5.884  19.279 -12.250  0.00  0.00    -0.646 OA
ATOM     10  OXT AQQ d   1       6.765  21.222 -11.899  0.00  0.00    -0.646 OA
ENDBRANCH   6   8
BRANCH   6  11
ATOM     11  CB  AQQ d   1       3.797  21.770 -12.924  0.00  0.00    -0.040 C 
ATOM     12  H2  AQQ d   1       2.789  22.160 -12.720  0.00  0.00     0.031 H 
ATOM     13  H3  AQQ d   1       3.755  21.074 -13.775  0.00  0.00     0.031 H 
ATOM     14  H4  AQQ d   1       4.471  22.605 -13.166  0.00  0.00     0.031 H 
ENDBRANCH   6  11
ENDBRANCH   3   6
ENDBRANCH   1   3
BRANCH   1  15
ATOM     15  CAL AQQ d   1       2.476  18.221  -9.930  0.00  0.00     0.204 C 
ATOM     16  OAF AQQ d   1       2.590  17.211  -9.174  0.00  0.00    -0.646 OA
ATOM     17  OAD AQQ d   1       1.378  18.402 -10.531  0.00  0.00    -0.646 OA
ENDBRANCH   1  15
BRANCH   1  18
ATOM     18  CAI AQQ d   1       3.619  20.204  -8.885  0.00  0.00    -0.027 C 
ATOM     19  H8  AQQ d   1       2.573  20.468  -8.671  0.00  0.00     0.036 H 
ATOM     20  H9  AQQ d   1       4.169  21.105  -9.193  0.00  0.00     0.036 H 
BRANCH  18  21
ATOM     21  CAH AQQ d   1       4.238  19.725  -7.577  0.00  0.00    -0.040 C 
ATOM     22  H10 AQQ d   1       5.313  19.538  -7.718  0.00  0.00     0.035 H 
ATOM     23  H11 AQQ d   1       3.745  18.799  -7.247  0.00  0.00     0.035 H 
BRANCH  21  24
ATOM     24  CAG AQQ d   1       4.035  20.816  -6.539  0.00  0.00     0.080 C 
ATOM     25  H12 AQQ d   1       2.991  21.160  -6.587  0.00  0.00     0.075 H 
ATOM     26  H13 AQQ d   1       4.708  21.654  -6.771  0.00  0.00     0.075 H 
BRANCH  24  27
ATOM     27  NAB AQQ d   1       4.315  20.351  -5.177  0.00  0.00    -0.079 N 
ATOM     28  H14 AQQ d   1       4.167  21.107  -4.527  0.00  0.00     0.274 HD
ATOM     29  H15 AQQ d   1       5.272  20.040  -5.118  0.00  0.00     0.274 HD
ATOM     30  H16 AQQ d   1       3.699  19.587  -4.949  0.00  0.00     0.274 HD
ENDBRANCH  24  27
ENDBRANCH  21  24
ENDBRANCH  18  21
ENDBRANCH   1  18
TORSDOF 9
