REMARK  8 active torsions:
REMARK  status: ('A' for Active; 'I' for Inactive)
REMARK    1  A    between atoms: CAK_2  and  CAI_4 
REMARK    2  A    between atoms: CAI_4  and  N_5 
REMARK    3  A    between atoms: N_5  and  CA_6 
REMARK    4  A    between atoms: CA_6  and  C_7 
REMARK    5  A    between atoms: CA_6  and  CB_9 
REMARK    6  A    between atoms: CB_9  and  CAG_10 
REMARK    7  A    between atoms: CAG_10  and  CAF_11 
REMARK    8  A    between atoms: CAF_11  and  NAA_12 
ROOT
ATOM      1  CA  AQK d   1     -42.355 -20.464  -2.954  0.00  0.00     0.185 C 
ATOM      2  H5  AQK d   1     -43.269 -19.854  -3.010  0.00  0.00     0.101 H 
ENDROOT
BRANCH   1   3
ATOM      3  N   AQK d   1     -41.604 -20.191  -1.723  0.00  0.00    -0.052 N 
ATOM      4  H3  AQK d   1     -41.494 -21.042  -1.194  0.00  0.00     0.278 HD
ATOM      5  H4  AQK d   1     -40.696 -19.819  -1.953  0.00  0.00     0.278 HD
BRANCH   3   6
ATOM      6  CAI AQK d   1     -42.353 -19.216  -0.939  0.00  0.00     0.161 C 
ATOM      7  H1  AQK d   1     -43.315 -19.040  -1.442  0.00  0.00     0.092 H 
ATOM      8  H2  AQK d   1     -42.533 -19.645   0.058  0.00  0.00     0.092 H 
BRANCH   6   9
ATOM      9  CAK AQK d   1     -41.692 -17.930  -0.765  0.00  0.00     0.199 C 
ATOM     10  OAB AQK d   1     -42.320 -16.857  -0.936  0.00  0.00    -0.647 OA
ATOM     11  OAD AQK d   1     -40.467 -17.940  -0.450  0.00  0.00    -0.647 OA
ENDBRANCH   6   9
ENDBRANCH   3   6
ENDBRANCH   1   3
BRANCH   1  12
ATOM     12  C   AQK d   1     -42.686 -21.890  -2.974  0.00  0.00     0.204 C 
ATOM     13  O   AQK d   1     -43.683 -22.315  -3.638  0.00  0.00    -0.646 OA
ATOM     14  OXT AQK d   1     -41.966 -22.719  -2.359  0.00  0.00    -0.646 OA
ENDBRANCH   1  12
BRANCH   1  15
ATOM     15  CB  AQK d   1     -41.436 -20.144  -4.065  0.00  0.00    -0.027 C 
ATOM     16  H6  AQK d   1     -41.029 -21.101  -4.424  0.00  0.00     0.036 H 
ATOM     17  H7  AQK d   1     -40.624 -19.537  -3.639  0.00  0.00     0.036 H 
BRANCH  15  18
ATOM     18  CAG AQK d   1     -41.938 -19.408  -5.272  0.00  0.00    -0.040 C 
ATOM     19  H8  AQK d   1     -42.309 -18.425  -4.947  0.00  0.00     0.035 H 
ATOM     20  H9  AQK d   1     -42.765 -19.986  -5.709  0.00  0.00     0.035 H 
BRANCH  18  21
ATOM     21  CAF AQK d   1     -40.917 -19.194  -6.321  0.00  0.00     0.080 C 
ATOM     22  H10 AQK d   1     -40.250 -20.069  -6.332  0.00  0.00     0.075 H 
ATOM     23  H11 AQK d   1     -40.340 -18.296  -6.058  0.00  0.00     0.075 H 
BRANCH  21  24
ATOM     24  NAA AQK d   1     -41.443 -19.014  -7.655  0.00  0.00    -0.079 N 
ATOM     25  H12 AQK d   1     -40.681 -18.876  -8.301  0.00  0.00     0.274 HD
ATOM     26  H13 AQK d   1     -42.048 -18.208  -7.672  0.00  0.00     0.274 HD
ATOM     27  H14 AQK d   1     -41.966 -19.833  -7.923  0.00  0.00     0.274 HD
ENDBRANCH  21  24
ENDBRANCH  18  21
ENDBRANCH  15  18
ENDBRANCH   1  15
TORSDOF 8
