REMARK  3 active torsions:
REMARK  status: ('A' for Active; 'I' for Inactive)
REMARK    1  A    between atoms: C1_1  and  C_12 
REMARK    2  A    between atoms: C7_16  and  C4_3 
REMARK    3  A    between atoms: C_12  and  N_13 
ROOT
ATOM      1  C1  AU8 d   1    -113.085-175.197 308.153  0.00  0.00    -0.030 A 
ATOM      2  C3  AU8 d   1    -110.777-174.512 308.209  0.00  0.00     0.047 A 
ATOM      3  C4  AU8 d   1    -110.350-175.771 308.642  0.00  0.00     0.018 A 
ATOM      4  C5  AU8 d   1    -111.349-176.728 308.796  0.00  0.00     0.047 A 
ATOM      5  C6  AU8 d   1    -112.680-176.468 308.538  0.00  0.00    -0.053 A 
ATOM      6 CL1  AU8 d   1    -110.926-178.300 309.373  0.00  0.00    -0.083 Cl
ATOM      7 CL   AU8 d   1    -109.624-173.238 307.990  0.00  0.00    -0.083 Cl
ATOM      8  C2  AU8 d   1    -112.110-174.224 307.972  0.00  0.00    -0.053 A 
ATOM      9  H1  AU8 d   1    -113.413-177.261 308.637  0.00  0.00     0.087 H 
ATOM     10  H12 AU8 d   1    -112.395-173.232 307.643  0.00  0.00     0.087 H 
ENDROOT
BRANCH   3  11
ATOM     11  C7  AU8 d   1    -108.918-176.074 308.952  0.00  0.00    -0.023 A 
ATOM     12  C8  AU8 d   1    -108.448-176.031 310.269  0.00  0.00    -0.072 A 
ATOM     13  C9  AU8 d   1    -107.147-176.408 310.572  0.00  0.00    -0.082 A 
ATOM     14  H2  AU8 d   1    -109.108-175.699 311.062  0.00  0.00     0.084 H 
ATOM     15  C10 AU8 d   1    -106.288-176.823 309.566  0.00  0.00    -0.083 A 
ATOM     16  H3  AU8 d   1    -106.801-176.378 311.599  0.00  0.00     0.083 H 
ATOM     17  C11 AU8 d   1    -106.732-176.850 308.252  0.00  0.00    -0.082 A 
ATOM     18  H4  AU8 d   1    -105.275-177.125 309.805  0.00  0.00     0.083 H 
ATOM     19  C12 AU8 d   1    -108.032-176.475 307.946  0.00  0.00    -0.072 A 
ATOM     20  H5  AU8 d   1    -106.061-177.165 307.462  0.00  0.00     0.083 H 
ATOM     21  H6  AU8 d   1    -108.366-176.493 306.915  0.00  0.00     0.084 H 
ENDBRANCH   3  11
BRANCH   1  22
ATOM     22  C   AU8 d   1    -114.557-174.891 307.997  0.00  0.00     0.103 C 
ATOM     23  H7  AU8 d   1    -114.660-173.845 307.672  0.00  0.00     0.082 H 
ATOM     24  H8  AU8 d   1    -115.042-175.020 308.976  0.00  0.00     0.082 H 
BRANCH  22  25
ATOM     25  N   AU8 d   1    -115.245-175.744 307.027  0.00  0.00    -0.075 N 
ATOM     26  H9  AU8 d   1    -116.217-175.481 306.978  0.00  0.00     0.274 HD
ATOM     27  H10 AU8 d   1    -115.171-176.707 307.315  0.00  0.00     0.274 HD
ATOM     28  H11 AU8 d   1    -114.821-175.631 306.120  0.00  0.00     0.274 HD
ENDBRANCH  22  25
ENDBRANCH   1  22
TORSDOF 3
