REMARK  5 active torsions:
REMARK  status: ('A' for Active; 'I' for Inactive)
REMARK    1  A    between atoms: C11_7  and  C12_1 
REMARK    2  A    between atoms: C12_1  and  N_16 
REMARK    3  A    between atoms: C7_6  and  C8_4 
REMARK    4  A    between atoms: C2_14  and  C1_15 
REMARK    5  A    between atoms: C1_15  and  C_18 
ROOT
ATOM      1  C13 AUT d   1    -114.946-174.015 308.712  0.00  0.00    -0.053 A 
ATOM      2  C9  AUT d   1    -114.110-176.559 309.323  0.00  0.00     0.047 A 
ATOM      3  C8  AUT d   1    -113.153-175.548 309.296  0.00  0.00     0.018 A 
ATOM      4  C11 AUT d   1    -115.885-175.038 308.771  0.00  0.00    -0.030 A 
ATOM      5  C14 AUT d   1    -113.615-174.272 308.973  0.00  0.00     0.047 A 
ATOM      6 CL1  AUT d   1    -112.494-172.951 308.899  0.00  0.00    -0.083 Cl
ATOM      7  C10 AUT d   1    -115.446-176.320 309.069  0.00  0.00    -0.053 A 
ATOM      8 CL   AUT d   1    -113.611-178.180 309.675  0.00  0.00    -0.083 Cl
ATOM      9  H3  AUT d   1    -115.261-173.009 308.459  0.00  0.00     0.087 H 
ATOM     10  H5  AUT d   1    -116.156-177.139 309.103  0.00  0.00     0.087 H 
ENDROOT
BRANCH   3  11
ATOM     11  C7  AUT d   1    -111.718-175.819 309.625  0.00  0.00    -0.016 A 
ATOM     12  C6  AUT d   1    -111.298-175.677 310.948  0.00  0.00    -0.072 A 
ATOM     13  C5  AUT d   1    -110.004-176.003 311.315  0.00  0.00    -0.082 A 
ATOM     14  H6  AUT d   1    -111.991-175.308 311.695  0.00  0.00     0.084 H 
ATOM     15  C4  AUT d   1    -109.114-176.462 310.373  0.00  0.00    -0.082 A 
ATOM     16  H8  AUT d   1    -109.692-175.896 312.348  0.00  0.00     0.083 H 
ATOM     17  C3  AUT d   1    -109.507-176.598 309.055  0.00  0.00    -0.076 A 
ATOM     18  H7  AUT d   1    -108.102-176.718 310.665  0.00  0.00     0.083 H 
ATOM     19  C2  AUT d   1    -110.806-176.282 308.665  0.00  0.00    -0.047 A 
ATOM     20  H4  AUT d   1    -108.797-176.954 308.317  0.00  0.00     0.084 H 
BRANCH  19  21
ATOM     21  C1  AUT d   1    -111.242-176.456 307.228  0.00  0.00    -0.043 C 
ATOM     22  H9  AUT d   1    -112.338-176.548 307.211  0.00  0.00     0.039 H 
ATOM     23  H10 AUT d   1    -110.790-177.382 306.842  0.00  0.00     0.039 H 
BRANCH  21  24
ATOM     24  C   AUT d   1    -110.853-175.329 306.314  0.00  0.00    -0.073 C 
ATOM     25  H14 AUT d   1    -111.210-175.543 305.296  0.00  0.00     0.028 H 
ATOM     26  H15 AUT d   1    -109.758-175.226 306.304  0.00  0.00     0.028 H 
ATOM     27  H16 AUT d   1    -111.306-174.393 306.673  0.00  0.00     0.028 H 
ENDBRANCH  21  24
ENDBRANCH  19  21
ENDBRANCH   3  11
BRANCH   4  28
ATOM     28  C12 AUT d   1    -117.348-174.743 308.569  0.00  0.00     0.103 C 
ATOM     29  H1  AUT d   1    -117.456-173.748 308.112  0.00  0.00     0.082 H 
ATOM     30  H2  AUT d   1    -117.856-174.755 309.544  0.00  0.00     0.082 H 
BRANCH  28  31
ATOM     31  N   AUT d   1    -117.961-175.738 307.698  0.00  0.00    -0.075 N 
ATOM     32  H11 AUT d   1    -118.938-175.522 307.577  0.00  0.00     0.274 HD
ATOM     33  H12 AUT d   1    -117.868-176.651 308.114  0.00  0.00     0.274 HD
ATOM     34  H13 AUT d   1    -117.501-175.729 306.801  0.00  0.00     0.274 HD
ENDBRANCH  28  31
ENDBRANCH   4  28
TORSDOF 5
