REMARK  8 active torsions:
REMARK  status: ('A' for Active; 'I' for Inactive)
REMARK    1  A    between atoms: C8_17  and  C3_2 
REMARK    2  A    between atoms: C3_2  and  C1_21 
REMARK    3  A    between atoms: C16_18  and  C17_6 
REMARK    4  A    between atoms: C11_10  and  C14_9 
REMARK    5  A    between atoms: C14_9  and  C16_18 
REMARK    6  A    between atoms: C9_14  and  C8_17 
REMARK    7  A    between atoms: N1_15  and  C22_16 
REMARK    8  A    between atoms: C16_18  and  O2_19 
ROOT
ATOM      1  C11 L0B d   1      38.566 -17.314  -0.326  0.00  0.00     0.106 C 
ATOM      2  C13 L0B d   1      39.415 -17.410   0.941  0.00  0.00    -0.038 C 
ATOM      3  C15 L0B d   1      40.768 -17.148   0.699  0.00  0.00    -0.061 C 
ATOM      4  C12 L0B d   1      40.913 -15.891   0.065  0.00  0.00    -0.038 C 
ATOM      5  C9  L0B d   1      40.255 -15.963  -1.299  0.00  0.00     0.110 C 
ATOM      6  N1  L0B d   1      38.896 -16.240  -1.161  0.00  0.00    -0.066 N 
ATOM      7  H8  L0B d   1      38.620 -18.262  -0.882  0.00  0.00     0.084 H 
ATOM      8  H9  L0B d   1      39.320 -18.425   1.353  0.00  0.00     0.036 H 
ATOM      9  H10 L0B d   1      39.040 -16.680   1.674  0.00  0.00     0.036 H 
ATOM     10  H11 L0B d   1      41.180 -17.933   0.049  0.00  0.00     0.033 H 
ATOM     11  H12 L0B d   1      41.314 -17.139   1.654  0.00  0.00     0.033 H 
ATOM     12  H13 L0B d   1      41.981 -15.654  -0.050  0.00  0.00     0.036 H 
ATOM     13  H14 L0B d   1      40.428 -15.111   0.671  0.00  0.00     0.036 H 
ATOM     14  H15 L0B d   1      40.743 -16.735  -1.913  0.00  0.00     0.085 H 
ATOM     15  H16 L0B d   1      38.526 -16.440  -2.077  0.00  0.00     0.280 HD
ENDROOT
BRANCH   1  16
ATOM     16  C14 L0B d   1      37.146 -16.996   0.118  0.00  0.00    -0.010 C 
ATOM     17  H6  L0B d   1      36.885 -15.989  -0.238  0.00  0.00     0.040 H 
ATOM     18  H7  L0B d   1      37.109 -17.018   1.217  0.00  0.00     0.040 H 
BRANCH  16  19
ATOM     19  C16 L0B d   1      36.131 -17.972  -0.416  0.00  0.00     0.062 C 
ATOM     20  H22 L0B d   1      36.338 -18.981  -0.030  0.00  0.00     0.090 H 
BRANCH  19  21
ATOM     21  C17 L0B d   1      34.740 -17.524   0.036  0.00  0.00    -0.030 A 
ATOM     22  C19 L0B d   1      33.702 -18.427   0.101  0.00  0.00    -0.074 A 
ATOM     23  C10 L0B d   1      32.455 -17.995   0.519  0.00  0.00    -0.082 A 
ATOM     24  H3  L0B d   1      33.860 -19.464  -0.172  0.00  0.00     0.084 H 
ATOM     25  C21 L0B d   1      32.240 -16.665   0.875  0.00  0.00    -0.083 A 
ATOM     26  H2  L0B d   1      31.634 -18.701   0.570  0.00  0.00     0.083 H 
ATOM     27  C20 L0B d   1      33.256 -15.776   0.820  0.00  0.00    -0.082 A 
ATOM     28  H1  L0B d   1      31.256 -16.343   1.197  0.00  0.00     0.083 H 
ATOM     29  C18 L0B d   1      34.518 -16.214   0.392  0.00  0.00    -0.074 A 
ATOM     30  H5  L0B d   1      33.099 -14.741   1.102  0.00  0.00     0.083 H 
ATOM     31  H4  L0B d   1      35.336 -15.505   0.341  0.00  0.00     0.084 H 
ENDBRANCH  19  21
BRANCH  19  32
ATOM     32  O2  L0B d   1      36.212 -17.975  -1.790  0.00  0.00    -0.391 OA
ATOM     33  H23 L0B d   1      35.577 -18.587  -2.142  0.00  0.00     0.210 HD
ENDBRANCH  19  32
ENDBRANCH  16  19
ENDBRANCH   1  16
BRANCH   6  34
ATOM     34  C22 L0B d   1      38.373 -15.242  -0.724  0.00  0.00     0.067 C 
ATOM     35  H17 L0B d   1      37.294 -15.418  -0.599  0.00  0.00     0.068 H 
ATOM     36  H18 L0B d   1      38.530 -14.409  -1.425  0.00  0.00     0.068 H 
ATOM     37  H19 L0B d   1      38.819 -14.991   0.250  0.00  0.00     0.068 H 
ENDBRANCH   6  34
BRANCH   5  38
ATOM     38  C8  L0B d   1      40.365 -14.595  -1.966  0.00  0.00     0.022 C 
ATOM     39  H20 L0B d   1      40.721 -14.721  -2.999  0.00  0.00     0.048 H 
ATOM     40  H21 L0B d   1      39.376 -14.114  -1.975  0.00  0.00     0.048 H 
BRANCH  38  41
ATOM     41  C3  L0B d   1      41.346 -13.716  -1.198  0.00  0.00     0.161 C 
ATOM     42  O1  L0B d   1      42.318 -14.229  -0.675  0.00  0.00    -0.292 OA
BRANCH  41  43
ATOM     43  C1  L0B d   1      41.107 -12.212  -1.084  0.00  0.00     0.010 A 
ATOM     44  C4  L0B d   1      40.538 -11.682   0.053  0.00  0.00    -0.070 A 
ATOM     45  C7  L0B d   1      40.311 -10.329   0.140  0.00  0.00    -0.082 A 
ATOM     46  H24 L0B d   1      40.270 -12.331   0.878  0.00  0.00     0.085 H 
ATOM     47  C6  L0B d   1      40.644  -9.496  -0.889  0.00  0.00    -0.083 A 
ATOM     48  H28 L0B d   1      39.862  -9.918   1.037  0.00  0.00     0.083 H 
ATOM     49  C5  L0B d   1      41.225 -10.037  -2.046  0.00  0.00    -0.082 A 
ATOM     50  H27 L0B d   1      40.462  -8.430  -0.813  0.00  0.00     0.083 H 
ATOM     51  C2  L0B d   1      41.447 -11.370  -2.132  0.00  0.00    -0.070 A 
ATOM     52  H26 L0B d   1      41.496  -9.388  -2.871  0.00  0.00     0.083 H 
ATOM     53  H25 L0B d   1      41.895 -11.783  -3.029  0.00  0.00     0.085 H 
ENDBRANCH  41  43
ENDBRANCH  38  41
ENDBRANCH   5  38
TORSDOF 8
