REMARK  10 active torsions:
REMARK  status: ('A' for Active; 'I' for Inactive)
REMARK    1  A    between atoms: CBC_24  and  CAA_1 
REMARK    2  A    between atoms: CBC_24  and  CAB_2 
REMARK    3  A    between atoms: NBE_27  and  CAC_3 
REMARK    4  A    between atoms: NBF_28  and  CAD_4 
REMARK    5  A    between atoms: CAU_16  and  CAS_15 
REMARK    6  A    between atoms: CAS_15  and  CBC_24 
REMARK    7  A    between atoms: NAT_25  and  CAV_17 
REMARK    8  A    between atoms: SBG_33  and  CAW_18 
REMARK    9  A    between atoms: CAX_19  and  NBD_26 
REMARK   10  A    between atoms: NAT_25  and  SBG_33 
ROOT
ATOM      1  CAM AXN d   1      20.289  -1.567  14.688  0.00  0.00    -0.026 A 
ATOM      2  CAN AXN d   1      18.921  -0.063  12.754  0.00  0.00    -0.027 A 
ATOM      3  CAV AXN d   1      20.931  -1.153  13.530  0.00  0.00     0.071 A 
ATOM      4  CAX AXN d   1      20.249  -0.411  12.572  0.00  0.00     0.060 A 
ATOM      5  CAY AXN d   1      17.010  -1.277  16.161  0.00  0.00     0.316 A 
ATOM      6  CAZ AXN d   1      16.337  -0.527  15.202  0.00  0.00     0.316 A 
ATOM      7  CBA AXN d   1      18.942  -1.218  14.872  0.00  0.00     0.066 A 
ATOM      8  CBB AXN d   1      18.265  -0.468  13.911  0.00  0.00     0.066 A 
ATOM      9  NBE AXN d   1      18.298  -1.605  15.981  0.00  0.00    -0.312 N 
ATOM     10  NBF AXN d   1      16.975  -0.141  14.088  0.00  0.00    -0.312 N 
ATOM     11  OAE AXN d   1      16.440  -1.645  17.188  0.00  0.00    -0.262 OA
ATOM     12  OAF AXN d   1      15.158  -0.218  15.357  0.00  0.00    -0.262 OA
ATOM     13  H17 AXN d   1      20.817  -2.148  15.435  0.00  0.00     0.090 H 
ATOM     14  H18 AXN d   1      18.399   0.519  12.003  0.00  0.00     0.090 H 
ENDROOT
BRANCH   3  15
ATOM     15  NAT AXN d   1      22.209  -1.441  13.244  0.00  0.00    -0.278 N 
ATOM     16  H30 AXN d   1      22.497  -1.578  12.296  0.00  0.00     0.179 HD
BRANCH  15  17
ATOM     17  SBG AXN d   1      23.296  -1.566  14.470  0.00  0.00     0.263 S 
ATOM     18  OAG AXN d   1      24.585  -2.104  13.864  0.00  0.00    -0.200 OA
ATOM     19  OAH AXN d   1      22.871  -2.500  15.604  0.00  0.00    -0.200 OA
BRANCH  17  20
ATOM     20  CAW AXN d   1      23.545   0.051  15.089  0.00  0.00     0.079 A 
ATOM     21  CAK AXN d   1      23.673   1.110  14.194  0.00  0.00    -0.060 A 
ATOM     22  CAI AXN d   1      23.866   2.399  14.678  0.00  0.00    -0.075 A 
ATOM     23  H15 AXN d   1      23.622   0.930  13.126  0.00  0.00     0.085 H 
ATOM     24  CAU AXN d   1      23.942   2.624  16.049  0.00  0.00    -0.058 A 
ATOM     25  H13 AXN d   1      23.957   3.229  13.987  0.00  0.00     0.084 H 
ATOM     26  CAJ AXN d   1      23.808   1.564  16.939  0.00  0.00    -0.075 A 
ATOM     27  CAL AXN d   1      23.613   0.276  16.455  0.00  0.00    -0.060 A 
ATOM     28  H14 AXN d   1      23.855   1.742  18.007  0.00  0.00     0.084 H 
ATOM     29  H16 AXN d   1      23.514  -0.553  17.146  0.00  0.00     0.085 H 
BRANCH  24  30
ATOM     30  CAS AXN d   1      24.150   3.909  16.538  0.00  0.00    -0.038 C 
ATOM     31  H27 AXN d   1      24.282   4.601  15.693  0.00  0.00     0.040 H 
ATOM     32  H28 AXN d   1      25.055   3.917  17.163  0.00  0.00     0.040 H 
BRANCH  30  33
ATOM     33  CBC AXN d   1      22.961   4.358  17.373  0.00  0.00    -0.057 C 
ATOM     34  H29 AXN d   1      22.427   3.482  17.769  0.00  0.00     0.039 H 
BRANCH  33  35
ATOM     35  CAA AXN d   1      22.034   5.177  16.485  0.00  0.00    -0.073 C 
ATOM     36  H1  AXN d   1      21.166   5.512  17.072  0.00  0.00     0.028 H 
ATOM     37  H2  AXN d   1      21.691   4.558  15.643  0.00  0.00     0.028 H 
ATOM     38  H3  AXN d   1      22.576   6.053  16.099  0.00  0.00     0.028 H 
ENDBRANCH  33  35
BRANCH  33  39
ATOM     39  CAB AXN d   1      23.452   5.232  18.527  0.00  0.00    -0.073 C 
ATOM     40  H4  AXN d   1      24.122   4.645  19.172  0.00  0.00     0.028 H 
ATOM     41  H5  AXN d   1      22.590   5.581  19.115  0.00  0.00     0.028 H 
ATOM     42  H6  AXN d   1      23.997   6.099  18.125  0.00  0.00     0.028 H 
ENDBRANCH  33  39
ENDBRANCH  30  33
ENDBRANCH  24  30
ENDBRANCH  17  20
ENDBRANCH  15  17
ENDBRANCH   3  15
BRANCH   4  43
ATOM     43  NBD AXN d   1      20.852   0.006  11.465  0.00  0.00    -0.379 N 
ATOM     44  CAQ AXN d   1      21.225  -0.740  10.235  0.00  0.00    -0.005 C 
ATOM     45  CAO AXN d   1      22.023   0.293   9.449  0.00  0.00    -0.049 C 
ATOM     46  H23 AXN d   1      21.841  -1.619  10.475  0.00  0.00     0.064 H 
ATOM     47  H24 AXN d   1      20.332  -1.059   9.678  0.00  0.00     0.064 H 
ATOM     48  CAP AXN d   1      21.233   1.551   9.757  0.00  0.00    -0.049 C 
ATOM     49  H19 AXN d   1      23.059   0.366   9.811  0.00  0.00     0.035 H 
ATOM     50  H20 AXN d   1      22.026   0.069   8.372  0.00  0.00     0.035 H 
ATOM     51  CAR AXN d   1      21.186   1.444  11.268  0.00  0.00    -0.005 C 
ATOM     52  H21 AXN d   1      20.228   1.525   9.311  0.00  0.00     0.035 H 
ATOM     53  H22 AXN d   1      21.758   2.459   9.425  0.00  0.00     0.035 H 
ATOM     54  H25 AXN d   1      20.408   2.097  11.691  0.00  0.00     0.064 H 
ATOM     55  H26 AXN d   1      22.159   1.694  11.717  0.00  0.00     0.064 H 
ENDBRANCH   4  43
BRANCH   9  56
ATOM     56  CAC AXN d   1      18.994  -2.403  17.014  0.00  0.00    -0.011 C 
ATOM     57  H7  AXN d   1      18.300  -2.619  17.840  0.00  0.00     0.057 H 
ATOM     58  H8  AXN d   1      19.855  -1.836  17.397  0.00  0.00     0.057 H 
ATOM     59  H9  AXN d   1      19.344  -3.348  16.573  0.00  0.00     0.057 H 
ENDBRANCH   9  56
BRANCH  10  60
ATOM     60  CAD AXN d   1      16.253   0.656  13.079  0.00  0.00    -0.011 C 
ATOM     61  H10 AXN d   1      15.216   0.814  13.410  0.00  0.00     0.057 H 
ATOM     62  H11 AXN d   1      16.253   0.119  12.119  0.00  0.00     0.057 H 
ATOM     63  H12 AXN d   1      16.751   1.629  12.955  0.00  0.00     0.057 H 
ENDBRANCH  10  60
TORSDOF 10
