REMARK  31 active torsions:
REMARK  status: ('A' for Active; 'I' for Inactive)
REMARK    1  A    between atoms: C_1  and  CH3_3 
REMARK       I    between atoms: C_1  and  N_4 
REMARK    2  A    between atoms: N_4  and  CA_5 
REMARK    3  A    between atoms: CA_5  and  C_6 
REMARK    4  A    between atoms: CA_5  and  CB_8 
REMARK       I    between atoms: C_6  and  N_13 
REMARK    5  A    between atoms: CB_8  and  CG_9 
REMARK    6  A    between atoms: CG_9  and  CD_10 
REMARK    7  A    between atoms: N_13  and  CA_14 
REMARK    8  A    between atoms: CA_14  and  C_15 
REMARK    9  A    between atoms: CA_14  and  CB_17 
REMARK       I    between atoms: C_15  and  N_18 
REMARK   10  A    between atoms: N_18  and  CA_19 
REMARK   11  A    between atoms: CA_19  and  C_20 
REMARK   12  A    between atoms: CA_19  and  CB_22 
REMARK       I    between atoms: C_20  and  N_27 
REMARK   13  A    between atoms: CB_22  and  CG_23 
REMARK   14  A    between atoms: CG_23  and  CD_24 
REMARK       I    between atoms: CD_24  and  NE2_26 
REMARK   15  A    between atoms: N_27  and  CA_28 
REMARK   16  A    between atoms: CA_28  and  C_29 
REMARK   17  A    between atoms: CA_28  and  CB_31 
REMARK       I    between atoms: C_29  and  N_34 
REMARK   18  A    between atoms: CB_31  and  OG1_32 
REMARK   19  A    between atoms: CB_31  and  CG2_33 
REMARK   20  A    between atoms: N_34  and  CA_35 
REMARK   21  A    between atoms: CA_35  and  C_36 
REMARK   22  A    between atoms: CA_35  and  CB_38 
REMARK       I    between atoms: C_36  and  N_45 
REMARK   23  A    between atoms: CB_38  and  CG_39 
REMARK   24  A    between atoms: CG_39  and  CD_40 
REMARK   25  A    between atoms: CD_40  and  NE_41 
REMARK       I    between atoms: NE_41  and  CZ_42 
REMARK       I    between atoms: CZ_42  and  NH1_43 
REMARK   26  A    between atoms: N_45  and  CA_46 
REMARK   27  A    between atoms: CA_46  and  C_47 
REMARK   28  A    between atoms: CA_46  and  CB_49 
REMARK   29  A    between atoms: CB_49  and  CG_50 
REMARK   30  A    between atoms: CG_50  and  CD1_51 
REMARK   31  A    between atoms: CG_50  and  CD2_52 
ROOT
ATOM      1  CA  THR d   1       2.654  -8.437 -21.508  0.00  0.00     0.113 C 
ATOM      2  H24 THR d   1       3.170  -7.716 -22.159  0.00  0.00     0.091 H 
ENDROOT
BRANCH   1   3
ATOM      3  N   THR d   1       1.575  -9.062 -22.269  0.00  0.00    -0.344 N 
ATOM      4  C   GLN d   1       1.123  -8.550 -23.411  0.00  0.00     0.241 C 
ATOM      5  O   GLN d   1       1.602  -7.536 -23.931  0.00  0.00    -0.271 OA
ATOM      6  H23 THR d   1       1.162  -9.903 -21.920  0.00  0.00     0.163 HD
BRANCH   4   7
ATOM      7  CA  GLN d   1      -0.024  -9.288 -24.090  0.00  0.00     0.090 C 
ATOM      8  H16 GLN d   1      -0.421 -10.052 -23.406  0.00  0.00     0.087 H 
BRANCH   7   9
ATOM      9  N   GLN d   1      -1.078  -8.327 -24.397  0.00  0.00    -0.346 N 
ATOM     10  C   ALA d   1      -2.363  -8.513 -24.094  0.00  0.00     0.240 C 
ATOM     11  O   ALA d   1      -2.790  -9.522 -23.527  0.00  0.00    -0.271 OA
ATOM     12  H15 GLN d   1      -0.822  -7.479 -24.862  0.00  0.00     0.163 HD
BRANCH  10  13
ATOM     13  CA  ALA d   1      -3.299  -7.387 -24.504  0.00  0.00     0.086 C 
ATOM     14  H11 ALA d   1      -3.011  -7.028 -25.503  0.00  0.00     0.086 H 
BRANCH  13  15
ATOM     15  N   ALA d   1      -4.651  -7.907 -24.566  0.00  0.00    -0.346 N 
ATOM     16  C   GLU d   1      -5.385  -7.884 -25.671  0.00  0.00     0.241 C 
ATOM     17  O   GLU d   1      -5.074  -7.254 -26.685  0.00  0.00    -0.271 OA
ATOM     18  H10 ALA d   1      -5.049  -8.301 -23.738  0.00  0.00     0.163 HD
BRANCH  16  19
ATOM     19  CA  GLU d   1      -6.666  -8.692 -25.619  0.00  0.00     0.090 C 
ATOM     20  H5  GLU d   1      -7.112  -8.591 -24.619  0.00  0.00     0.087 H 
BRANCH  19  21
ATOM     21  N   GLU d   1      -7.619  -8.191 -26.604  0.00  0.00    -0.348 N 
ATOM     22  C   ACE d   1      -8.845  -7.792 -26.270  0.00  0.00     0.214 C 
ATOM     23  O   ACE d   1      -9.276  -7.824 -25.118  0.00  0.00    -0.274 OA
ATOM     24  H4  GLU d   1      -7.342  -8.146 -27.564  0.00  0.00     0.163 HD
BRANCH  22  25
ATOM     25  CH3 ACE d   1      -9.682  -7.301 -27.416  0.00  0.00    -0.003 C 
ATOM     26  H1  ACE d   1      -9.099  -7.360 -28.347  0.00  0.00     0.040 H 
ATOM     27  H2  ACE d   1      -9.977  -6.257 -27.234  0.00  0.00     0.040 H 
ATOM     28  H3  ACE d   1     -10.582  -7.926 -27.507  0.00  0.00     0.040 H 
ENDBRANCH  22  25
ENDBRANCH  19  21
BRANCH  19  29
ATOM     29  CB  GLU d   1      -6.336 -10.160 -25.863  0.00  0.00    -0.029 C 
ATOM     30  H6  GLU d   1      -5.446 -10.413 -25.268  0.00  0.00     0.037 H 
ATOM     31  H7  GLU d   1      -6.110 -10.285 -26.932  0.00  0.00     0.037 H 
BRANCH  29  32
ATOM     32  CG  GLU d   1      -7.436 -11.134 -25.499  0.00  0.00     0.018 C 
ATOM     33  H8  GLU d   1      -8.259 -11.029 -26.221  0.00  0.00     0.049 H 
ATOM     34  H9  GLU d   1      -7.802 -10.898 -24.489  0.00  0.00     0.049 H 
BRANCH  32  35
ATOM     35  CD  GLU d   1      -6.943 -12.567 -25.521  0.00  0.00     0.172 C 
ATOM     36  OE1 GLU d   1      -6.260 -12.945 -26.497  0.00  0.00    -0.648 OA
ATOM     37  OE2 GLU d   1      -7.208 -13.310 -24.554  0.00  0.00    -0.648 OA
ENDBRANCH  32  35
ENDBRANCH  29  32
ENDBRANCH  19  29
ENDBRANCH  16  19
ENDBRANCH  13  15
BRANCH  13  38
ATOM     38  CB  ALA d   1      -3.191  -6.218 -23.520  0.00  0.00    -0.049 C 
ATOM     39  H12 ALA d   1      -2.154  -5.851 -23.500  0.00  0.00     0.030 H 
ATOM     40  H13 ALA d   1      -3.479  -6.557 -22.514  0.00  0.00     0.030 H 
ATOM     41  H14 ALA d   1      -3.861  -5.407 -23.840  0.00  0.00     0.030 H 
ENDBRANCH  13  38
ENDBRANCH  10  13
ENDBRANCH   7   9
BRANCH   7  42
ATOM     42  CB  GLN d   1       0.477  -9.976 -25.364  0.00  0.00    -0.030 C 
ATOM     43  H17 GLN d   1       1.291 -10.662 -25.087  0.00  0.00     0.037 H 
ATOM     44  H18 GLN d   1       0.864  -9.202 -26.043  0.00  0.00     0.037 H 
BRANCH  42  45
ATOM     45  CG  GLN d   1      -0.584 -10.774 -26.108  0.00  0.00     0.011 C 
ATOM     46  H19 GLN d   1      -1.551 -10.261 -26.002  0.00  0.00     0.047 H 
ATOM     47  H20 GLN d   1      -0.650 -11.777 -25.660  0.00  0.00     0.047 H 
BRANCH  45  48
ATOM     48  CD  GLN d   1      -0.271 -10.920 -27.583  0.00  0.00     0.215 C 
ATOM     49  OE1 GLN d   1      -0.431  -9.975 -28.354  0.00  0.00    -0.274 OA
ATOM     50  NE2 GLN d   1       0.182 -12.105 -27.984  0.00  0.00    -0.370 N 
ATOM     51  H21 GLN d   1       0.404 -12.255 -28.947  0.00  0.00     0.159 HD
ATOM     52  H22 GLN d   1       0.300 -12.845 -27.322  0.00  0.00     0.159 HD
ENDBRANCH  45  48
ENDBRANCH  42  45
ENDBRANCH   7  42
ENDBRANCH   4   7
ENDBRANCH   1   3
BRANCH   1  53
ATOM     53  C   THR d   1       3.650  -9.501 -21.065  0.00  0.00     0.243 C 
ATOM     54  O   THR d   1       3.256 -10.520 -20.491  0.00  0.00    -0.271 OA
ATOM     55  N   ARG d   1       4.935  -9.263 -21.330  0.00  0.00    -0.346 N 
ATOM     56  H30 ARG d   1       5.177  -8.457 -21.870  0.00  0.00     0.163 HD
BRANCH  55  57
ATOM     57  CA  ARG d   1       5.998 -10.142 -20.856  0.00  0.00     0.089 C 
ATOM     58  H31 ARG d   1       5.602 -11.166 -20.781  0.00  0.00     0.087 H 
BRANCH  57  59
ATOM     59  C   ARG d   1       6.444  -9.683 -19.475  0.00  0.00     0.241 C 
ATOM     60  O   ARG d   1       6.654  -8.485 -19.248  0.00  0.00    -0.271 OA
ATOM     61  N   LEU d   1       6.586 -10.636 -18.558  0.00  0.00    -0.345 N 
ATOM     62  H43 LEU d   1       6.453 -11.590 -18.826  0.00  0.00     0.163 HD
BRANCH  61  63
ATOM     63  CA  LEU d   1       6.930 -10.333 -17.174  0.00  0.00     0.096 C 
ATOM     64  H44 LEU d   1       7.203  -9.269 -17.110  0.00  0.00     0.089 H 
BRANCH  63  65
ATOM     65  C   LEU d   1       8.126 -11.162 -16.707  0.00  0.00     0.196 C 
ATOM     66  O   LEU d   1       8.700 -10.870 -15.656  0.00  0.00    -0.646 OA
ATOM     67  OXT LEU d   1       8.545 -12.127 -17.359  0.00  0.00    -0.646 OA
ENDBRANCH  63  65
BRANCH  63  68
ATOM     68  CB  LEU d   1       5.719 -10.578 -16.268  0.00  0.00    -0.034 C 
ATOM     69  H45 LEU d   1       6.028 -10.434 -15.222  0.00  0.00     0.037 H 
ATOM     70  H46 LEU d   1       5.378 -11.614 -16.410  0.00  0.00     0.037 H 
BRANCH  68  71
ATOM     71  CG  LEU d   1       4.548  -9.631 -16.568  0.00  0.00    -0.059 C 
ATOM     72  H47 LEU d   1       4.579  -9.396 -17.642  0.00  0.00     0.038 H 
BRANCH  71  73
ATOM     73  CD1 LEU d   1       3.199 -10.268 -16.283  0.00  0.00    -0.073 C 
ATOM     74  H48 LEU d   1       2.398  -9.550 -16.514  0.00  0.00     0.028 H 
ATOM     75  H49 LEU d   1       3.144 -10.550 -15.221  0.00  0.00     0.028 H 
ATOM     76  H50 LEU d   1       3.078 -11.165 -16.907  0.00  0.00     0.028 H 
ENDBRANCH  71  73
BRANCH  71  77
ATOM     77  CD2 LEU d   1       4.717  -8.327 -15.804  0.00  0.00    -0.073 C 
ATOM     78  H51 LEU d   1       5.702  -7.893 -16.032  0.00  0.00     0.028 H 
ATOM     79  H52 LEU d   1       4.644  -8.523 -14.724  0.00  0.00     0.028 H 
ATOM     80  H53 LEU d   1       3.928  -7.622 -16.103  0.00  0.00     0.028 H 
ENDBRANCH  71  77
ENDBRANCH  68  71
ENDBRANCH  63  68
ENDBRANCH  61  63
ENDBRANCH  57  59
BRANCH  57  81
ATOM     81  CB  ARG d   1       7.186 -10.151 -21.820  0.00  0.00    -0.036 C 
ATOM     82  H32 ARG d   1       7.567  -9.124 -21.919  0.00  0.00     0.036 H 
ATOM     83  H33 ARG d   1       6.841 -10.511 -22.801  0.00  0.00     0.036 H 
BRANCH  81  84
ATOM     84  CG  ARG d   1       8.313 -11.041 -21.347  0.00  0.00    -0.048 C 
ATOM     85  H34 ARG d   1       7.889 -11.989 -20.985  0.00  0.00     0.035 H 
ATOM     86  H35 ARG d   1       8.842 -10.538 -20.524  0.00  0.00     0.035 H 
BRANCH  84  87
ATOM     87  CD  ARG d   1       9.296 -11.337 -22.447  0.00  0.00     0.009 C 
ATOM     88  H36 ARG d   1      10.267 -11.591 -21.996  0.00  0.00     0.064 H 
ATOM     89  H37 ARG d   1       9.406 -10.441 -23.075  0.00  0.00     0.064 H 
BRANCH  87  90
ATOM     90  NE  ARG d   1       8.861 -12.451 -23.288  0.00  0.00    -0.227 N 
ATOM     91  CZ  ARG d   1       9.022 -13.734 -22.968  0.00  0.00     0.665 C 
ATOM     92  NH1 ARG d   1       9.596 -14.077 -21.824  0.00  0.00    -0.235 N 
ATOM     93  NH2 ARG d   1       8.602 -14.681 -23.790  0.00  0.00    -0.235 N 
ATOM     94  H39 ARG d   1       9.716 -15.072 -21.586  0.00  0.00     0.174 HD
ATOM     95  H40 ARG d   1       9.922 -13.349 -21.173  0.00  0.00     0.174 HD
ATOM     96  H41 ARG d   1       8.154 -14.427 -24.682  0.00  0.00     0.174 HD
ATOM     97  H42 ARG d   1       8.723 -15.672 -23.538  0.00  0.00     0.174 HD
ATOM     98  H38 ARG d   1       8.402 -12.230 -24.183  0.00  0.00     0.177 HD
ENDBRANCH  87  90
ENDBRANCH  84  87
ENDBRANCH  81  84
ENDBRANCH  57  81
ENDBRANCH  55  57
ENDBRANCH   1  53
BRANCH   1  99
ATOM     99  CB  THR d   1       2.108  -7.685 -20.280  0.00  0.00     0.060 C 
ATOM    100  H25 THR d   1       1.631  -8.411 -19.605  0.00  0.00     0.086 H 
BRANCH  99 101
ATOM    101  OG1 THR d   1       1.133  -6.712 -20.688  0.00  0.00    -0.393 OA
ATOM    102  H26 THR d   1       0.415  -7.151 -21.130  0.00  0.00     0.210 HD
ENDBRANCH  99 101
BRANCH  99 103
ATOM    103  CG2 THR d   1       3.228  -6.981 -19.534  0.00  0.00    -0.050 C 
ATOM    104  H27 THR d   1       2.813  -6.452 -18.663  0.00  0.00     0.031 H 
ATOM    105  H28 THR d   1       3.716  -6.258 -20.203  0.00  0.00     0.031 H 
ATOM    106  H29 THR d   1       3.966  -7.723 -19.195  0.00  0.00     0.031 H 
ENDBRANCH  99 103
ENDBRANCH   1  99
TORSDOF 31
