REMARK  32 active torsions:
REMARK  status: ('A' for Active; 'I' for Inactive)
REMARK    1  A    between atoms: C_1  and  CH3_3 
REMARK       I    between atoms: C_1  and  N_4 
REMARK    2  A    between atoms: N_4  and  CA_5 
REMARK    3  A    between atoms: CA_5  and  C_6 
REMARK    4  A    between atoms: CA_5  and  CB_8 
REMARK       I    between atoms: C_6  and  N_13 
REMARK    5  A    between atoms: CB_8  and  CG_9 
REMARK    6  A    between atoms: CG_9  and  CD_10 
REMARK       I    between atoms: CD_10  and  NE2_12 
REMARK    7  A    between atoms: N_13  and  CA_14 
REMARK    8  A    between atoms: CA_14  and  C_15 
REMARK    9  A    between atoms: CA_14  and  CB_17 
REMARK       I    between atoms: C_15  and  N_21 
REMARK   10  A    between atoms: CB_17  and  CG_18 
REMARK   11  A    between atoms: CG_18  and  CD1_19 
REMARK   12  A    between atoms: CG_18  and  CD2_20 
REMARK   13  A    between atoms: N_21  and  CA_22 
REMARK   14  A    between atoms: CA_22  and  C_23 
REMARK   15  A    between atoms: CA_22  and  CB_25 
REMARK       I    between atoms: C_23  and  N_28 
REMARK   16  A    between atoms: CB_25  and  CG1_26 
REMARK   17  A    between atoms: CB_25  and  CG2_27 
REMARK   18  A    between atoms: N_28  and  CA_29 
REMARK   19  A    between atoms: CA_29  and  C_30 
REMARK   20  A    between atoms: CA_29  and  CB_32 
REMARK       I    between atoms: C_30  and  N_35 
REMARK   21  A    between atoms: CB_32  and  OG1_33 
REMARK   22  A    between atoms: CB_32  and  CG2_34 
REMARK   23  A    between atoms: N_35  and  CA_36 
REMARK   24  A    between atoms: CA_36  and  C_37 
REMARK   25  A    between atoms: CA_36  and  CB_39 
REMARK       I    between atoms: C_37  and  N_41 
REMARK   26  A    between atoms: CB_39  and  OG_40 
REMARK   27  A    between atoms: N_41  and  CA_42 
REMARK   28  A    between atoms: CA_42  and  C_43 
REMARK   29  A    between atoms: CA_42  and  CB_45 
REMARK   30  A    between atoms: CB_45  and  CG_46 
REMARK   31  A    between atoms: CG_46  and  CD1_47 
REMARK   32  A    between atoms: CG_46  and  CD2_48 
ROOT
ATOM      1  CA  VAL d   1     -11.438  -4.830   3.452  0.00  0.00     0.092 C 
ATOM      2  H24 VAL d   1     -10.762  -5.202   4.236  0.00  0.00     0.088 H 
ENDROOT
BRANCH   1   3
ATOM      3  N   VAL d   1     -12.052  -5.975   2.774  0.00  0.00    -0.346 N 
ATOM      4  C   LEU d   1     -11.544  -7.203   2.817  0.00  0.00     0.241 C 
ATOM      5  O   LEU d   1     -10.514  -7.492   3.437  0.00  0.00    -0.271 OA
ATOM      6  H23 VAL d   1     -12.893  -5.826   2.254  0.00  0.00     0.163 HD
BRANCH   4   7
ATOM      7  CA  LEU d   1     -12.336  -8.253   2.054  0.00  0.00     0.089 C 
ATOM      8  H13 LEU d   1     -12.732  -7.820   1.123  0.00  0.00     0.087 H 
BRANCH   7   9
ATOM      9  N   LEU d   1     -11.469  -9.372   1.727  0.00  0.00    -0.346 N 
ATOM     10  C   GLN d   1     -11.113  -9.696   0.491  0.00  0.00     0.241 C 
ATOM     11  O   GLN d   1     -11.622  -9.190  -0.493  0.00  0.00    -0.271 OA
ATOM     12  H12 LEU d   1     -11.120  -9.931   2.479  0.00  0.00     0.163 HD
BRANCH  10  13
ATOM     13  CA  GLN d   1     -10.020 -10.761   0.409  0.00  0.00     0.089 C 
ATOM     14  H5  GLN d   1     -10.190 -11.511   1.196  0.00  0.00     0.087 H 
BRANCH  13  15
ATOM     15  N   GLN d   1     -10.045 -11.426  -0.871  0.00  0.00    -0.348 N 
ATOM     16  C   ACE d   1     -10.207 -12.730  -0.962  0.00  0.00     0.214 C 
ATOM     17  O   ACE d   1     -10.335 -13.513  -0.025  0.00  0.00    -0.274 OA
ATOM     18  H4  GLN d   1      -9.937 -10.886  -1.706  0.00  0.00     0.163 HD
BRANCH  16  19
ATOM     19  CH3 ACE d   1     -10.209 -13.234  -2.376  0.00  0.00    -0.003 C 
ATOM     20  H1  ACE d   1     -10.083 -12.387  -3.067  0.00  0.00     0.040 H 
ATOM     21  H2  ACE d   1     -11.164 -13.739  -2.584  0.00  0.00     0.040 H 
ATOM     22  H3  ACE d   1      -9.381 -13.945  -2.513  0.00  0.00     0.040 H 
ENDBRANCH  16  19
ENDBRANCH  13  15
BRANCH  13  23
ATOM     23  CB  GLN d   1      -8.657 -10.080   0.649  0.00  0.00    -0.030 C 
ATOM     24  H6  GLN d   1      -8.703  -9.564   1.619  0.00  0.00     0.037 H 
ATOM     25  H7  GLN d   1      -8.502  -9.342  -0.152  0.00  0.00     0.037 H 
BRANCH  23  26
ATOM     26  CG  GLN d   1      -7.465 -11.000   0.669  0.00  0.00     0.011 C 
ATOM     27  H8  GLN d   1      -7.395 -11.504  -0.306  0.00  0.00     0.047 H 
ATOM     28  H9  GLN d   1      -7.615 -11.750   1.459  0.00  0.00     0.047 H 
BRANCH  26  29
ATOM     29  CD  GLN d   1      -6.174 -10.282   0.930  0.00  0.00     0.215 C 
ATOM     30  OE1 GLN d   1      -5.907  -9.233   0.369  0.00  0.00    -0.274 OA
ATOM     31  NE2 GLN d   1      -5.364 -10.838   1.816  0.00  0.00    -0.370 N 
ATOM     32  H10 GLN d   1      -4.488 -10.406   2.033  0.00  0.00     0.159 HD
ATOM     33  H11 GLN d   1      -5.627 -11.690   2.269  0.00  0.00     0.159 HD
ENDBRANCH  26  29
ENDBRANCH  23  26
ENDBRANCH  13  23
ENDBRANCH  10  13
ENDBRANCH   7   9
BRANCH   7  34
ATOM     34  CB  LEU d   1     -13.498  -8.691   2.949  0.00  0.00    -0.035 C 
ATOM     35  H14 LEU d   1     -13.814  -7.813   3.531  0.00  0.00     0.037 H 
ATOM     36  H15 LEU d   1     -13.114  -9.464   3.631  0.00  0.00     0.037 H 
BRANCH  34  37
ATOM     37  CG  LEU d   1     -14.737  -9.257   2.272  0.00  0.00    -0.059 C 
ATOM     38  H16 LEU d   1     -15.053  -8.566   1.477  0.00  0.00     0.038 H 
BRANCH  37  39
ATOM     39  CD1 LEU d   1     -14.411 -10.595   1.643  0.00  0.00    -0.073 C 
ATOM     40  H17 LEU d   1     -15.310 -10.999   1.155  0.00  0.00     0.028 H 
ATOM     41  H18 LEU d   1     -14.071 -11.293   2.422  0.00  0.00     0.028 H 
ATOM     42  H19 LEU d   1     -13.615 -10.464   0.895  0.00  0.00     0.028 H 
ENDBRANCH  37  39
BRANCH  37  43
ATOM     43  CD2 LEU d   1     -15.870  -9.381   3.282  0.00  0.00    -0.073 C 
ATOM     44  H20 LEU d   1     -16.081  -8.394   3.719  0.00  0.00     0.028 H 
ATOM     45  H21 LEU d   1     -15.576 -10.080   4.079  0.00  0.00     0.028 H 
ATOM     46  H22 LEU d   1     -16.771  -9.759   2.777  0.00  0.00     0.028 H 
ENDBRANCH  37  43
ENDBRANCH  34  37
ENDBRANCH   7  34
ENDBRANCH   4   7
ENDBRANCH   1   3
BRANCH   1  47
ATOM     47  C   VAL d   1     -12.562  -4.027   4.089  0.00  0.00     0.241 C 
ATOM     48  O   VAL d   1     -13.511  -3.623   3.400  0.00  0.00    -0.271 OA
ATOM     49  N   THR d   1     -12.483  -3.827   5.418  0.00  0.00    -0.344 N 
ATOM     50  H32 THR d   1     -11.681  -4.169   5.908  0.00  0.00     0.163 HD
BRANCH  49  51
ATOM     51  CA  THR d   1     -13.517  -3.134   6.170  0.00  0.00     0.113 C 
ATOM     52  H33 THR d   1     -14.214  -2.662   5.461  0.00  0.00     0.091 H 
BRANCH  51  53
ATOM     53  C   THR d   1     -12.905  -2.051   7.043  0.00  0.00     0.243 C 
ATOM     54  O   THR d   1     -11.958  -2.314   7.795  0.00  0.00    -0.271 OA
ATOM     55  N   SER d   1     -13.481  -0.851   6.987  0.00  0.00    -0.344 N 
ATOM     56  H39 SER d   1     -14.208  -0.692   6.319  0.00  0.00     0.163 HD
BRANCH  55  57
ATOM     57  CA  SER d   1     -13.081   0.243   7.876  0.00  0.00     0.109 C 
ATOM     58  H40 SER d   1     -12.001   0.185   8.076  0.00  0.00     0.090 H 
BRANCH  57  59
ATOM     59  C   SER d   1     -13.853   0.133   9.182  0.00  0.00     0.243 C 
ATOM     60  O   SER d   1     -15.082   0.049   9.166  0.00  0.00    -0.271 OA
ATOM     61  N   LEU d   1     -13.136   0.113  10.316  0.00  0.00    -0.345 N 
ATOM     62  H44 LEU d   1     -12.148   0.256  10.266  0.00  0.00     0.163 HD
BRANCH  61  63
ATOM     63  CA  LEU d   1     -13.755  -0.111  11.626  0.00  0.00     0.096 C 
ATOM     64  H45 LEU d   1     -14.847  -0.056  11.505  0.00  0.00     0.089 H 
BRANCH  63  65
ATOM     65  C   LEU d   1     -13.336   0.938  12.623  0.00  0.00     0.196 C 
ATOM     66  O   LEU d   1     -13.982   1.036  13.690  0.00  0.00    -0.646 OA
ATOM     67  OXT LEU d   1     -12.355   1.675  12.434  0.00  0.00    -0.646 OA
ENDBRANCH  63  65
BRANCH  63  68
ATOM     68  CB  LEU d   1     -13.392  -1.506  12.149  0.00  0.00    -0.034 C 
ATOM     69  H46 LEU d   1     -13.751  -1.599  13.185  0.00  0.00     0.037 H 
ATOM     70  H47 LEU d   1     -12.298  -1.617  12.128  0.00  0.00     0.037 H 
BRANCH  68  71
ATOM     71  CG  LEU d   1     -14.013  -2.619  11.314  0.00  0.00    -0.059 C 
ATOM     72  H48 LEU d   1     -13.824  -2.402  10.252  0.00  0.00     0.038 H 
BRANCH  71  73
ATOM     73  CD1 LEU d   1     -13.371  -3.935  11.654  0.00  0.00    -0.073 C 
ATOM     74  H49 LEU d   1     -13.825  -4.732  11.047  0.00  0.00     0.028 H 
ATOM     75  H50 LEU d   1     -13.525  -4.154  12.721  0.00  0.00     0.028 H 
ATOM     76  H51 LEU d   1     -12.293  -3.882  11.443  0.00  0.00     0.028 H 
ENDBRANCH  71  73
BRANCH  71  77
ATOM     77  CD2 LEU d   1     -15.531  -2.690  11.528  0.00  0.00    -0.073 C 
ATOM     78  H52 LEU d   1     -15.983  -1.720  11.275  0.00  0.00     0.028 H 
ATOM     79  H53 LEU d   1     -15.742  -2.929  12.581  0.00  0.00     0.028 H 
ATOM     80  H54 LEU d   1     -15.956  -3.472  10.882  0.00  0.00     0.028 H 
ENDBRANCH  71  77
ENDBRANCH  68  71
ENDBRANCH  63  68
ENDBRANCH  61  63
ENDBRANCH  57  59
BRANCH  57  81
ATOM     81  CB  SER d   1     -13.413   1.578   7.205  0.00  0.00     0.044 C 
ATOM     82  H41 SER d   1     -14.499   1.631   7.042  0.00  0.00     0.077 H 
ATOM     83  H42 SER d   1     -12.894   1.626   6.236  0.00  0.00     0.077 H 
BRANCH  81  84
ATOM     84  OG  SER d   1     -13.016   2.688   7.989  0.00  0.00    -0.398 OA
ATOM     85  H43 SER d   1     -12.077   2.655   8.130  0.00  0.00     0.209 HD
ENDBRANCH  81  84
ENDBRANCH  57  81
ENDBRANCH  55  57
ENDBRANCH  51  53
BRANCH  51  86
ATOM     86  CB  THR d   1     -14.287  -4.130   7.024  0.00  0.00     0.060 C 
ATOM     87  H34 THR d   1     -13.623  -4.524   7.807  0.00  0.00     0.086 H 
BRANCH  86  88
ATOM     88  OG1 THR d   1     -14.735  -5.209   6.193  0.00  0.00    -0.393 OA
ATOM     89  H35 THR d   1     -13.984  -5.637   5.799  0.00  0.00     0.210 HD
ENDBRANCH  86  88
BRANCH  86  90
ATOM     90  CG2 THR d   1     -15.497  -3.452   7.687  0.00  0.00    -0.050 C 
ATOM     91  H36 THR d   1     -16.040  -4.188   8.299  0.00  0.00     0.031 H 
ATOM     92  H37 THR d   1     -16.167  -3.056   6.910  0.00  0.00     0.031 H 
ATOM     93  H38 THR d   1     -15.150  -2.627   8.327  0.00  0.00     0.031 H 
ENDBRANCH  86  90
ENDBRANCH  51  86
ENDBRANCH  49  51
ENDBRANCH   1  47
BRANCH   1  94
ATOM     94  CB  VAL d   1     -10.627  -3.929   2.499  0.00  0.00    -0.033 C 
ATOM     95  H25 VAL d   1     -11.327  -3.452   1.797  0.00  0.00     0.042 H 
BRANCH  94  96
ATOM     96  CG1 VAL d   1      -9.915  -2.814   3.304  0.00  0.00    -0.071 C 
ATOM     97  H26 VAL d   1      -9.339  -2.176   2.617  0.00  0.00     0.028 H 
ATOM     98  H27 VAL d   1      -9.235  -3.269   4.038  0.00  0.00     0.028 H 
ATOM     99  H28 VAL d   1     -10.665  -2.204   3.828  0.00  0.00     0.028 H 
ENDBRANCH  94  96
BRANCH  94 100
ATOM    100  CG2 VAL d   1      -9.619  -4.761   1.675  0.00  0.00    -0.071 C 
ATOM    101  H29 VAL d   1     -10.157  -5.542   1.117  0.00  0.00     0.028 H 
ATOM    102  H30 VAL d   1      -8.891  -5.231   2.353  0.00  0.00     0.028 H 
ATOM    103  H31 VAL d   1      -9.091  -4.103   0.969  0.00  0.00     0.028 H 
ENDBRANCH  94 100
ENDBRANCH   1  94
TORSDOF 32
