REMARK  7 active torsions:
REMARK  status: ('A' for Active; 'I' for Inactive)
REMARK    1  A    between atoms: C8_5  and  C6_4 
REMARK    2  A    between atoms: C19_19  and  C10_7 
REMARK    3  A    between atoms: C1_10  and  C13_13 
REMARK    4  A    between atoms: C13_13  and  P14_14 
REMARK    5  A    between atoms: C13_13  and  O18_18 
REMARK    6  A    between atoms: C19_19  and  O20_20 
REMARK    7  A    between atoms: C21_21  and  C19_19 
ROOT
ATOM      1  C8  AXK d   1       3.353 -14.998 -23.887  0.00  0.00    -0.025 A 
ATOM      2  C9  AXK d   1       0.815 -14.153 -24.574  0.00  0.00    -0.074 A 
ATOM      3  C10 AXK d   1       1.738 -14.372 -25.575  0.00  0.00    -0.024 A 
ATOM      4  C11 AXK d   1       2.409 -14.752 -22.906  0.00  0.00    -0.072 A 
ATOM      5  C12 AXK d   1       1.136 -14.342 -23.244  0.00  0.00    -0.082 A 
ATOM      6  C7  AXK d   1       3.000 -14.812 -25.213  0.00  0.00    -0.063 A 
ATOM      7  H4  AXK d   1      -0.184 -13.825 -24.837  0.00  0.00     0.084 H 
ATOM      8  H5  AXK d   1       2.672 -14.883 -21.863  0.00  0.00     0.084 H 
ATOM      9  H6  AXK d   1       0.394 -14.170 -22.473  0.00  0.00     0.083 H 
ATOM     10  H8  AXK d   1       3.730 -15.016 -25.988  0.00  0.00     0.085 H 
ENDROOT
BRANCH   1  11
ATOM     11  C6  AXK d   1       4.660 -15.509 -23.569  0.00  0.00    -0.026 A 
ATOM     12  C5  AXK d   1       4.800 -16.574 -22.696  0.00  0.00    -0.072 A 
ATOM     13  C2  AXK d   1       6.052 -17.102 -22.444  0.00  0.00    -0.073 A 
ATOM     14  H3  AXK d   1       3.927 -16.994 -22.210  0.00  0.00     0.084 H 
ATOM     15  C1  AXK d   1       7.168 -16.583 -23.076  0.00  0.00    -0.016 A 
ATOM     16  H1  AXK d   1       6.160 -17.926 -21.748  0.00  0.00     0.084 H 
ATOM     17  C4  AXK d   1       7.033 -15.526 -23.948  0.00  0.00    -0.073 A 
ATOM     18  C3  AXK d   1       5.786 -14.992 -24.189  0.00  0.00    -0.072 A 
ATOM     19  H2  AXK d   1       7.905 -15.115 -24.443  0.00  0.00     0.084 H 
ATOM     20  H7  AXK d   1       5.685 -14.157 -24.872  0.00  0.00     0.084 H 
BRANCH  15  21
ATOM     21  C13 AXK d   1       8.502 -17.205 -22.810  0.00  0.00     0.168 C 
ATOM     22  H9  AXK d   1       8.319 -18.139 -22.259  0.00  0.00     0.113 H 
BRANCH  21  23
ATOM     23  P14 AXK d   1       9.737 -16.254 -21.886  0.00  0.00     0.293 P 
ATOM     24  O15 AXK d   1      10.868 -17.150 -21.463  0.00  0.00    -0.638 OA
ATOM     25  O16 AXK d   1       8.892 -15.520 -20.719  0.00  0.00    -0.638 OA
ATOM     26  O17 AXK d   1      10.164 -14.997 -22.795  0.00  0.00    -0.638 OA
ENDBRANCH  21  23
BRANCH  21  27
ATOM     27  O18 AXK d   1       9.115 -17.492 -24.050  0.00  0.00    -0.377 OA
ATOM     28  H10 AXK d   1       8.516 -17.994 -24.590  0.00  0.00     0.211 HD
ENDBRANCH  21  27
ENDBRANCH  15  21
ENDBRANCH   1  11
BRANCH   3  29
ATOM     29  C19 AXK d   1       1.406 -14.186 -27.032  0.00  0.00     0.086 C 
ATOM     30  H11 AXK d   1       1.757 -15.095 -27.542  0.00  0.00     0.098 H 
BRANCH  29  31
ATOM     31  O20 AXK d   1       0.006 -14.103 -27.288  0.00  0.00    -0.386 OA
ATOM     32  H12 AXK d   1      -0.138 -13.987 -28.220  0.00  0.00     0.210 HD
ENDBRANCH  29  31
BRANCH  29  33
ATOM     33  C21 AXK d   1       2.151 -13.043 -27.647  0.00  0.00    -0.024 A 
ATOM     34  C24 AXK d   1       2.099 -11.756 -27.140  0.00  0.00    -0.072 A 
ATOM     35  C23 AXK d   1       2.828 -10.734 -27.716  0.00  0.00    -0.060 A 
ATOM     36  H14 AXK d   1       1.476 -11.547 -26.277  0.00  0.00     0.084 H 
ATOM     37  C22 AXK d   1       3.634 -11.004 -28.805  0.00  0.00     0.055 A 
ATOM     38  H13 AXK d   1       2.768  -9.728 -27.317  0.00  0.00     0.086 H 
ATOM     39  C26 AXK d   1       3.689 -12.283 -29.323  0.00  0.00     0.056 A 
ATOM     40 CL8  AXK d   1       4.568  -9.746 -29.539  0.00  0.00    -0.083 Cl
ATOM     41  C25 AXK d   1       2.946 -13.295 -28.745  0.00  0.00    -0.051 A 
ATOM     42 CL7  AXK d   1       4.674 -12.632 -30.704  0.00  0.00    -0.083 Cl
ATOM     43  H15 AXK d   1       2.989 -14.296 -29.159  0.00  0.00     0.087 H 
ENDBRANCH  29  33
ENDBRANCH   3  29
TORSDOF 7
