REMARK  32 active torsions:
REMARK  status: ('A' for Active; 'I' for Inactive)
REMARK    1  A    between atoms: C_1  and  CH3_3 
REMARK       I    between atoms: C_1  and  N_4 
REMARK    2  A    between atoms: N_4  and  CA_5 
REMARK    3  A    between atoms: CA_5  and  C_6 
REMARK    4  A    between atoms: CA_5  and  CB_8 
REMARK       I    between atoms: C_6  and  N_12 
REMARK    5  A    between atoms: CB_8  and  CG1_9 
REMARK    6  A    between atoms: CB_8  and  CG2_10 
REMARK    7  A    between atoms: CG1_9  and  CD1_11 
REMARK    8  A    between atoms: N_12  and  CA_13 
REMARK    9  A    between atoms: CA_13  and  C_14 
REMARK   10  A    between atoms: CA_13  and  CB_16 
REMARK       I    between atoms: C_14  and  N_21 
REMARK   11  A    between atoms: CB_16  and  CG_17 
REMARK   12  A    between atoms: CG_17  and  CD_18 
REMARK   13  A    between atoms: N_21  and  CA_22 
REMARK   14  A    between atoms: CA_22  and  C_23 
REMARK   15  A    between atoms: CA_22  and  CB_25 
REMARK       I    between atoms: C_23  and  N_27 
REMARK   16  A    between atoms: CB_25  and  OG_26 
REMARK   17  A    between atoms: N_27  and  CA_28 
REMARK   18  A    between atoms: CA_28  and  C_29 
REMARK   19  A    between atoms: CA_28  and  CB_31 
REMARK       I    between atoms: C_29  and  N_34 
REMARK   20  A    between atoms: CB_31  and  OG1_32 
REMARK   21  A    between atoms: CB_31  and  CG2_33 
REMARK   22  A    between atoms: N_34  and  CA_35 
REMARK   23  A    between atoms: CA_35  and  C_36 
REMARK   24  A    between atoms: CA_35  and  CB_38 
REMARK       I    between atoms: C_36  and  N_43 
REMARK   25  A    between atoms: CB_38  and  CG_39 
REMARK   26  A    between atoms: CG_39  and  CD_40 
REMARK   27  A    between atoms: N_43  and  CA_44 
REMARK   28  A    between atoms: CA_44  and  C_45 
REMARK   29  A    between atoms: CA_44  and  CB_47 
REMARK   30  A    between atoms: CB_47  and  CG1_48 
REMARK   31  A    between atoms: CB_47  and  CG2_49 
REMARK   32  A    between atoms: CG1_48  and  CD1_50 
ROOT
ATOM      1  C   SER d   1     -21.876 -15.941   0.442  0.00  0.00     0.243 C 
ATOM      2  O   SER d   1     -22.940 -15.361   0.666  0.00  0.00    -0.271 OA
ATOM      3  N   THR d   1     -20.695 -15.511   0.888  0.00  0.00    -0.344 N 
ATOM      4  H26 THR d   1     -19.865 -16.004   0.626  0.00  0.00     0.163 HD
ENDROOT
BRANCH   1   5
ATOM      5  CA  SER d   1     -21.856 -17.252  -0.329  0.00  0.00     0.109 C 
ATOM      6  H22 SER d   1     -20.970 -17.818  -0.005  0.00  0.00     0.090 H 
BRANCH   5   7
ATOM      7  N   SER d   1     -23.032 -18.037   0.018  0.00  0.00    -0.344 N 
ATOM      8  C   GLU d   1     -22.945 -19.357   0.161  0.00  0.00     0.241 C 
ATOM      9  O   GLU d   1     -21.908 -19.982  -0.050  0.00  0.00    -0.271 OA
ATOM     10  H21 SER d   1     -23.912 -17.581   0.150  0.00  0.00     0.163 HD
BRANCH   8  11
ATOM     11  CA  GLU d   1     -24.206 -20.066   0.621  0.00  0.00     0.090 C 
ATOM     12  H16 GLU d   1     -25.077 -19.652   0.092  0.00  0.00     0.087 H 
BRANCH  11  13
ATOM     13  N   GLU d   1     -24.099 -21.488   0.323  0.00  0.00    -0.346 N 
ATOM     14  C   ILE d   1     -24.853 -22.115  -0.587  0.00  0.00     0.241 C 
ATOM     15  O   ILE d   1     -25.669 -21.537  -1.304  0.00  0.00    -0.271 OA
ATOM     16  H15 GLU d   1     -23.424 -22.026   0.827  0.00  0.00     0.163 HD
BRANCH  14  17
ATOM     17  CA  ILE d   1     -24.645 -23.599  -0.738  0.00  0.00     0.092 C 
ATOM     18  H5  ILE d   1     -23.931 -23.948   0.022  0.00  0.00     0.088 H 
BRANCH  17  19
ATOM     19  N   ILE d   1     -25.927 -24.268  -0.543  0.00  0.00    -0.348 N 
ATOM     20  C   ACE d   1     -26.352 -24.691   0.645  0.00  0.00     0.214 C 
ATOM     21  O   ACE d   1     -25.681 -24.517   1.664  0.00  0.00    -0.274 OA
ATOM     22  H4  ILE d   1     -26.514 -24.416  -1.339  0.00  0.00     0.163 HD
BRANCH  20  23
ATOM     23  CH3 ACE d   1     -27.702 -25.374   0.683  0.00  0.00    -0.003 C 
ATOM     24  H1  ACE d   1     -28.118 -25.421  -0.334  0.00  0.00     0.040 H 
ATOM     25  H2  ACE d   1     -28.383 -24.804   1.332  0.00  0.00     0.040 H 
ATOM     26  H3  ACE d   1     -27.586 -26.394   1.079  0.00  0.00     0.040 H 
ENDBRANCH  20  23
ENDBRANCH  17  19
BRANCH  17  27
ATOM     27  CB  ILE d   1     -24.085 -23.916  -2.139  0.00  0.00    -0.030 C 
ATOM     28  H6  ILE d   1     -24.783 -23.506  -2.884  0.00  0.00     0.043 H 
BRANCH  27  29
ATOM     29  CG1 ILE d   1     -23.983 -25.431  -2.366  0.00  0.00    -0.063 C 
ATOM     30  H7  ILE d   1     -23.642 -25.596  -3.399  0.00  0.00     0.033 H 
ATOM     31  H8  ILE d   1     -24.988 -25.860  -2.239  0.00  0.00     0.033 H 
BRANCH  29  32
ATOM     32  CD1 ILE d   1     -23.052 -26.164  -1.453  0.00  0.00    -0.076 C 
ATOM     33  H12 ILE d   1     -23.059 -27.235  -1.705  0.00  0.00     0.027 H 
ATOM     34  H13 ILE d   1     -23.379 -26.030  -0.411  0.00  0.00     0.027 H 
ATOM     35  H14 ILE d   1     -22.033 -25.766  -1.571  0.00  0.00     0.027 H 
ENDBRANCH  29  32
ENDBRANCH  27  29
BRANCH  27  36
ATOM     36  CG2 ILE d   1     -22.731 -23.252  -2.344  0.00  0.00    -0.071 C 
ATOM     37  H9  ILE d   1     -22.825 -22.169  -2.177  0.00  0.00     0.028 H 
ATOM     38  H10 ILE d   1     -22.384 -23.436  -3.372  0.00  0.00     0.028 H 
ATOM     39  H11 ILE d   1     -22.005 -23.671  -1.631  0.00  0.00     0.028 H 
ENDBRANCH  27  36
ENDBRANCH  17  27
ENDBRANCH  14  17
ENDBRANCH  11  13
BRANCH  11  40
ATOM     40  CB  GLU d   1     -24.367 -19.830   2.128  0.00  0.00    -0.029 C 
ATOM     41  H17 GLU d   1     -24.287 -18.750   2.322  0.00  0.00     0.037 H 
ATOM     42  H18 GLU d   1     -23.557 -20.358   2.652  0.00  0.00     0.037 H 
BRANCH  40  43
ATOM     43  CG  GLU d   1     -25.700 -20.322   2.679  0.00  0.00     0.018 C 
ATOM     44  H19 GLU d   1     -25.762 -21.408   2.513  0.00  0.00     0.049 H 
ATOM     45  H20 GLU d   1     -26.508 -19.820   2.127  0.00  0.00     0.049 H 
BRANCH  43  46
ATOM     46  CD  GLU d   1     -25.899 -20.053   4.170  0.00  0.00     0.172 C 
ATOM     47  OE1 GLU d   1     -25.028 -19.478   4.839  0.00  0.00    -0.648 OA
ATOM     48  OE2 GLU d   1     -26.950 -20.439   4.688  0.00  0.00    -0.648 OA
ENDBRANCH  43  46
ENDBRANCH  40  43
ENDBRANCH  11  40
ENDBRANCH   8  11
ENDBRANCH   5   7
BRANCH   5  49
ATOM     49  CB  SER d   1     -21.721 -17.028  -1.839  0.00  0.00     0.044 C 
ATOM     50  H23 SER d   1     -21.994 -17.957  -2.361  0.00  0.00     0.077 H 
ATOM     51  H24 SER d   1     -20.676 -16.772  -2.068  0.00  0.00     0.077 H 
BRANCH  49  52
ATOM     52  OG  SER d   1     -22.544 -16.000  -2.290  0.00  0.00    -0.398 OA
ATOM     53  H25 SER d   1     -23.450 -16.215  -2.102  0.00  0.00     0.209 HD
ENDBRANCH  49  52
ENDBRANCH   5  49
ENDBRANCH   1   5
BRANCH   3  54
ATOM     54  CA  THR d   1     -20.587 -14.345   1.744  0.00  0.00     0.113 C 
ATOM     55  H27 THR d   1     -21.490 -13.726   1.635  0.00  0.00     0.091 H 
BRANCH  54  56
ATOM     56  C   THR d   1     -19.357 -13.530   1.361  0.00  0.00     0.243 C 
ATOM     57  O   THR d   1     -18.274 -14.091   1.219  0.00  0.00    -0.271 OA
ATOM     58  N   GLU d   1     -19.510 -12.213   1.210  0.00  0.00    -0.346 N 
ATOM     59  H33 GLU d   1     -20.426 -11.816   1.273  0.00  0.00     0.163 HD
BRANCH  58  60
ATOM     60  CA  GLU d   1     -18.370 -11.341   0.955  0.00  0.00     0.090 C 
ATOM     61  H34 GLU d   1     -17.691 -11.841   0.248  0.00  0.00     0.087 H 
BRANCH  60  62
ATOM     62  C   GLU d   1     -17.622 -11.068   2.252  0.00  0.00     0.241 C 
ATOM     63  O   GLU d   1     -18.227 -10.709   3.266  0.00  0.00    -0.271 OA
ATOM     64  N   ILE d   1     -16.314 -11.243   2.200  0.00  0.00    -0.344 N 
ATOM     65  H39 ILE d   1     -15.913 -11.460   1.310  0.00  0.00     0.163 HD
BRANCH  64  66
ATOM     66  CA  ILE d   1     -15.409 -11.145   3.338  0.00  0.00     0.099 C 
ATOM     67  H40 ILE d   1     -15.985 -10.915   4.247  0.00  0.00     0.090 H 
BRANCH  66  68
ATOM     68  C   ILE d   1     -14.373 -10.047   3.091  0.00  0.00     0.197 C 
ATOM     69  O   ILE d   1     -13.863  -9.420   4.040  0.00  0.00    -0.646 OA
ATOM     70  OXT ILE d   1     -13.982  -9.814   1.919  0.00  0.00    -0.646 OA
ENDBRANCH  66  68
BRANCH  66  71
ATOM     71  CB  ILE d   1     -14.657 -12.495   3.516  0.00  0.00    -0.029 C 
ATOM     72  H41 ILE d   1     -14.066 -12.663   2.604  0.00  0.00     0.043 H 
BRANCH  71  73
ATOM     73  CG1 ILE d   1     -15.629 -13.677   3.642  0.00  0.00    -0.063 C 
ATOM     74  H42 ILE d   1     -15.050 -14.606   3.527  0.00  0.00     0.033 H 
ATOM     75  H43 ILE d   1     -16.364 -13.600   2.827  0.00  0.00     0.033 H 
BRANCH  73  76
ATOM     76  CD1 ILE d   1     -16.368 -13.756   4.915  0.00  0.00    -0.076 C 
ATOM     77  H47 ILE d   1     -17.032 -14.633   4.900  0.00  0.00     0.027 H 
ATOM     78  H48 ILE d   1     -16.969 -12.844   5.047  0.00  0.00     0.027 H 
ATOM     79  H49 ILE d   1     -15.655 -13.850   5.748  0.00  0.00     0.027 H 
ENDBRANCH  73  76
ENDBRANCH  71  73
BRANCH  71  80
ATOM     80  CG2 ILE d   1     -13.679 -12.413   4.674  0.00  0.00    -0.070 C 
ATOM     81  H44 ILE d   1     -13.011 -11.551   4.529  0.00  0.00     0.028 H 
ATOM     82  H45 ILE d   1     -13.082 -13.336   4.716  0.00  0.00     0.028 H 
ATOM     83  H46 ILE d   1     -14.235 -12.292   5.616  0.00  0.00     0.028 H 
ENDBRANCH  71  80
ENDBRANCH  66  71
ENDBRANCH  64  66
ENDBRANCH  60  62
BRANCH  60  84
ATOM     84  CB  GLU d   1     -18.834 -10.021   0.345  0.00  0.00    -0.029 C 
ATOM     85  H35 GLU d   1     -19.404  -9.467   1.105  0.00  0.00     0.037 H 
ATOM     86  H36 GLU d   1     -19.486 -10.243  -0.512  0.00  0.00     0.037 H 
BRANCH  84  87
ATOM     87  CG  GLU d   1     -17.675  -9.131  -0.141  0.00  0.00     0.018 C 
ATOM     88  H37 GLU d   1     -17.123  -9.672  -0.924  0.00  0.00     0.049 H 
ATOM     89  H38 GLU d   1     -17.006  -8.933   0.709  0.00  0.00     0.049 H 
BRANCH  87  90
ATOM     90  CD  GLU d   1     -18.138  -7.802  -0.709  0.00  0.00     0.172 C 
ATOM     91  OE1 GLU d   1     -19.294  -7.729  -1.209  0.00  0.00    -0.648 OA
ATOM     92  OE2 GLU d   1     -17.353  -6.822  -0.649  0.00  0.00    -0.648 OA
ENDBRANCH  87  90
ENDBRANCH  84  87
ENDBRANCH  60  84
ENDBRANCH  58  60
ENDBRANCH  54  56
BRANCH  54  93
ATOM     93  CB  THR d   1     -20.436 -14.788   3.205  0.00  0.00     0.060 C 
ATOM     94  H28 THR d   1     -19.499 -15.354   3.308  0.00  0.00     0.086 H 
BRANCH  93  95
ATOM     95  OG1 THR d   1     -21.533 -15.624   3.604  0.00  0.00    -0.393 OA
ATOM     96  H29 THR d   1     -22.346 -15.142   3.513  0.00  0.00     0.210 HD
ENDBRANCH  93  95
BRANCH  93  97
ATOM     97  CG2 THR d   1     -20.386 -13.573   4.113  0.00  0.00    -0.050 C 
ATOM     98  H30 THR d   1     -20.278 -13.900   5.158  0.00  0.00     0.031 H 
ATOM     99  H31 THR d   1     -21.316 -12.995   4.004  0.00  0.00     0.031 H 
ATOM    100  H32 THR d   1     -19.528 -12.943   3.835  0.00  0.00     0.031 H 
ENDBRANCH  93  97
ENDBRANCH  54  93
ENDBRANCH   3  54
TORSDOF 32
