REMARK  7 active torsions:
REMARK  status: ('A' for Active; 'I' for Inactive)
REMARK    1  A    between atoms: C13_10  and  C12_9 
REMARK    2  A    between atoms: C14_11  and  C20_15 
REMARK    3  A    between atoms: C19_14  and  C15_12 
REMARK    4  A    between atoms: C16_13  and  C19_14 
REMARK    5  A    between atoms: C19_14  and  O22_22 
REMARK    6  A    between atoms: C20_15  and  O23_23 
REMARK    7  A    between atoms: C20_15  and  P26_26 
ROOT
ATOM      1  C1  AY5 d   1       0.741 -14.013 -22.949  0.00  0.00    -0.082 A 
ATOM      2  C2  AY5 d   1       2.018 -14.487 -22.742  0.00  0.00    -0.072 A 
ATOM      3  C10 AY5 d   1       2.482 -14.305 -25.067  0.00  0.00    -0.063 A 
ATOM      4  C13 AY5 d   1       2.903 -14.643 -23.794  0.00  0.00    -0.025 A 
ATOM      5  C15 AY5 d   1       1.202 -13.826 -25.289  0.00  0.00    -0.024 A 
ATOM      6  C5  AY5 d   1       0.338 -13.689 -24.226  0.00  0.00    -0.074 A 
ATOM      7  H1  AY5 d   1       0.059 -13.896 -22.114  0.00  0.00     0.083 H 
ATOM      8  H2  AY5 d   1       2.335 -14.742 -21.737  0.00  0.00     0.084 H 
ATOM      9  H7  AY5 d   1       3.163 -14.417 -25.903  0.00  0.00     0.085 H 
ATOM     10  H12 AY5 d   1      -0.668 -13.323 -24.395  0.00  0.00     0.084 H 
ENDROOT
BRANCH   4  11
ATOM     11  C12 AY5 d   1       4.223 -15.183 -23.541  0.00  0.00    -0.026 A 
ATOM     12  C3  AY5 d   1       4.350 -16.276 -22.707  0.00  0.00    -0.072 A 
ATOM     13  C6  AY5 d   1       5.588 -16.808 -22.424  0.00  0.00    -0.073 A 
ATOM     14  H3  AY5 d   1       3.464 -16.721 -22.269  0.00  0.00     0.084 H 
ATOM     15  C14 AY5 d   1       6.716 -16.254 -22.994  0.00  0.00    -0.016 A 
ATOM     16  H13 AY5 d   1       5.676 -17.658 -21.757  0.00  0.00     0.084 H 
ATOM     17  C7  AY5 d   1       6.609 -15.164 -23.835  0.00  0.00    -0.073 A 
ATOM     18  C4  AY5 d   1       5.363 -14.629 -24.095  0.00  0.00    -0.072 A 
ATOM     19  H4  AY5 d   1       7.495 -14.732 -24.287  0.00  0.00     0.084 H 
ATOM     20  H11 AY5 d   1       5.277 -13.763 -24.742  0.00  0.00     0.084 H 
BRANCH  15  21
ATOM     21  C20 AY5 d   1       8.028 -16.879 -22.685  0.00  0.00     0.168 C 
ATOM     22  H10 AY5 d   1       7.853 -17.724 -22.002  0.00  0.00     0.113 H 
BRANCH  21  23
ATOM     23  O23 AY5 d   1       8.612 -17.318 -23.896  0.00  0.00    -0.377 OA
ATOM     24  H15 AY5 d   1       8.008 -17.897 -24.346  0.00  0.00     0.211 HD
ENDBRANCH  21  23
BRANCH  21  25
ATOM     25  P26 AY5 d   1       9.312 -15.805 -21.988  0.00  0.00     0.293 P 
ATOM     26  O21 AY5 d   1       9.817 -14.763 -22.949  0.00  0.00    -0.638 OA
ATOM     27  O24 AY5 d   1      10.437 -16.928 -21.654  0.00  0.00    -0.638 OA
ATOM     28  O25 AY5 d   1       8.683 -15.205 -20.632  0.00  0.00    -0.638 OA
ENDBRANCH  21  25
ENDBRANCH  15  21
ENDBRANCH   4  11
BRANCH   5  29
ATOM     29  C19 AY5 d   1       0.713 -13.465 -26.655  0.00  0.00     0.086 C 
ATOM     30  H9  AY5 d   1      -0.301 -13.049 -26.559  0.00  0.00     0.098 H 
BRANCH  29  31
ATOM     31  C16 AY5 d   1       1.557 -12.446 -27.350  0.00  0.00    -0.024 A 
ATOM     32  C8  AY5 d   1       1.584 -11.156 -26.853  0.00  0.00    -0.072 A 
ATOM     33  C9  AY5 d   1       2.360 -10.194 -27.461  0.00  0.00    -0.060 A 
ATOM     34  H5  AY5 d   1       0.992 -10.901 -25.981  0.00  0.00     0.084 H 
ATOM     35  C17 AY5 d   1       3.105 -10.537 -28.569  0.00  0.00     0.055 A 
ATOM     36  H6  AY5 d   1       2.385  -9.182 -27.074  0.00  0.00     0.086 H 
ATOM     37  C18 AY5 d   1       3.086 -11.818 -29.080  0.00  0.00     0.056 A 
ATOM     38 CL1  AY5 d   1       4.069  -9.334 -29.323  0.00  0.00    -0.083 Cl
ATOM     39  C11 AY5 d   1       2.310 -12.776 -28.465  0.00  0.00    -0.051 A 
ATOM     40 CL2  AY5 d   1       4.040 -12.222 -30.475  0.00  0.00    -0.083 Cl
ATOM     41  H8  AY5 d   1       2.289 -13.788 -28.854  0.00  0.00     0.087 H 
ENDBRANCH  29  31
BRANCH  29  42
ATOM     42  O22 AY5 d   1       0.650 -14.663 -27.418  0.00  0.00    -0.386 OA
ATOM     43  H14 AY5 d   1       0.111 -15.299 -26.963  0.00  0.00     0.210 HD
ENDBRANCH  29  42
ENDBRANCH   5  29
TORSDOF 7
