REMARK  4 active torsions:
REMARK  status: ('A' for Active; 'I' for Inactive)
REMARK    1  A    between atoms: C14_7  and  C15_10 
REMARK    2  A    between atoms: C14_7  and  N7_13 
REMARK    3  A    between atoms: C15_10  and  C16_8 
REMARK    4  A    between atoms: C16_8  and  N17_12 
ROOT
ATOM      1  C2  B0K d   1      -5.205 -46.144   4.889  0.00  0.00     0.105 A 
ATOM      2  C3  B0K d   1      -5.096 -46.267   6.255  0.00  0.00     0.085 A 
ATOM      3  C4  B0K d   1      -5.776 -45.334   7.094  0.00  0.00     0.059 A 
ATOM      4  C5  B0K d   1      -6.538 -44.311   6.538  0.00  0.00     0.049 A 
ATOM      5  C6  B0K d   1      -6.644 -44.191   5.149  0.00  0.00     0.049 A 
ATOM      6  N9  B0K d   1      -4.473 -47.143   4.324  0.00  0.00    -0.240 NA
ATOM      7  C1  B0K d   1      -5.984 -45.098   4.320  0.00  0.00     0.060 A 
ATOM      8  C8  B0K d   1      -3.937 -47.854   5.299  0.00  0.00     0.067 A 
ATOM      9  N7  B0K d   1      -4.287 -47.352   6.472  0.00  0.00    -0.338 N 
ATOM     10 BR1  B0K d   1      -5.676 -45.439   9.030  0.00  0.00    -0.047 Br
ATOM     11 BR2  B0K d   1      -7.451 -43.054   7.711  0.00  0.00    -0.048 Br
ATOM     12 BR3  B0K d   1      -7.714 -42.758   4.389  0.00  0.00    -0.048 Br
ATOM     13 BR4  B0K d   1      -6.119 -44.950   2.386  0.00  0.00    -0.047 Br
ATOM     14  H7  B0K d   1      -3.300 -48.726   5.158  0.00  0.00     0.143 H 
ENDROOT
BRANCH   9  15
ATOM     15  C14 B0K d   1      -3.874 -47.910   7.751  0.00  0.00     0.002 C 
ATOM     16  H1  B0K d   1      -4.772 -48.071   8.366  0.00  0.00     0.065 H 
ATOM     17  H2  B0K d   1      -3.379 -48.875   7.566  0.00  0.00     0.065 H 
BRANCH  15  18
ATOM     18  C15 B0K d   1      -2.911 -47.015   8.528  0.00  0.00    -0.028 C 
ATOM     19  H5  B0K d   1      -3.265 -45.975   8.473  0.00  0.00     0.037 H 
ATOM     20  H6  B0K d   1      -1.911 -47.087   8.076  0.00  0.00     0.037 H 
BRANCH  18  21
ATOM     21  C16 B0K d   1      -2.825 -47.434   9.995  0.00  0.00     0.081 C 
ATOM     22  H3  B0K d   1      -1.774 -47.638  10.250  0.00  0.00     0.075 H 
ATOM     23  H4  B0K d   1      -3.422 -48.346  10.144  0.00  0.00     0.075 H 
BRANCH  21  24
ATOM     24  N17 B0K d   1      -3.330 -46.388  10.867  0.00  0.00    -0.079 N 
ATOM     25  H8  B0K d   1      -3.262 -46.689  11.827  0.00  0.00     0.274 HD
ATOM     26  H9  B0K d   1      -4.294 -46.199  10.642  0.00  0.00     0.274 HD
ATOM     27  H10 B0K d   1      -2.784 -45.550  10.738  0.00  0.00     0.274 HD
ENDBRANCH  21  24
ENDBRANCH  18  21
ENDBRANCH  15  18
ENDBRANCH   9  15
TORSDOF 4
