REMARK  8 active torsions:
REMARK  status: ('A' for Active; 'I' for Inactive)
REMARK    1  A    between atoms: N_1  and  CA_2 
REMARK    2  A    between atoms: CA_2  and  C_3 
REMARK    3  A    between atoms: CA_2  and  CB_5 
REMARK       I    between atoms: C_3  and  N_6 
REMARK    4  A    between atoms: N_6  and  CA_7 
REMARK    5  A    between atoms: CA_7  and  C_8 
REMARK    6  A    between atoms: CA_7  and  CB_10 
REMARK    7  A    between atoms: CB_10  and  CG_11 
REMARK    8  A    between atoms: CG_11  and  CD_12 
REMARK       I    between atoms: CD_12  and  NE2_14 
ROOT
ATOM      1  CA  GLN d   1      24.617  17.201  -4.680  0.00  0.00     0.096 C 
ATOM      2  H9  GLN d   1      23.888  17.111  -5.499  0.00  0.00     0.089 H 
ENDROOT
BRANCH   1   3
ATOM      3  N   GLN d   1      24.016  16.632  -3.476  0.00  0.00    -0.345 N 
ATOM      4  C   ALA d   1      22.960  15.824  -3.516  0.00  0.00     0.248 C 
ATOM      5  O   ALA d   1      22.495  15.373  -4.563  0.00  0.00    -0.271 OA
ATOM      6  H8  GLN d   1      24.414  16.859  -2.587  0.00  0.00     0.163 HD
BRANCH   4   7
ATOM      7  CA  ALA d   1      22.345  15.460  -2.167  0.00  0.00     0.172 C 
ATOM      8  H4  ALA d   1      22.376  16.353  -1.526  0.00  0.00     0.098 H 
BRANCH   7   9
ATOM      9  N   ALA d   1      20.949  15.053  -2.309  0.00  0.00    -0.067 N 
ATOM     10  H1  ALA d   1      20.573  14.820  -1.403  0.00  0.00     0.275 HD
ATOM     11  H2  ALA d   1      20.893  14.248  -2.913  0.00  0.00     0.275 HD
ATOM     12  H3  ALA d   1      20.417  15.810  -2.709  0.00  0.00     0.275 HD
ENDBRANCH   7   9
BRANCH   7  13
ATOM     13  CB  ALA d   1      23.153  14.362  -1.494  0.00  0.00    -0.042 C 
ATOM     14  H5  ALA d   1      24.200  14.685  -1.395  0.00  0.00     0.030 H 
ATOM     15  H6  ALA d   1      23.107  13.447  -2.103  0.00  0.00     0.030 H 
ATOM     16  H7  ALA d   1      22.736  14.159  -0.496  0.00  0.00     0.030 H 
ENDBRANCH   7  13
ENDBRANCH   4   7
ENDBRANCH   1   3
BRANCH   1  17
ATOM     17  C   GLN d   1      25.887  16.467  -5.098  0.00  0.00     0.196 C 
ATOM     18  O   GLN d   1      26.646  15.962  -4.277  0.00  0.00    -0.646 OA
ATOM     19  OXT GLN d   1      26.203  16.368  -6.281  0.00  0.00    -0.646 OA
ENDBRANCH   1  17
BRANCH   1  20
ATOM     20  CB  GLN d   1      24.917  18.689  -4.457  0.00  0.00    -0.029 C 
ATOM     21  H10 GLN d   1      25.503  18.783  -3.531  0.00  0.00     0.037 H 
ATOM     22  H11 GLN d   1      23.959  19.216  -4.339  0.00  0.00     0.037 H 
BRANCH  20  23
ATOM     23  CG  GLN d   1      25.692  19.367  -5.575  0.00  0.00     0.011 C 
ATOM     24  H12 GLN d   1      25.416  18.896  -6.530  0.00  0.00     0.047 H 
ATOM     25  H13 GLN d   1      26.768  19.225  -5.394  0.00  0.00     0.047 H 
BRANCH  23  26
ATOM     26  CD  GLN d   1      25.407  20.855  -5.667  0.00  0.00     0.215 C 
ATOM     27  OE1 GLN d   1      25.821  21.516  -6.619  0.00  0.00    -0.274 OA
ATOM     28  NE2 GLN d   1      24.690  21.386  -4.682  0.00  0.00    -0.370 N 
ATOM     29  H14 GLN d   1      24.473  22.362  -4.692  0.00  0.00     0.159 HD
ATOM     30  H15 GLN d   1      24.368  20.809  -3.931  0.00  0.00     0.159 HD
ENDBRANCH  23  26
ENDBRANCH  20  23
ENDBRANCH   1  20
TORSDOF 8
