REMARK  3 active torsions:
REMARK  status: ('A' for Active; 'I' for Inactive)
REMARK    1  A    between atoms: C_1  and  O_2 
REMARK    2  A    between atoms: C10_4  and  C11_5 
REMARK    3  A    between atoms: C5_10  and  C6_11 
ROOT
ATOM      1  C10 JSX d   1      25.380 -11.688 -18.451  0.00  0.00     0.041 A 
ATOM      2  C12 JSX d   1      26.203 -12.233 -19.432  0.00  0.00    -0.056 A 
ATOM      3  C6  JSX d   1      25.715 -12.513 -20.709  0.00  0.00    -0.025 A 
ATOM      4  C7  JSX d   1      24.377 -12.230 -20.984  0.00  0.00    -0.072 A 
ATOM      5  C8  JSX d   1      23.553 -11.689 -20.013  0.00  0.00    -0.081 A 
ATOM      6  C9  JSX d   1      24.050 -11.419 -18.752  0.00  0.00    -0.066 A 
ATOM      7  H3  JSX d   1      27.241 -12.444 -19.200  0.00  0.00     0.086 H 
ATOM      8  H7  JSX d   1      23.978 -12.437 -21.971  0.00  0.00     0.084 H 
ATOM      9  H8  JSX d   1      22.515 -11.476 -20.242  0.00  0.00     0.083 H 
ATOM     10  H9  JSX d   1      23.400 -10.996 -17.995  0.00  0.00     0.085 H 
ENDROOT
BRANCH   3  11
ATOM     11  C5  JSX d   1      26.599 -13.110 -21.742  0.00  0.00    -0.026 A 
ATOM     12  C2  JSX d   1      27.129 -12.335 -22.772  0.00  0.00    -0.070 A 
ATOM     13  C1  JSX d   1      27.915 -12.895 -23.763  0.00  0.00    -0.050 A 
ATOM     14  H4  JSX d   1      26.921 -11.271 -22.797  0.00  0.00     0.085 H 
ATOM     15  C   JSX d   1      28.191 -14.253 -23.741  0.00  0.00     0.065 A 
ATOM     16  H2  JSX d   1      28.314 -12.273 -24.556  0.00  0.00     0.087 H 
ATOM     17  C3  JSX d   1      27.685 -15.040 -22.718  0.00  0.00    -0.050 A 
ATOM     18  C4  JSX d   1      26.900 -14.470 -21.733  0.00  0.00    -0.070 A 
ATOM     19  H5  JSX d   1      27.905 -16.101 -22.690  0.00  0.00     0.087 H 
ATOM     20  H6  JSX d   1      26.511 -15.095 -20.937  0.00  0.00     0.085 H 
BRANCH  15  21
ATOM     21  O   JSX d   1      28.944 -14.815 -24.732  0.00  0.00    -0.361 OA
ATOM     22  H1  JSX d   1      29.038 -15.746 -24.568  0.00  0.00     0.217 HD
ENDBRANCH  15  21
ENDBRANCH   3  11
BRANCH   1  23
ATOM     23  C11 JSX d   1      25.933 -11.388 -17.080  0.00  0.00     0.209 C 
ATOM     24  O1  JSX d   1      27.131 -11.018 -17.002  0.00  0.00    -0.644 OA
ATOM     25  O2  JSX d   1      25.164 -11.524 -16.097  0.00  0.00    -0.644 OA
ENDBRANCH   1  23
TORSDOF 3
