REMARK  3 active torsions:
REMARK  status: ('A' for Active; 'I' for Inactive)
REMARK       I    between atoms: C8_15  and  N_1 
REMARK    1  A    between atoms: C1_4  and  C_2 
REMARK    2  A    between atoms: C4_11  and  C3_10 
REMARK    3  A    between atoms: C7_14  and  C8_15 
ROOT
ATOM      1  C10 TVZ d   1     -10.540 -25.233  28.498  0.00  0.00    -0.071 A 
ATOM      2  C4  TVZ d   1     -11.425 -24.431  27.782  0.00  0.00    -0.026 A 
ATOM      3  C5  TVZ d   1     -12.788 -24.660  27.953  0.00  0.00    -0.071 A 
ATOM      4  C6  TVZ d   1     -13.249 -25.652  28.797  0.00  0.00    -0.067 A 
ATOM      5  C7  TVZ d   1     -12.359 -26.453  29.502  0.00  0.00     0.031 A 
ATOM      6  C9  TVZ d   1     -10.996 -26.226  29.344  0.00  0.00    -0.067 A 
ATOM      7  H3  TVZ d   1      -9.473 -25.075  28.390  0.00  0.00     0.084 H 
ATOM      8  H8  TVZ d   1     -13.501 -24.048  27.413  0.00  0.00     0.084 H 
ATOM      9  H9  TVZ d   1     -14.316 -25.807  28.910  0.00  0.00     0.085 H 
ATOM     10  H10 TVZ d   1     -10.284 -26.834  29.890  0.00  0.00     0.085 H 
ENDROOT
BRANCH   2  11
ATOM     11  C3  TVZ d   1     -10.935 -23.366  26.871  0.00  0.00    -0.025 A 
ATOM     12  C11 TVZ d   1     -10.422 -23.671  25.611  0.00  0.00    -0.072 A 
ATOM     13  C12 TVZ d   1      -9.997 -22.667  24.757  0.00  0.00    -0.081 A 
ATOM     14  H4  TVZ d   1     -10.355 -24.706  25.296  0.00  0.00     0.084 H 
ATOM     15  C13 TVZ d   1     -10.072 -21.342  25.149  0.00  0.00    -0.066 A 
ATOM     16  H5  TVZ d   1      -9.604 -22.920  23.779  0.00  0.00     0.083 H 
ATOM     17  C1  TVZ d   1     -10.577 -21.012  26.399  0.00  0.00     0.041 A 
ATOM     18  H6  TVZ d   1      -9.736 -20.560  24.478  0.00  0.00     0.085 H 
ATOM     19  C2  TVZ d   1     -11.000 -22.027  27.249  0.00  0.00    -0.056 A 
ATOM     20  H7  TVZ d   1     -11.389 -21.771  28.228  0.00  0.00     0.086 H 
BRANCH  17  21
ATOM     21  C   TVZ d   1     -10.675 -19.572  26.836  0.00  0.00     0.209 C 
ATOM     22  O   TVZ d   1     -11.173 -19.345  27.963  0.00  0.00    -0.644 OA
ATOM     23  O2  TVZ d   1     -10.257 -18.687  26.051  0.00  0.00    -0.644 OA
ENDBRANCH  17  21
ENDBRANCH   2  11
BRANCH   5  24
ATOM     24  C8  TVZ d   1     -12.854 -27.549  30.400  0.00  0.00     0.249 C 
ATOM     25  N   TVZ d   1     -14.170 -27.717  30.510  0.00  0.00    -0.366 N 
ATOM     26  H1  TVZ d   1     -14.534 -28.438  31.100  0.00  0.00     0.159 HD
ATOM     27  H2  TVZ d   1     -14.794 -27.122  30.003  0.00  0.00     0.159 HD
ATOM     28  O1  TVZ d   1     -12.035 -28.261  31.003  0.00  0.00    -0.268 OA
ENDBRANCH   5  24
TORSDOF 3
