REMARK  3 active torsions:
REMARK  status: ('A' for Active; 'I' for Inactive)
REMARK    1  A    between atoms: N_1  and  C_2 
REMARK    2  A    between atoms: C2_7  and  C1_4 
REMARK    3  A    between atoms: C6_11  and  C7_12 
ROOT
ATOM      1  C2  X6P d   1      12.242 -92.187 150.241  0.00  0.00    -0.008 A 
ATOM      2  C3  X6P d   1      11.564 -91.894 149.062  0.00  0.00    -0.071 A 
ATOM      3  C4  X6P d   1      10.928 -92.901 148.355  0.00  0.00    -0.081 A 
ATOM      4  C5  X6P d   1      10.955 -94.203 148.825  0.00  0.00    -0.066 A 
ATOM      5  C6  X6P d   1      11.618 -94.507 150.009  0.00  0.00     0.041 A 
ATOM      6  C8  X6P d   1      12.269 -93.496 150.707  0.00  0.00    -0.054 A 
ATOM      7  H6  X6P d   1      11.533 -90.874 148.696  0.00  0.00     0.084 H 
ATOM      8  H7  X6P d   1      10.408 -92.669 147.432  0.00  0.00     0.083 H 
ATOM      9  H8  X6P d   1      10.457 -94.989 148.268  0.00  0.00     0.085 H 
ATOM     10  H9  X6P d   1      12.802 -93.731 151.621  0.00  0.00     0.086 H 
ENDROOT
BRANCH   1  11
ATOM     11  C1  X6P d   1      12.945 -91.168 151.040  0.00  0.00     0.044 A 
ATOM     12  N   X6P d   1      14.284 -90.805 150.866  0.00  0.00    -0.360 N 
ATOM     13  C11 X6P d   1      14.623 -89.906 151.846  0.00  0.00    -0.020 A 
ATOM     14  C10 X6P d   1      13.534 -89.682 152.635  0.00  0.00    -0.066 A 
ATOM     15  H5  X6P d   1      15.602 -89.447 151.973  0.00  0.00     0.111 H 
ATOM     16  C9  X6P d   1      12.476 -90.472 152.133  0.00  0.00    -0.055 A 
ATOM     17  H4  X6P d   1      13.488 -89.016 153.495  0.00  0.00     0.085 H 
ATOM     18  H10 X6P d   1      11.467 -90.522 152.539  0.00  0.00     0.087 H 
BRANCH  12  19
ATOM     19  C   X6P d   1      15.207 -91.282 149.836  0.00  0.00    -0.014 C 
ATOM     20  H1  X6P d   1      16.188 -90.804 149.973  0.00  0.00     0.057 H 
ATOM     21  H2  X6P d   1      14.811 -91.027 148.842  0.00  0.00     0.057 H 
ATOM     22  H3  X6P d   1      15.316 -92.374 149.918  0.00  0.00     0.057 H 
ENDBRANCH  12  19
ENDBRANCH   1  11
BRANCH   5  23
ATOM     23  C7  X6P d   1      11.584 -95.895 150.589  0.00  0.00     0.209 C 
ATOM     24  O   X6P d   1      11.311 -96.869 149.829  0.00  0.00    -0.644 OA
ATOM     25  O1  X6P d   1      11.838 -95.983 151.805  0.00  0.00    -0.644 OA
ENDBRANCH   5  23
TORSDOF 3
