REMARK  5 active torsions:
REMARK  status: ('A' for Active; 'I' for Inactive)
REMARK       I    between atoms: N17_23  and  C18_2 
REMARK    1  A    between atoms: C18_2  and  O20_25 
REMARK    2  A    between atoms: O20_25  and  C21_5 
REMARK    3  A    between atoms: C33_11  and  C30_32 
REMARK    4  A    between atoms: N5_16  and  C2_13 
REMARK    5  A    between atoms: C14_22  and  N17_23 
ROOT
ATOM      1  C13 NR7 d   1      46.583 -20.885  30.740  0.00  0.00    -0.056 A 
ATOM      2  C16 NR7 d   1      44.255 -22.427  30.759  0.00  0.00     0.049 A 
ATOM      3  C15 NR7 d   1      45.296 -22.709  31.639  0.00  0.00    -0.030 A 
ATOM      4  C23 NR7 d   1      39.901 -23.615  28.698  0.00  0.00    -0.106 C 
ATOM      5  C24 NR7 d   1      40.486 -24.959  28.925  0.00  0.00    -0.042 C 
ATOM      6  C11 NR7 d   1      44.366 -21.329  29.874  0.00  0.00     0.021 A 
ATOM      7  C12 NR7 d   1      45.540 -20.575  29.884  0.00  0.00    -0.066 A 
ATOM      8  C2  NR7 d   1      39.756 -20.577  28.308  0.00  0.00     0.075 C 
ATOM      9  C3  NR7 d   1      39.238 -21.618  27.290  0.00  0.00    -0.024 C 
ATOM     10  C4  NR7 d   1      39.787 -22.998  27.528  0.00  0.00    -0.104 C 
ATOM     11  C6  NR7 d   1      41.249 -20.616  28.341  0.00  0.00     0.128 A 
ATOM     12  N7  NR7 d   1      42.018 -20.444  27.248  0.00  0.00    -0.350 N 
ATOM     13  C8  NR7 d   1      43.306 -20.648  27.620  0.00  0.00     0.007 A 
ATOM     14  C9  NR7 d   1      43.286 -20.946  28.952  0.00  0.00     0.086 A 
ATOM     15  N10 NR7 d   1      41.974 -20.912  29.402  0.00  0.00    -0.231 NA
ATOM     16  C14 NR7 d   1      46.456 -21.937  31.648  0.00  0.00     0.039 A 
ATOM     17  N22 NR7 d   1      43.109 -23.264  30.735  0.00  0.00    -0.326 N 
ATOM     18  C25 NR7 d   1      41.565 -24.978  30.023  0.00  0.00     0.012 C 
ATOM     19  C26 NR7 d   1      42.716 -24.053  29.710  0.00  0.00     0.222 C 
ATOM     20  O27 NR7 d   1      43.244 -24.034  28.603  0.00  0.00    -0.273 OA
ATOM     21  H1  NR7 d   1      47.501 -20.309  30.705  0.00  0.00     0.086 H 
ATOM     22  H2  NR7 d   1      45.203 -23.541  32.327  0.00  0.00     0.090 H 
ATOM     23  H6  NR7 d   1      39.530 -23.084  29.574  0.00  0.00     0.076 H 
ATOM     24  H7  NR7 d   1      40.939 -25.305  27.985  0.00  0.00     0.039 H 
ATOM     25  H8  NR7 d   1      39.678 -25.646  29.218  0.00  0.00     0.039 H 
ATOM     26  H9  NR7 d   1      45.637 -19.732  29.210  0.00  0.00     0.085 H 
ATOM     27  H11 NR7 d   1      39.417 -20.925  29.295  0.00  0.00     0.085 H 
ATOM     28  H12 NR7 d   1      39.529 -21.295  26.280  0.00  0.00     0.042 H 
ATOM     29  H13 NR7 d   1      38.141 -21.661  27.360  0.00  0.00     0.042 H 
ATOM     30  H14 NR7 d   1      40.126 -23.547  26.651  0.00  0.00     0.076 H 
ATOM     31  H15 NR7 d   1      41.688 -20.202  26.303  0.00  0.00     0.166 HD
ATOM     32  H16 NR7 d   1      44.185 -20.586  26.980  0.00  0.00     0.115 H 
ATOM     33  H18 NR7 d   1      42.537 -23.271  31.555  0.00  0.00     0.169 HD
ATOM     34  H19 NR7 d   1      41.952 -26.003  30.122  0.00  0.00     0.047 H 
ATOM     35  H20 NR7 d   1      41.108 -24.665  30.974  0.00  0.00     0.047 H 
ENDROOT
BRANCH   8  36
ATOM     36  N5  NR7 d   1      39.200 -19.228  28.169  0.00  0.00    -0.340 N 
ATOM     37  C29 NR7 d   1      39.117 -18.453  29.289  0.00  0.00     0.221 C 
ATOM     38  C28 NR7 d   1      38.234 -17.230  29.237  0.00  0.00     0.017 C 
ATOM     39  O39 NR7 d   1      39.711 -18.744  30.318  0.00  0.00    -0.273 OA
ATOM     40  C30 NR7 d   1      37.364 -17.106  28.002  0.00  0.00    -0.019 C 
ATOM     41  H21 NR7 d   1      38.881 -16.342  29.286  0.00  0.00     0.048 H 
ATOM     42  H22 NR7 d   1      37.573 -17.251  30.116  0.00  0.00     0.048 H 
ATOM     43  C31 NR7 d   1      38.238 -17.406  26.791  0.00  0.00    -0.042 C 
ATOM     44  H23 NR7 d   1      36.584 -17.880  28.049  0.00  0.00     0.048 H 
ATOM     45  C32 NR7 d   1      38.733 -18.856  26.817  0.00  0.00    -0.001 C 
ATOM     46  H24 NR7 d   1      39.105 -16.730  26.797  0.00  0.00     0.036 H 
ATOM     47  H25 NR7 d   1      37.652 -17.242  25.875  0.00  0.00     0.036 H 
ATOM     48  H26 NR7 d   1      37.909 -19.523  26.524  0.00  0.00     0.064 H 
ATOM     49  H27 NR7 d   1      39.565 -18.966  26.105  0.00  0.00     0.064 H 
BRANCH  40  50
ATOM     50  C33 NR7 d   1      36.653 -15.764  27.958  0.00  0.00    -0.052 A 
ATOM     51  C34 NR7 d   1      37.219 -14.666  27.314  0.00  0.00    -0.076 A 
ATOM     52  C35 NR7 d   1      36.620 -13.418  27.387  0.00  0.00    -0.081 A 
ATOM     53  H10 NR7 d   1      38.137 -14.789  26.750  0.00  0.00     0.084 H 
ATOM     54  C36 NR7 d   1      35.429 -13.250  28.073  0.00  0.00    -0.062 A 
ATOM     55  H28 NR7 d   1      37.087 -12.568  26.904  0.00  0.00     0.083 H 
ATOM     56  C37 NR7 d   1      34.881 -14.336  28.725  0.00  0.00     0.034 A 
ATOM     57  H29 NR7 d   1      34.937 -12.284  28.098  0.00  0.00     0.086 H 
ATOM     58 CL1  NR7 d   1      33.447 -14.112  29.697  0.00  0.00    -0.084 Cl
ATOM     59  C38 NR7 d   1      35.470 -15.586  28.672  0.00  0.00    -0.056 A 
ATOM     60  H30 NR7 d   1      35.013 -16.425  29.184  0.00  0.00     0.086 H 
ENDBRANCH  40  50
ENDBRANCH   8  36
BRANCH  16  61
ATOM     61  N17 NR7 d   1      47.439 -22.312  32.600  0.00  0.00    -0.303 N 
ATOM     62  C18 NR7 d   1      48.739 -21.912  32.655  0.00  0.00     0.364 C 
ATOM     63  O19 NR7 d   1      49.307 -21.214  31.842  0.00  0.00    -0.238 OA
ATOM     64  H17 NR7 d   1      47.142 -22.945  33.315  0.00  0.00     0.171 HD
BRANCH  62  65
ATOM     65  O20 NR7 d   1      49.323 -22.436  33.744  0.00  0.00    -0.309 OA
BRANCH  65  66
ATOM     66  C21 NR7 d   1      50.738 -22.158  33.914  0.00  0.00     0.015 C 
ATOM     67  H3  NR7 d   1      51.098 -22.638  34.836  0.00  0.00     0.067 H 
ATOM     68  H4  NR7 d   1      50.892 -21.071  33.982  0.00  0.00     0.067 H 
ATOM     69  H5  NR7 d   1      51.296 -22.554  33.053  0.00  0.00     0.067 H 
ENDBRANCH  65  66
ENDBRANCH  62  65
ENDBRANCH  16  61
TORSDOF 5
