REMARK  8 active torsions:
REMARK  status: ('A' for Active; 'I' for Inactive)
REMARK       I    between atoms: N9_20  and  C19_5 
REMARK    1  A    between atoms: C19_5  and  O21_26 
REMARK    2  A    between atoms: O21_26  and  C22_6 
REMARK    3  A    between atoms: N12_22  and  C11_9 
REMARK    4  A    between atoms: C6_17  and  N9_20 
REMARK       I    between atoms: C29_31  and  N12_22 
REMARK    5  A    between atoms: C26_28  and  C28_30 
REMARK    6  A    between atoms: C39_39  and  C29_31 
REMARK    7  A    between atoms: N37_37  and  C35_35 
REMARK    8  A    between atoms: C38_38  and  N42_42 
ROOT
ATOM      1  C18 QEY d   1      43.107 -24.202  29.833  0.00  0.00     0.226 C 
ATOM      2  C17 QEY d   1      42.587 -21.141  29.030  0.00  0.00    -0.046 A 
ATOM      3  C16 QEY d   1      43.956 -21.180  28.780  0.00  0.00    -0.020 A 
ATOM      4  C15 QEY d   1      44.375 -20.966  27.466  0.00  0.00    -0.055 A 
ATOM      5  C23 QEY d   1      39.750 -22.531  27.572  0.00  0.00    -0.041 C 
ATOM      6  C24 QEY d   1      40.526 -23.763  28.037  0.00  0.00    -0.062 C 
ATOM      7  C11 QEY d   1      40.222 -21.209  28.182  0.00  0.00     0.054 C 
ATOM      8  C2  QEY d   1      44.698 -22.570  30.789  0.00  0.00     0.048 A 
ATOM      9  C3  QEY d   1      44.925 -21.533  29.855  0.00  0.00     0.001 A 
ATOM     10  C4  QEY d   1      46.142 -20.847  29.907  0.00  0.00    -0.068 A 
ATOM     11  C5  QEY d   1      47.105 -21.175  30.844  0.00  0.00    -0.056 A 
ATOM     12  C6  QEY d   1      46.864 -22.180  31.783  0.00  0.00     0.039 A 
ATOM     13  C7  QEY d   1      45.667 -22.895  31.734  0.00  0.00    -0.030 A 
ATOM     14  N8  QEY d   1      43.484 -23.310  30.781  0.00  0.00    -0.326 N 
ATOM     15  C10 QEY d   1      41.700 -20.954  27.981  0.00  0.00     0.057 A 
ATOM     16  N13 QEY d   1      42.100 -20.727  26.718  0.00  0.00    -0.263 NA
ATOM     17  C14 QEY d   1      43.425 -20.749  26.484  0.00  0.00     0.003 A 
ATOM     18  C25 QEY d   1      40.587 -23.968  29.562  0.00  0.00    -0.054 C 
ATOM     19  C26 QEY d   1      41.750 -24.848  30.056  0.00  0.00     0.020 C 
ATOM     20  O27 QEY d   1      43.781 -24.435  28.832  0.00  0.00    -0.273 OA
ATOM     21  H1  QEY d   1      42.216 -21.256  30.042  0.00  0.00     0.088 H 
ATOM     22  H2  QEY d   1      45.430 -20.970  27.218  0.00  0.00     0.087 H 
ATOM     23  H6  QEY d   1      38.692 -22.672  27.838  0.00  0.00     0.036 H 
ATOM     24  H7  QEY d   1      39.847 -22.458  26.479  0.00  0.00     0.036 H 
ATOM     25  H8  QEY d   1      41.557 -23.675  27.665  0.00  0.00     0.033 H 
ATOM     26  H9  QEY d   1      40.051 -24.651  27.594  0.00  0.00     0.033 H 
ATOM     27  H10 QEY d   1      40.030 -21.253  29.264  0.00  0.00     0.082 H 
ATOM     28  H11 QEY d   1      46.334 -20.046  29.202  0.00  0.00     0.085 H 
ATOM     29  H12 QEY d   1      48.053 -20.649  30.849  0.00  0.00     0.086 H 
ATOM     30  H13 QEY d   1      45.491 -23.705  32.433  0.00  0.00     0.090 H 
ATOM     31  H14 QEY d   1      42.853 -23.159  31.542  0.00  0.00     0.169 HD
ATOM     32  H17 QEY d   1      43.767 -20.587  25.468  0.00  0.00     0.114 H 
ATOM     33  H18 QEY d   1      39.645 -24.438  29.881  0.00  0.00     0.034 H 
ATOM     34  H19 QEY d   1      40.682 -22.980  30.035  0.00  0.00     0.034 H 
ATOM     35  H20 QEY d   1      41.622 -24.974  31.141  0.00  0.00     0.054 H 
ENDROOT
BRANCH   7  36
ATOM     36  N12 QEY d   1      39.468 -20.098  27.624  0.00  0.00    -0.347 N 
ATOM     37  C29 QEY d   1      39.225 -18.986  28.329  0.00  0.00     0.257 C 
ATOM     38  O30 QEY d   1      39.742 -18.741  29.416  0.00  0.00    -0.267 OA
ATOM     39  H16 QEY d   1      39.122 -20.166  26.688  0.00  0.00     0.163 HD
BRANCH  37  40
ATOM     40  C39 QEY d   1      38.335 -18.034  27.707  0.00  0.00     0.096 A 
ATOM     41  C38 QEY d   1      37.913 -16.879  28.331  0.00  0.00     0.140 A 
ATOM     42  N37 QEY d   1      37.144 -16.213  27.430  0.00  0.00    -0.214 N 
ATOM     43  N41 QEY d   1      37.027 -16.892  26.251  0.00  0.00    -0.177 NA
ATOM     44  C40 QEY d   1      37.731 -17.989  26.434  0.00  0.00     0.041 A 
ATOM     45  H27 QEY d   1      37.835 -18.774  25.686  0.00  0.00     0.119 H 
BRANCH  41  46
ATOM     46  N42 QEY d   1      38.124 -16.456  29.612  0.00  0.00    -0.383 N 
ATOM     47  H28 QEY d   1      38.719 -17.009  30.245  0.00  0.00     0.157 HD
ATOM     48  H29 QEY d   1      37.688 -15.584  29.945  0.00  0.00     0.157 HD
ENDBRANCH  41  46
BRANCH  42  49
ATOM     49  C35 QEY d   1      36.440 -15.005  27.619  0.00  0.00     0.101 A 
ATOM     50  C34 QEY d   1      35.325 -15.027  28.432  0.00  0.00     0.166 A 
ATOM     51  C33 QEY d   1      34.673 -13.855  28.746  0.00  0.00     0.074 A 
ATOM     52  F43 QEY d   1      34.939 -16.176  29.007  0.00  0.00    -0.202 F 
ATOM     53 CL1  QEY d   1      33.332 -13.884  29.847  0.00  0.00    -0.081 Cl
ATOM     54  C32 QEY d   1      35.116 -12.651  28.224  0.00  0.00    -0.059 A 
ATOM     55  C31 QEY d   1      36.249 -12.631  27.419  0.00  0.00    -0.079 A 
ATOM     56  H25 QEY d   1      34.584 -11.732  28.441  0.00  0.00     0.086 H 
ATOM     57  C36 QEY d   1      36.931 -13.803  27.122  0.00  0.00    -0.052 A 
ATOM     58  H24 QEY d   1      36.604 -11.689  27.018  0.00  0.00     0.083 H 
ATOM     59  H26 QEY d   1      37.829 -13.781  26.515  0.00  0.00     0.087 H 
ENDBRANCH  42  49
ENDBRANCH  37  40
ENDBRANCH   7  36
BRANCH  19  60
ATOM     60  C28 QEY d   1      41.706 -26.240  29.423  0.00  0.00    -0.065 C 
ATOM     61  H21 QEY d   1      42.549 -26.840  29.797  0.00  0.00     0.028 H 
ATOM     62  H22 QEY d   1      41.779 -26.148  28.329  0.00  0.00     0.028 H 
ATOM     63  H23 QEY d   1      40.759 -26.733  29.687  0.00  0.00     0.028 H 
ENDBRANCH  19  60
BRANCH  12  64
ATOM     64  N9  QEY d   1      47.769 -22.500  32.826  0.00  0.00    -0.303 N 
ATOM     65  C19 QEY d   1      49.031 -22.027  32.994  0.00  0.00     0.364 C 
ATOM     66  O20 QEY d   1      49.642 -21.331  32.214  0.00  0.00    -0.238 OA
ATOM     67  H15 QEY d   1      47.442 -23.146  33.515  0.00  0.00     0.171 HD
BRANCH  65  68
ATOM     68  O21 QEY d   1      49.535 -22.493  34.146  0.00  0.00    -0.309 OA
BRANCH  68  69
ATOM     69  C22 QEY d   1      50.887 -22.075  34.461  0.00  0.00     0.015 C 
ATOM     70  H3  QEY d   1      51.192 -22.515  35.422  0.00  0.00     0.067 H 
ATOM     71  H4  QEY d   1      50.925 -20.978  34.532  0.00  0.00     0.067 H 
ATOM     72  H5  QEY d   1      51.570 -22.415  33.668  0.00  0.00     0.067 H 
ENDBRANCH  68  69
ENDBRANCH  65  68
ENDBRANCH  12  64
TORSDOF 8
