REMARK  30 active torsions:
REMARK  status: ('A' for Active; 'I' for Inactive)
REMARK    1  A    between atoms: C_1  and  CH3_3 
REMARK       I    between atoms: C_1  and  N_4 
REMARK    2  A    between atoms: N_4  and  CA_5 
REMARK    3  A    between atoms: CA_5  and  C_6 
REMARK    4  A    between atoms: CA_5  and  CB_8 
REMARK       I    between atoms: C_6  and  N_9 
REMARK    5  A    between atoms: N_9  and  CA_10 
REMARK    6  A    between atoms: CA_10  and  C_11 
REMARK    7  A    between atoms: CA_10  and  CB_13 
REMARK       I    between atoms: C_11  and  N_20 
REMARK    8  A    between atoms: CB_13  and  CG_14 
REMARK    9  A    between atoms: CG_14  and  CD_15 
REMARK   10  A    between atoms: CD_15  and  NE_16 
REMARK       I    between atoms: NE_16  and  CZ_17 
REMARK       I    between atoms: CZ_17  and  NH1_18 
REMARK   11  A    between atoms: N_20  and  CA_21 
REMARK   12  A    between atoms: CA_21  and  C_22 
REMARK   13  A    between atoms: CA_21  and  CB_24 
REMARK       I    between atoms: C_22  and  N_27 
REMARK   14  A    between atoms: CB_24  and  OG1_25 
REMARK   15  A    between atoms: CB_24  and  CG2_26 
REMARK   16  A    between atoms: N_27  and  CA_28 
REMARK   17  A    between atoms: CA_28  and  C_29 
REMARK   18  A    between atoms: CA_28  and  CB_31 
REMARK       I    between atoms: C_29  and  N_36 
REMARK   19  A    between atoms: CB_31  and  CG_32 
REMARK   20  A    between atoms: CG_32  and  CD_33 
REMARK   21  A    between atoms: N_36  and  CA_37 
REMARK   22  A    between atoms: CA_37  and  C_38 
REMARK   23  A    between atoms: CA_37  and  CB_40 
REMARK       I    between atoms: C_38  and  N_43 
REMARK   24  A    between atoms: CB_40  and  CG1_41 
REMARK   25  A    between atoms: CB_40  and  CG2_42 
REMARK   26  A    between atoms: N_43  and  CA_44 
REMARK   27  A    between atoms: CA_44  and  C_45 
REMARK   28  A    between atoms: CA_44  and  CB_47 
REMARK       I    between atoms: C_45  and  N_55 
REMARK   29  A    between atoms: CB_47  and  CG_48 
REMARK   30  A    between atoms: CZ_53  and  OH_54 
ROOT
ATOM      1  C   THR d   1      34.848 -25.190  22.217  0.00  0.00     0.243 C 
ATOM      2  O   THR d   1      35.571 -25.990  21.626  0.00  0.00    -0.271 OA
ATOM      3  N   GLU d   1      34.801 -25.104  23.543  0.00  0.00    -0.346 N 
ATOM      4  H29 GLU d   1      34.224 -24.404  23.964  0.00  0.00     0.163 HD
ENDROOT
BRANCH   3   5
ATOM      5  CA  GLU d   1      35.567 -26.003  24.404  0.00  0.00     0.090 C 
ATOM      6  H30 GLU d   1      36.120 -26.711  23.769  0.00  0.00     0.087 H 
BRANCH   5   7
ATOM      7  C   GLU d   1      34.630 -26.788  25.317  0.00  0.00     0.241 C 
ATOM      8  O   GLU d   1      33.512 -26.351  25.596  0.00  0.00    -0.271 OA
ATOM      9  N   VAL d   1      35.091 -27.943  25.787  0.00  0.00    -0.346 N 
ATOM     10  H35 VAL d   1      35.992 -28.265  25.497  0.00  0.00     0.163 HD
BRANCH   9  11
ATOM     11  CA  VAL d   1      34.309 -28.750  26.718  0.00  0.00     0.092 C 
ATOM     12  H36 VAL d   1      33.245 -28.633  26.464  0.00  0.00     0.088 H 
BRANCH  11  13
ATOM     13  C   VAL d   1      34.529 -28.291  28.154  0.00  0.00     0.241 C 
ATOM     14  O   VAL d   1      35.665 -28.235  28.625  0.00  0.00    -0.271 OA
ATOM     15  N   TYR d   1      33.438 -27.964  28.843  0.00  0.00    -0.346 N 
ATOM     16  H44 TYR d   1      32.553 -27.966  28.377  0.00  0.00     0.163 HD
BRANCH  15  17
ATOM     17  CA  TYR d   1      33.490 -27.603  30.255  0.00  0.00     0.093 C 
ATOM     18  H45 TYR d   1      34.346 -26.932  30.419  0.00  0.00     0.088 H 
BRANCH  17  19
ATOM     19  C   TYR d   1      33.682 -28.857  31.101  0.00  0.00     0.238 C 
ATOM     20  O   TYR d   1      32.856 -29.769  31.071  0.00  0.00    -0.271 OA
ATOM     21  N   NH2 d   1      34.785 -28.905  31.843  0.00  0.00    -0.368 N 
ATOM     22  H53 NH2 d   1      34.966 -29.702  32.419  0.00  0.00     0.159 HD
ATOM     23  H54 NH2 d   1      35.433 -28.144  31.825  0.00  0.00     0.159 HD
ENDBRANCH  17  19
BRANCH  17  24
ATOM     24  CB  TYR d   1      32.206 -26.867  30.658  0.00  0.00    -0.014 C 
ATOM     25  H46 TYR d   1      31.350 -27.487  30.353  0.00  0.00     0.043 H 
ATOM     26  H47 TYR d   1      32.178 -25.911  30.114  0.00  0.00     0.043 H 
BRANCH  24  27
ATOM     27  CG  TYR d   1      32.062 -26.567  32.138  0.00  0.00    -0.056 A 
ATOM     28  CD1 TYR d   1      33.013 -25.814  32.816  0.00  0.00    -0.074 A 
ATOM     29  CE1 TYR d   1      32.874 -25.532  34.163  0.00  0.00    -0.051 A 
ATOM     30  H48 TYR d   1      33.879 -25.441  32.280  0.00  0.00     0.084 H 
ATOM     31  CZ  TYR d   1      31.768 -25.993  34.848  0.00  0.00     0.065 A 
ATOM     32  H50 TYR d   1      33.630 -24.951  34.678  0.00  0.00     0.087 H 
ATOM     33  CE2 TYR d   1      30.805 -26.731  34.195  0.00  0.00    -0.051 A 
ATOM     34  CD2 TYR d   1      30.952 -27.008  32.847  0.00  0.00    -0.074 A 
ATOM     35  H51 TYR d   1      29.937 -27.093  34.734  0.00  0.00     0.087 H 
ATOM     36  H49 TYR d   1      30.187 -27.580  32.335  0.00  0.00     0.084 H 
BRANCH  31  37
ATOM     37  OH  TYR d   1      31.623 -25.715  36.189  0.00  0.00    -0.361 OA
ATOM     38  H52 TYR d   1      30.822 -25.223  36.325  0.00  0.00     0.217 HD
ENDBRANCH  31  37
ENDBRANCH  24  27
ENDBRANCH  17  24
ENDBRANCH  15  17
ENDBRANCH  11  13
BRANCH  11  39
ATOM     39  CB  VAL d   1      34.678 -30.244  26.633  0.00  0.00    -0.033 C 
ATOM     40  H37 VAL d   1      35.714 -30.367  26.982  0.00  0.00     0.042 H 
BRANCH  39  41
ATOM     41  CG1 VAL d   1      33.764 -31.066  27.538  0.00  0.00    -0.071 C 
ATOM     42  H38 VAL d   1      34.038 -32.129  27.468  0.00  0.00     0.028 H 
ATOM     43  H39 VAL d   1      32.719 -30.935  27.220  0.00  0.00     0.028 H 
ATOM     44  H40 VAL d   1      33.876 -30.727  28.578  0.00  0.00     0.028 H 
ENDBRANCH  39  41
BRANCH  39  45
ATOM     45  CG2 VAL d   1      34.596 -30.734  25.201  0.00  0.00    -0.071 C 
ATOM     46  H41 VAL d   1      35.261 -30.129  24.568  0.00  0.00     0.028 H 
ATOM     47  H42 VAL d   1      33.561 -30.640  24.840  0.00  0.00     0.028 H 
ATOM     48  H43 VAL d   1      34.906 -31.788  25.156  0.00  0.00     0.028 H 
ENDBRANCH  39  45
ENDBRANCH  11  39
ENDBRANCH   9  11
ENDBRANCH   5   7
BRANCH   5  49
ATOM     49  CB  GLU d   1      36.571 -25.216  25.253  0.00  0.00    -0.029 C 
ATOM     50  H31 GLU d   1      37.055 -25.917  25.949  0.00  0.00     0.037 H 
ATOM     51  H32 GLU d   1      36.016 -24.457  25.824  0.00  0.00     0.037 H 
BRANCH  49  52
ATOM     52  CG  GLU d   1      37.660 -24.509  24.459  0.00  0.00     0.018 C 
ATOM     53  H33 GLU d   1      38.168 -23.793  25.121  0.00  0.00     0.049 H 
ATOM     54  H34 GLU d   1      37.191 -23.967  23.625  0.00  0.00     0.049 H 
BRANCH  52  55
ATOM     55  CD  GLU d   1      38.694 -25.465  23.895  0.00  0.00     0.172 C 
ATOM     56  OE1 GLU d   1      38.949 -26.511  24.528  0.00  0.00    -0.648 OA
ATOM     57  OE2 GLU d   1      39.252 -25.173  22.815  0.00  0.00    -0.648 OA
ENDBRANCH  52  55
ENDBRANCH  49  52
ENDBRANCH   5  49
ENDBRANCH   3   5
BRANCH   1  58
ATOM     58  CA  THR d   1      33.944 -24.234  21.437  0.00  0.00     0.113 C 
ATOM     59  H23 THR d   1      33.199 -24.839  20.900  0.00  0.00     0.091 H 
BRANCH  58  60
ATOM     60  N   THR d   1      33.219 -23.318  22.308  0.00  0.00    -0.344 N 
ATOM     61  C   ARG d   1      32.078 -23.662  22.897  0.00  0.00     0.241 C 
ATOM     62  O   ARG d   1      31.574 -24.782  22.792  0.00  0.00    -0.271 OA
ATOM     63  H22 THR d   1      33.591 -22.404  22.467  0.00  0.00     0.163 HD
BRANCH  61  64
ATOM     64  CA  ARG d   1      31.417 -22.586  23.751  0.00  0.00     0.089 C 
ATOM     65  H10 ARG d   1      30.914 -23.083  24.593  0.00  0.00     0.087 H 
BRANCH  64  66
ATOM     66  N   ARG d   1      32.406 -21.662  24.302  0.00  0.00    -0.346 N 
ATOM     67  C   ALA d   1      33.351 -22.084  25.137  0.00  0.00     0.240 C 
ATOM     68  O   ALA d   1      33.475 -23.263  25.457  0.00  0.00    -0.271 OA
ATOM     69  H9  ARG d   1      32.371 -20.696  24.047  0.00  0.00     0.163 HD
BRANCH  67  70
ATOM     70  CA  ALA d   1      34.306 -21.025  25.690  0.00  0.00     0.086 C 
ATOM     71  H5  ALA d   1      35.275 -21.512  25.874  0.00  0.00     0.086 H 
BRANCH  70  72
ATOM     72  N   ALA d   1      34.530 -19.931  24.747  0.00  0.00    -0.348 N 
ATOM     73  C   ACE d   1      35.113 -20.059  23.558  0.00  0.00     0.214 C 
ATOM     74  O   ACE d   1      35.136 -21.146  22.982  0.00  0.00    -0.274 OA
ATOM     75  H4  ALA d   1      34.222 -19.018  25.015  0.00  0.00     0.163 HD
BRANCH  73  76
ATOM     76  CH3 ACE d   1      35.397 -18.768  22.848  0.00  0.00    -0.003 C 
ATOM     77  H1  ACE d   1      35.319 -17.933  23.560  0.00  0.00     0.040 H 
ATOM     78  H2  ACE d   1      34.667 -18.627  22.037  0.00  0.00     0.040 H 
ATOM     79  H3  ACE d   1      36.413 -18.797  22.427  0.00  0.00     0.040 H 
ENDBRANCH  73  76
ENDBRANCH  70  72
BRANCH  70  80
ATOM     80  CB  ALA d   1      33.789 -20.485  27.014  0.00  0.00    -0.049 C 
ATOM     81  H6  ALA d   1      33.626 -21.320  27.712  0.00  0.00     0.030 H 
ATOM     82  H7  ALA d   1      32.840 -19.955  26.848  0.00  0.00     0.030 H 
ATOM     83  H8  ALA d   1      34.528 -19.790  27.440  0.00  0.00     0.030 H 
ENDBRANCH  70  80
ENDBRANCH  67  70
ENDBRANCH  64  66
BRANCH  64  84
ATOM     84  CB  ARG d   1      30.352 -21.833  22.938  0.00  0.00    -0.036 C 
ATOM     85  H11 ARG d   1      30.831 -21.419  22.039  0.00  0.00     0.036 H 
ATOM     86  H12 ARG d   1      29.961 -21.012  23.556  0.00  0.00     0.036 H 
BRANCH  84  87
ATOM     87  CG  ARG d   1      29.173 -22.709  22.496  0.00  0.00    -0.048 C 
ATOM     88  H13 ARG d   1      28.664 -23.098  23.390  0.00  0.00     0.035 H 
ATOM     89  H14 ARG d   1      29.558 -23.549  21.899  0.00  0.00     0.035 H 
BRANCH  87  90
ATOM     90  CD  ARG d   1      28.164 -21.927  21.655  0.00  0.00     0.009 C 
ATOM     91  H15 ARG d   1      27.355 -22.607  21.348  0.00  0.00     0.064 H 
ATOM     92  H16 ARG d   1      28.674 -21.537  20.762  0.00  0.00     0.064 H 
BRANCH  90  93
ATOM     93  NE  ARG d   1      27.585 -20.809  22.393  0.00  0.00    -0.227 N 
ATOM     94  CZ  ARG d   1      26.431 -20.866  23.052  0.00  0.00     0.665 C 
ATOM     95  NH1 ARG d   1      25.718 -21.986  23.054  0.00  0.00    -0.235 N 
ATOM     96  NH2 ARG d   1      25.983 -19.799  23.702  0.00  0.00    -0.235 N 
ATOM     97  H18 ARG d   1      24.825 -22.027  23.565  0.00  0.00     0.174 HD
ATOM     98  H19 ARG d   1      26.058 -22.814  22.544  0.00  0.00     0.174 HD
ATOM     99  H20 ARG d   1      26.533 -18.928  23.703  0.00  0.00     0.174 HD
ATOM    100  H21 ARG d   1      25.085 -19.842  24.205  0.00  0.00     0.174 HD
ATOM    101  H17 ARG d   1      28.103 -19.919  22.404  0.00  0.00     0.177 HD
ENDBRANCH  90  93
ENDBRANCH  87  90
ENDBRANCH  84  87
ENDBRANCH  64  84
ENDBRANCH  61  64
ENDBRANCH  58  60
BRANCH  58 102
ATOM    102  CB  THR d   1      34.780 -23.465  20.391  0.00  0.00     0.060 C 
ATOM    103  H24 THR d   1      35.220 -24.182  19.683  0.00  0.00     0.086 H 
BRANCH 102 104
ATOM    104  OG1 THR d   1      35.829 -22.740  21.046  0.00  0.00    -0.393 OA
ATOM    105  H25 THR d   1      35.450 -22.123  21.661  0.00  0.00     0.210 HD
ENDBRANCH 102 104
BRANCH 102 106
ATOM    106  CG2 THR d   1      33.897 -22.485  19.631  0.00  0.00    -0.050 C 
ATOM    107  H26 THR d   1      34.503 -21.944  18.890  0.00  0.00     0.031 H 
ATOM    108  H27 THR d   1      33.454 -21.767  20.337  0.00  0.00     0.031 H 
ATOM    109  H28 THR d   1      33.096 -23.036  19.117  0.00  0.00     0.031 H 
ENDBRANCH 102 106
ENDBRANCH  58 102
ENDBRANCH   1  58
TORSDOF 30
