REMARK  5 active torsions:
REMARK  status: ('A' for Active; 'I' for Inactive)
REMARK    1  A    between atoms: N1_1  and  C8_6 
REMARK    2  A    between atoms: C3_2  and  C4_4 
REMARK       I    between atoms: C11_25  and  N2_3 
REMARK    3  A    between atoms: C8_6  and  C7_7 
REMARK       I    between atoms: C7_7  and  N_17 
REMARK    4  A    between atoms: N_17  and  C6_8 
REMARK    5  A    between atoms: C12_11  and  C11_25 
ROOT
ATOM      1  N1  71Q d   1      -8.509 -10.618  -2.657  0.00  0.00    -0.060 N 
ATOM      2  N2  71Q d   1      -8.205  -8.249  -4.191  0.00  0.00    -0.343 N 
ATOM      3  C9  71Q d   1      -7.635  -9.541  -2.205  0.00  0.00     0.099 C 
ATOM      4  C10 71Q d   1      -8.141  -8.221  -2.726  0.00  0.00     0.021 C 
ATOM      5  C16 71Q d   1      -8.990  -9.376  -4.703  0.00  0.00     0.021 C 
ATOM      6  C17 71Q d   1      -8.489 -10.675  -4.118  0.00  0.00     0.099 C 
ATOM      7  O1  71Q d   1      -7.477  -6.139  -4.389  0.00  0.00    -0.265 OA
ATOM      8  C11 71Q d   1      -7.778  -7.199  -4.921  0.00  0.00     0.277 C 
ATOM      9  H1  71Q d   1      -9.449 -10.408  -2.360  0.00  0.00     0.280 HD
ATOM     10  H2  71Q d   1      -6.616  -9.716  -2.581  0.00  0.00     0.078 H 
ATOM     11  H3  71Q d   1      -7.622  -9.519  -1.105  0.00  0.00     0.078 H 
ATOM     12  H7  71Q d   1      -9.146  -8.031  -2.321  0.00  0.00     0.067 H 
ATOM     13  H8  71Q d   1      -7.460  -7.419  -2.407  0.00  0.00     0.067 H 
ATOM     14  H12 71Q d   1      -8.899  -9.413  -5.799  0.00  0.00     0.067 H 
ATOM     15  H13 71Q d   1     -10.046  -9.238  -4.427  0.00  0.00     0.067 H 
ATOM     16  H14 71Q d   1      -9.135 -11.498  -4.457  0.00  0.00     0.078 H 
ATOM     17  H15 71Q d   1      -7.459 -10.853  -4.460  0.00  0.00     0.078 H 
ENDROOT
BRANCH   1  18
ATOM     18  C8  71Q d   1      -8.132 -11.901  -2.075  0.00  0.00     0.156 C 
ATOM     19  H4  71Q d   1      -7.758 -11.732  -1.054  0.00  0.00     0.090 H 
ATOM     20  H5  71Q d   1      -7.335 -12.348  -2.688  0.00  0.00     0.090 H 
BRANCH  18  21
ATOM     21  C7  71Q d   1      -9.302 -12.865  -2.014  0.00  0.00     0.248 C 
ATOM     22  N   71Q d   1     -10.508 -12.277  -2.203  0.00  0.00    -0.324 N 
ATOM     23  H16 71Q d   1     -10.435 -11.316  -2.469  0.00  0.00     0.169 HD
ATOM     24  O2  71Q d   1      -9.124 -14.059  -1.795  0.00  0.00    -0.271 OA
BRANCH  22  25
ATOM     25  C6  71Q d   1     -11.846 -12.721  -2.108  0.00  0.00     0.057 A 
ATOM     26  C5  71Q d   1     -12.200 -14.040  -1.815  0.00  0.00    -0.041 A 
ATOM     27  C3  71Q d   1     -13.537 -14.410  -1.662  0.00  0.00     0.050 A 
ATOM     28  H6  71Q d   1     -11.424 -14.789  -1.705  0.00  0.00     0.088 H 
ATOM     29  C2  71Q d   1     -14.526 -13.448  -1.822  0.00  0.00    -0.067 A 
ATOM     30  C1  71Q d   1     -14.197 -12.139  -2.120  0.00  0.00    -0.059 A 
ATOM     31  H18 71Q d   1     -15.568 -13.727  -1.712  0.00  0.00     0.084 H 
ATOM     32  C   71Q d   1     -12.870 -11.781  -2.266  0.00  0.00     0.060 A 
ATOM     33  H17 71Q d   1     -14.977 -11.396  -2.239  0.00  0.00     0.086 H 
ATOM     34 CL   71Q d   1     -12.480 -10.138  -2.686  0.00  0.00    -0.082 Cl
BRANCH  27  35
ATOM     35  C4  71Q d   1     -13.896 -15.822  -1.318  0.00  0.00     0.417 C 
ATOM     36  F   71Q d   1     -13.188 -16.724  -1.998  0.00  0.00    -0.166 F 
ATOM     37  F1  71Q d   1     -13.725 -16.104  -0.027  0.00  0.00    -0.166 F 
ATOM     38  F2  71Q d   1     -15.171 -16.115  -1.563  0.00  0.00    -0.166 F 
ENDBRANCH  27  35
ENDBRANCH  22  25
ENDBRANCH  18  21
ENDBRANCH   1  18
BRANCH   8  39
ATOM     39  C12 71Q d   1      -7.754  -7.254  -6.404  0.00  0.00     0.142 A 
ATOM     40  C13 71Q d   1      -8.007  -6.303  -7.339  0.00  0.00    -0.043 A 
ATOM     41  C14 71Q d   1      -7.699  -6.884  -8.603  0.00  0.00    -0.059 A 
ATOM     42  H9  71Q d   1      -8.374  -5.294  -7.158  0.00  0.00     0.088 H 
ATOM     43  C15 71Q d   1      -7.286  -8.123  -8.368  0.00  0.00     0.020 A 
ATOM     44  H10 71Q d   1      -7.786  -6.403  -9.576  0.00  0.00     0.086 H 
ATOM     45  O   71Q d   1      -7.309  -8.397  -7.019  0.00  0.00    -0.317 OA
ATOM     46  H11 71Q d   1      -6.972  -8.827  -9.137  0.00  0.00     0.123 H 
ENDBRANCH   8  39
TORSDOF 5
