REMARK  3 active torsions:
REMARK  status: ('A' for Active; 'I' for Inactive)
REMARK    1  A    between atoms: CAJ_3  and  SAM_4 
REMARK    2  A    between atoms: SAM_4  and  NAP_7 
REMARK    3  A    between atoms: CAG_10  and  CAA_11 
ROOT
ATOM      1  CAH 72D d   1       0.292   2.589  84.925  0.00  0.00    -0.071 A 
ATOM      2  CAI 72D d   1      -0.447   1.459  85.613  0.00  0.00    -0.059 A 
ATOM      3  CAJ 72D d   1      -1.755   1.477  85.665  0.00  0.00     0.079 A 
ATOM      4  CAK 72D d   1      -2.556   2.636  85.070  0.00  0.00    -0.059 A 
ATOM      5  CAL 72D d   1      -1.912   3.633  84.484  0.00  0.00    -0.071 A 
ATOM      6  CAG 72D d   1      -0.382   3.584  84.402  0.00  0.00    -0.026 A 
ATOM      7  H1  72D d   1       1.374   2.574  84.866  0.00  0.00     0.084 H 
ATOM      8  H2  72D d   1       0.105   0.640  86.060  0.00  0.00     0.085 H 
ATOM      9  H5  72D d   1      -3.639   2.641  85.127  0.00  0.00     0.085 H 
ATOM     10  H6  72D d   1      -2.458   4.472  84.068  0.00  0.00     0.084 H 
ENDROOT
BRANCH   6  11
ATOM     11  CAA 72D d   1       0.457   4.688  83.778  0.00  0.00    -0.026 A 
ATOM     12  CAB 72D d   1       1.188   4.486  82.705  0.00  0.00    -0.072 A 
ATOM     13  CAC 72D d   1       2.024   5.629  82.142  0.00  0.00    -0.082 A 
ATOM     14  H7  72D d   1       1.196   3.514  82.224  0.00  0.00     0.084 H 
ATOM     15  CAD 72D d   1       2.024   6.802  82.742  0.00  0.00    -0.083 A 
ATOM     16  H8  72D d   1       2.618   5.477  81.248  0.00  0.00     0.083 H 
ATOM     17  CAE 72D d   1       1.190   7.021  83.999  0.00  0.00    -0.082 A 
ATOM     18  H9  72D d   1       2.619   7.614  82.340  0.00  0.00     0.083 H 
ATOM     19  CAF 72D d   1       0.467   6.035  84.482  0.00  0.00    -0.072 A 
ATOM     20  H10 72D d   1       1.193   7.986  84.493  0.00  0.00     0.083 H 
ATOM     21  H11 72D d   1      -0.121   6.182  85.381  0.00  0.00     0.084 H 
ENDBRANCH   6  11
BRANCH   3  22
ATOM     22  SAM 72D d   1      -2.537   0.074  86.500  0.00  0.00     0.256 S 
ATOM     23  OAN 72D d   1      -2.162   0.152  87.916  0.00  0.00    -0.201 OA
ATOM     24  OAO 72D d   1      -4.004   0.188  86.490  0.00  0.00    -0.201 OA
BRANCH  22  25
ATOM     25  NAP 72D d   1      -2.044  -1.400  85.800  0.00  0.00    -0.324 N 
ATOM     26  H3  72D d   1      -2.395  -2.265  86.157  0.00  0.00     0.169 HD
ATOM     27  H4  72D d   1      -1.404  -1.399  85.032  0.00  0.00     0.169 HD
ENDBRANCH  22  25
ENDBRANCH   3  22
TORSDOF 3
