REMARK  4 active torsions:
REMARK  status: ('A' for Active; 'I' for Inactive)
REMARK    1  A    between atoms: CAQ_1  and  CAF_2 
REMARK    2  A    between atoms: CAA_7  and  CAG_8 
REMARK    3  A    between atoms: CAJ_11  and  SAM_12 
REMARK    4  A    between atoms: SAM_12  and  NAP_15 
ROOT
ATOM      1  CAG 72E d   1      -0.135   5.765  84.314  0.00  0.00    -0.025 A 
ATOM      2  CAH 72E d   1      -1.521   5.812  84.457  0.00  0.00    -0.071 A 
ATOM      3  CAI 72E d   1      -2.191   4.750  85.064  0.00  0.00    -0.059 A 
ATOM      4  CAJ 72E d   1      -1.484   3.650  85.548  0.00  0.00     0.079 A 
ATOM      5  CAK 72E d   1      -0.109   3.617  85.424  0.00  0.00    -0.059 A 
ATOM      6  CAL 72E d   1       0.558   4.677  84.831  0.00  0.00    -0.071 A 
ATOM      7  H8  72E d   1      -2.076   6.671  84.098  0.00  0.00     0.084 H 
ATOM      8  H9  72E d   1      -3.270   4.780  85.160  0.00  0.00     0.085 H 
ATOM      9  H12 72E d   1       0.448   2.762  85.790  0.00  0.00     0.085 H 
ATOM     10  H13 72E d   1       1.640   4.657  84.769  0.00  0.00     0.084 H 
ENDROOT
BRANCH   1  11
ATOM     11  CAA 72E d   1       0.682   6.926  83.725  0.00  0.00    -0.020 A 
ATOM     12  CAF 72E d   1       1.612   6.827  82.694  0.00  0.00    -0.051 A 
ATOM     13  CAE 72E d   1       2.328   7.954  82.312  0.00  0.00    -0.076 A 
ATOM     14  CAD 72E d   1       2.153   9.160  82.968  0.00  0.00    -0.082 A 
ATOM     15  H4  72E d   1       3.032   7.888  81.490  0.00  0.00     0.084 H 
ATOM     16  CAC 72E d   1       1.261   9.251  84.020  0.00  0.00    -0.082 A 
ATOM     17  H5  72E d   1       2.715  10.033  82.657  0.00  0.00     0.083 H 
ATOM     18  CAB 72E d   1       0.547   8.125  84.402  0.00  0.00    -0.072 A 
ATOM     19  H6  72E d   1       1.121  10.192  84.540  0.00  0.00     0.083 H 
ATOM     20  H7  72E d   1      -0.130   8.185  85.247  0.00  0.00     0.084 H 
BRANCH  12  21
ATOM     21  CAQ 72E d   1       1.856   5.533  81.921  0.00  0.00    -0.050 C 
ATOM     22  H1  72E d   1       2.632   5.701  81.160  0.00  0.00     0.033 H 
ATOM     23  H2  72E d   1       0.923   5.218  81.430  0.00  0.00     0.033 H 
ATOM     24  H3  72E d   1       2.188   4.748  82.616  0.00  0.00     0.033 H 
ENDBRANCH  12  21
ENDBRANCH   1  11
BRANCH   4  25
ATOM     25  SAM 72E d   1      -2.305   2.244  86.366  0.00  0.00     0.256 S 
ATOM     26  OAN 72E d   1      -1.867   2.309  87.930  0.00  0.00    -0.201 OA
ATOM     27  OAO 72E d   1      -3.915   2.436  86.205  0.00  0.00    -0.201 OA
BRANCH  25  28
ATOM     28  NAP 72E d   1      -1.806   0.774  85.667  0.00  0.00    -0.324 N 
ATOM     29  H10 72E d   1      -2.171  -0.092  86.010  0.00  0.00     0.169 HD
ATOM     30  H11 72E d   1      -1.148   0.776  84.914  0.00  0.00     0.169 HD
ENDBRANCH  25  28
ENDBRANCH   4  25
TORSDOF 4
