REMARK  4 active torsions:
REMARK  status: ('A' for Active; 'I' for Inactive)
REMARK    1  A    between atoms: CAQ_2  and  CAK_3 
REMARK    2  A    between atoms: CAG_8  and  CAE_9 
REMARK    3  A    between atoms: CAB_12  and  SAM_13 
REMARK    4  A    between atoms: SAM_13  and  NAP_16 
ROOT
ATOM      1  CAE 72G d   1      17.043  -0.917  80.296  0.00  0.00    -0.026 A 
ATOM      2  CAD 72G d   1      16.816  -1.722  81.309  0.00  0.00    -0.071 A 
ATOM      3  CAC 72G d   1      15.950  -1.245  82.466  0.00  0.00    -0.059 A 
ATOM      4  CAB 72G d   1      15.436  -0.030  82.433  0.00  0.00     0.079 A 
ATOM      5  CAA 72G d   1      15.697   0.903  81.260  0.00  0.00    -0.059 A 
ATOM      6  CAF 72G d   1      16.444   0.482  80.264  0.00  0.00    -0.071 A 
ATOM      7  H6  72G d   1      17.242  -2.719  81.321  0.00  0.00     0.084 H 
ATOM      8  H7  72G d   1      15.757  -1.898  83.310  0.00  0.00     0.085 H 
ATOM      9  H10 72G d   1      15.273   1.901  81.246  0.00  0.00     0.085 H 
ATOM     10  H11 72G d   1      16.634   1.132  79.418  0.00  0.00     0.084 H 
ENDROOT
BRANCH   1  11
ATOM     11  CAG 72G d   1      17.882  -1.352  79.110  0.00  0.00    -0.025 A 
ATOM     12  CAL 72G d   1      17.927  -2.681  78.714  0.00  0.00    -0.059 A 
ATOM     13  CAK 72G d   1      18.693  -3.041  77.608  0.00  0.00     0.002 A 
ATOM     14  H2  72G d   1      17.370  -3.433  79.261  0.00  0.00     0.086 H 
ATOM     15  CAJ 72G d   1      19.395  -2.075  76.907  0.00  0.00    -0.070 A 
ATOM     16  CAI 72G d   1      19.342  -0.753  77.304  0.00  0.00    -0.081 A 
ATOM     17  H3  72G d   1      19.988  -2.357  76.044  0.00  0.00     0.084 H 
ATOM     18  CAH 72G d   1      18.582  -0.389  78.401  0.00  0.00    -0.072 A 
ATOM     19  H4  72G d   1      19.896  -0.000  76.755  0.00  0.00     0.083 H 
ATOM     20  H5  72G d   1      18.534   0.650  78.706  0.00  0.00     0.084 H 
BRANCH  13  21
ATOM     21  CAQ 72G d   1      18.775  -4.498  77.143  0.00  0.00     0.118 C 
ATOM     22  OAR 72G d   1      18.433  -5.359  77.874  0.00  0.00    -0.301 OA
ATOM     23  H1  72G d   1      19.145  -4.737  76.147  0.00  0.00     0.151 H 
ENDBRANCH  13  21
ENDBRANCH   1  11
BRANCH   4  24
ATOM     24  SAM 72G d   1      14.400   0.549  83.792  0.00  0.00     0.256 S 
ATOM     25  OAN 72G d   1      13.484  -0.537  84.174  0.00  0.00    -0.201 OA
ATOM     26  OAO 72G d   1      15.251   0.778  84.976  0.00  0.00    -0.201 OA
BRANCH  24  27
ATOM     27  NAP 72G d   1      13.595   1.957  83.352  0.00  0.00    -0.324 N 
ATOM     28  H8  72G d   1      12.979   2.404  84.000  0.00  0.00     0.169 HD
ATOM     29  H9  72G d   1      13.732   2.348  82.442  0.00  0.00     0.169 HD
ENDBRANCH  24  27
ENDBRANCH   4  24
TORSDOF 4
