REMARK  3 active torsions:
REMARK  status: ('A' for Active; 'I' for Inactive)
REMARK    1  A    between atoms: CAG_10  and  CAE_11 
REMARK    2  A    between atoms: CAB_14  and  SAQ_15 
REMARK    3  A    between atoms: SAQ_15  and  NAT_18 
ROOT
ATOM      1  CAL 72H d   1       0.470   5.958  84.420  0.00  0.00    -0.059 A 
ATOM      2  CAK 72H d   1       1.371   6.831  83.913  0.00  0.00    -0.007 A 
ATOM      3  CAP 72H d   1       1.618   8.032  84.565  0.00  0.00    -0.071 A 
ATOM      4  CAO 72H d   1       2.535   8.927  84.054  0.00  0.00    -0.082 A 
ATOM      5  CAN 72H d   1       3.204   8.615  82.889  0.00  0.00    -0.081 A 
ATOM      6  CAM 72H d   1       2.961   7.414  82.241  0.00  0.00    -0.054 A 
ATOM      7  CAJ 72H d   1       2.039   6.519  82.755  0.00  0.00     0.066 A 
ATOM      8  NAI 72H d   1       1.805   5.360  82.126  0.00  0.00    -0.260 NA
ATOM      9  CAH 72H d   1       0.911   4.479  82.620  0.00  0.00     0.013 A 
ATOM     10  CAG 72H d   1       0.204   4.803  83.767  0.00  0.00    -0.007 A 
ATOM     11  H1  72H d   1      -0.039   6.184  85.350  0.00  0.00     0.086 H 
ATOM     12  H2  72H d   1       1.087   8.268  85.480  0.00  0.00     0.084 H 
ATOM     13  H3  72H d   1       2.728   9.865  84.562  0.00  0.00     0.083 H 
ATOM     14  H4  72H d   1       3.924   9.313  82.478  0.00  0.00     0.083 H 
ATOM     15  H5  72H d   1       3.495   7.175  81.328  0.00  0.00     0.087 H 
ATOM     16  H6  72H d   1       0.747   3.528  82.125  0.00  0.00     0.116 H 
ENDROOT
BRANCH  10  17
ATOM     17  CAE 72H d   1      -0.751   3.799  84.371  0.00  0.00    -0.024 A 
ATOM     18  CAD 72H d   1       0.045   2.628  84.900  0.00  0.00    -0.071 A 
ATOM     19  CAC 72H d   1      -0.544   1.636  85.490  0.00  0.00    -0.059 A 
ATOM     20  H7  72H d   1       1.123   2.618  84.784  0.00  0.00     0.084 H 
ATOM     21  CAB 72H d   1      -2.045   1.658  85.643  0.00  0.00     0.079 A 
ATOM     22  H8  72H d   1       0.034   0.801  85.869  0.00  0.00     0.085 H 
ATOM     23  CAA 72H d   1      -2.767   2.675  85.198  0.00  0.00    -0.059 A 
ATOM     24  CAF 72H d   1      -2.062   3.849  84.508  0.00  0.00    -0.071 A 
ATOM     25  H11 72H d   1      -3.844   2.678  85.320  0.00  0.00     0.085 H 
ATOM     26  H12 72H d   1      -2.627   4.699  84.142  0.00  0.00     0.084 H 
BRANCH  21  27
ATOM     27  SAQ 72H d   1      -2.682   0.194  86.491  0.00  0.00     0.256 S 
ATOM     28  OAR 72H d   1      -4.149   0.179  86.503  0.00  0.00    -0.201 OA
ATOM     29  OAS 72H d   1      -2.302   0.282  87.905  0.00  0.00    -0.201 OA
BRANCH  27  30
ATOM     30  NAT 72H d   1      -1.965  -1.182  85.786  0.00  0.00    -0.324 N 
ATOM     31  H9  72H d   1      -2.195  -2.095  86.124  0.00  0.00     0.169 HD
ATOM     32  H10 72H d   1      -1.314  -1.077  85.034  0.00  0.00     0.169 HD
ENDBRANCH  27  30
ENDBRANCH  21  27
ENDBRANCH  10  17
TORSDOF 3
