REMARK  3 active torsions:
REMARK  status: ('A' for Active; 'I' for Inactive)
REMARK    1  A    between atoms: CAJ_3  and  SAM_4 
REMARK    2  A    between atoms: SAM_4  and  NAP_7 
REMARK    3  A    between atoms: CAG_10  and  CAA_11 
ROOT
ATOM      1  CAH 72D d   1      17.989   5.738  15.532  0.00  0.00    -0.071 A 
ATOM      2  CAI 72D d   1      17.358   4.494  16.116  0.00  0.00    -0.059 A 
ATOM      3  CAJ 72D d   1      16.048   4.434  16.253  0.00  0.00     0.079 A 
ATOM      4  CAK 72D d   1      15.136   5.583  15.847  0.00  0.00    -0.059 A 
ATOM      5  CAL 72D d   1      15.702   6.656  15.339  0.00  0.00    -0.071 A 
ATOM      6  CAG 72D d   1      17.207   6.722  15.164  0.00  0.00    -0.026 A 
ATOM      7  H1  72D d   1      19.065   5.814  15.420  0.00  0.00     0.084 H 
ATOM      8  H2  72D d   1      17.978   3.658  16.420  0.00  0.00     0.085 H 
ATOM      9  H5  72D d   1      14.061   5.519  15.972  0.00  0.00     0.085 H 
ATOM     10  H6  72D d   1      15.088   7.499  15.043  0.00  0.00     0.084 H 
ENDROOT
BRANCH   6  11
ATOM     11  CAA 72D d   1      17.834   7.980  14.611  0.00  0.00    -0.026 A 
ATOM     12  CAB 72D d   1      18.944   7.942  13.910  0.00  0.00    -0.072 A 
ATOM     13  CAC 72D d   1      19.531   9.253  13.400  0.00  0.00    -0.082 A 
ATOM     14  H7  72D d   1      19.433   6.998  13.698  0.00  0.00     0.084 H 
ATOM     15  CAD 72D d   1      18.935  10.394  13.670  0.00  0.00    -0.083 A 
ATOM     16  H8  72D d   1      20.442   9.245  12.813  0.00  0.00     0.083 H 
ATOM     17  CAE 72D d   1      17.656  10.423  14.492  0.00  0.00    -0.082 A 
ATOM     18  H9  72D d   1      19.359  11.322  13.303  0.00  0.00     0.083 H 
ATOM     19  CAF 72D d   1      17.144   9.295  14.934  0.00  0.00    -0.072 A 
ATOM     20  H10 72D d   1      17.170  11.367  14.712  0.00  0.00     0.083 H 
ATOM     21  H11 72D d   1      16.235   9.303  15.525  0.00  0.00     0.084 H 
ENDBRANCH   6  11
BRANCH   3  22
ATOM     22  SAM 72D d   1      15.367   2.937  16.976  0.00  0.00     0.256 S 
ATOM     23  OAN 72D d   1      15.753   2.928  18.378  0.00  0.00    -0.201 OA
ATOM     24  OAO 72D d   1      13.887   2.964  16.897  0.00  0.00    -0.201 OA
BRANCH  22  25
ATOM     25  NAP 72D d   1      16.019   1.584  16.208  0.00  0.00    -0.324 N 
ATOM     26  H3  72D d   1      15.743   0.666  16.493  0.00  0.00     0.169 HD
ATOM     27  H4  72D d   1      16.682   1.700  15.468  0.00  0.00     0.169 HD
ENDBRANCH  22  25
ENDBRANCH   3  22
TORSDOF 3
