REMARK  4 active torsions:
REMARK  status: ('A' for Active; 'I' for Inactive)
REMARK    1  A    between atoms: CAQ_1  and  CAF_2 
REMARK    2  A    between atoms: CAA_7  and  CAG_8 
REMARK    3  A    between atoms: CAJ_11  and  SAM_12 
REMARK    4  A    between atoms: SAM_12  and  NAP_15 
ROOT
ATOM      1  CAG 72E d   1      17.263   4.868  14.842  0.00  0.00    -0.025 A 
ATOM      2  CAH 72E d   1      15.887   4.748  14.941  0.00  0.00    -0.071 A 
ATOM      3  CAI 72E d   1      15.315   3.639  15.538  0.00  0.00    -0.059 A 
ATOM      4  CAJ 72E d   1      16.146   2.634  16.029  0.00  0.00     0.079 A 
ATOM      5  CAK 72E d   1      17.529   2.745  15.914  0.00  0.00    -0.059 A 
ATOM      6  CAL 72E d   1      18.082   3.869  15.330  0.00  0.00    -0.071 A 
ATOM      7  H8  72E d   1      15.251   5.532  14.546  0.00  0.00     0.084 H 
ATOM      8  H9  72E d   1      14.238   3.553  15.623  0.00  0.00     0.085 H 
ATOM      9  H12 72E d   1      18.170   1.952  16.282  0.00  0.00     0.085 H 
ATOM     10  H13 72E d   1      19.159   3.966  15.255  0.00  0.00     0.084 H 
ENDROOT
BRANCH   1  11
ATOM     11  CAA 72E d   1      17.953   6.100  14.249  0.00  0.00    -0.020 A 
ATOM     12  CAF 72E d   1      17.520   7.400  14.534  0.00  0.00    -0.051 A 
ATOM     13  CAE 72E d   1      18.218   8.486  14.017  0.00  0.00    -0.076 A 
ATOM     14  CAD 72E d   1      19.343   8.296  13.235  0.00  0.00    -0.082 A 
ATOM     15  H4  72E d   1      17.877   9.493  14.229  0.00  0.00     0.084 H 
ATOM     16  CAC 72E d   1      19.785   7.013  12.974  0.00  0.00    -0.082 A 
ATOM     17  H5  72E d   1      19.875   9.149  12.829  0.00  0.00     0.083 H 
ATOM     18  CAB 72E d   1      19.093   5.922  13.483  0.00  0.00    -0.072 A 
ATOM     19  H6  72E d   1      20.673   6.858  12.371  0.00  0.00     0.083 H 
ATOM     20  H7  72E d   1      19.449   4.919  13.278  0.00  0.00     0.084 H 
BRANCH  12  21
ATOM     21  CAQ 72E d   1      16.302   7.777  15.383  0.00  0.00    -0.050 C 
ATOM     22  H1  72E d   1      16.213   8.872  15.430  0.00  0.00     0.033 H 
ATOM     23  H2  72E d   1      16.425   7.375  16.400  0.00  0.00     0.033 H 
ATOM     24  H3  72E d   1      15.394   7.354  14.929  0.00  0.00     0.033 H 
ENDBRANCH  12  21
ENDBRANCH   1  11
BRANCH   4  25
ATOM     25  SAM 72E d   1      15.469   1.195  16.845  0.00  0.00     0.256 S 
ATOM     26  OAN 72E d   1      16.003   1.302  18.274  0.00  0.00    -0.201 OA
ATOM     27  OAO 72E d   1      13.918   1.289  16.646  0.00  0.00    -0.201 OA
BRANCH  25  28
ATOM     28  NAP 72E d   1      16.096  -0.137  16.112  0.00  0.00    -0.324 N 
ATOM     29  H10 72E d   1      15.837  -1.050  16.427  0.00  0.00     0.169 HD
ATOM     30  H11 72E d   1      16.736  -0.034  15.351  0.00  0.00     0.169 HD
ENDBRANCH  25  28
ENDBRANCH   4  25
TORSDOF 4
