REMARK  4 active torsions:
REMARK  status: ('A' for Active; 'I' for Inactive)
REMARK    1  A    between atoms: CAQ_2  and  CAK_3 
REMARK    2  A    between atoms: CAG_8  and  CAE_9 
REMARK    3  A    between atoms: CAB_12  and  SAM_13 
REMARK    4  A    between atoms: SAM_13  and  NAP_16 
ROOT
ATOM      1  CAE 72G d   1      17.021   5.057  14.976  0.00  0.00    -0.026 A 
ATOM      2  CAD 72G d   1      17.830   4.090  15.267  0.00  0.00    -0.071 A 
ATOM      3  CAC 72G d   1      17.332   2.839  15.871  0.00  0.00    -0.059 A 
ATOM      4  CAB 72G d   1      16.016   2.657  16.115  0.00  0.00     0.079 A 
ATOM      5  CAA 72G d   1      15.105   3.794  15.782  0.00  0.00    -0.059 A 
ATOM      6  CAF 72G d   1      15.580   4.914  15.281  0.00  0.00    -0.071 A 
ATOM      7  H6  72G d   1      18.889   4.200  15.064  0.00  0.00     0.084 H 
ATOM      8  H7  72G d   1      18.034   2.053  16.123  0.00  0.00     0.085 H 
ATOM      9  H10 72G d   1      14.040   3.695  15.955  0.00  0.00     0.085 H 
ATOM     10  H11 72G d   1      14.908   5.742  15.089  0.00  0.00     0.084 H 
ENDROOT
BRANCH   1  11
ATOM     11  CAG 72G d   1      17.657   6.337  14.423  0.00  0.00    -0.025 A 
ATOM     12  CAL 72G d   1      18.880   6.309  13.790  0.00  0.00    -0.059 A 
ATOM     13  CAK 72G d   1      19.454   7.477  13.301  0.00  0.00     0.002 A 
ATOM     14  H2  72G d   1      19.401   5.366  13.672  0.00  0.00     0.086 H 
ATOM     15  CAJ 72G d   1      18.799   8.644  13.544  0.00  0.00    -0.070 A 
ATOM     16  CAI 72G d   1      17.617   8.695  14.171  0.00  0.00    -0.081 A 
ATOM     17  H3  72G d   1      19.253   9.572  13.216  0.00  0.00     0.084 H 
ATOM     18  CAH 72G d   1      17.058   7.525  14.640  0.00  0.00    -0.072 A 
ATOM     19  H4  72G d   1      17.107   9.642  14.308  0.00  0.00     0.083 H 
ATOM     20  H5  72G d   1      16.125   7.561  15.190  0.00  0.00     0.084 H 
BRANCH  13  21
ATOM     21  CAQ 72G d   1      20.797   7.415  12.555  0.00  0.00     0.118 C 
ATOM     22  OAR 72G d   1      21.602   8.290  12.501  0.00  0.00    -0.301 OA
ATOM     23  H1  72G d   1      21.032   6.490  12.030  0.00  0.00     0.151 H 
ENDBRANCH  13  21
ENDBRANCH   1  11
BRANCH   4  24
ATOM     24  SAM 72G d   1      15.368   1.181  16.886  0.00  0.00     0.256 S 
ATOM     25  OAN 72G d   1      15.885   1.276  18.270  0.00  0.00    -0.201 OA
ATOM     26  OAO 72G d   1      13.903   1.204  16.789  0.00  0.00    -0.201 OA
BRANCH  24  27
ATOM     27  NAP 72G d   1      15.973  -0.082  16.070  0.00  0.00    -0.324 N 
ATOM     28  H8  72G d   1      15.733  -1.014  16.341  0.00  0.00     0.169 HD
ATOM     29  H9  72G d   1      16.586   0.071  15.295  0.00  0.00     0.169 HD
ENDBRANCH  24  27
ENDBRANCH   4  24
TORSDOF 4
