REMARK  3 active torsions:
REMARK  status: ('A' for Active; 'I' for Inactive)
REMARK    1  A    between atoms: CAG_10  and  CAE_11 
REMARK    2  A    between atoms: CAB_14  and  SAQ_15 
REMARK    3  A    between atoms: SAQ_15  and  NAT_18 
ROOT
ATOM      1  CAL 72H d   1       0.202   9.516  84.900  0.00  0.00    -0.059 A 
ATOM      2  CAK 72H d   1       0.781  10.671  84.460  0.00  0.00    -0.007 A 
ATOM      3  CAP 72H d   1       0.236  11.911  84.781  0.00  0.00    -0.071 A 
ATOM      4  CAO 72H d   1       0.832  13.085  84.338  0.00  0.00    -0.082 A 
ATOM      5  CAN 72H d   1       1.968  13.027  83.556  0.00  0.00    -0.081 A 
ATOM      6  CAM 72H d   1       2.510  11.794  83.226  0.00  0.00    -0.054 A 
ATOM      7  CAJ 72H d   1       1.920  10.616  83.680  0.00  0.00     0.066 A 
ATOM      8  NAI 72H d   1       2.462   9.432  83.352  0.00  0.00    -0.260 NA
ATOM      9  CAH 72H d   1       1.906   8.275  83.779  0.00  0.00     0.013 A 
ATOM     10  CAG 72H d   1       0.745   8.312  84.544  0.00  0.00    -0.007 A 
ATOM     11  H1  72H d   1      -0.682   9.553  85.527  0.00  0.00     0.086 H 
ATOM     12  H2  72H d   1      -0.664  11.961  85.383  0.00  0.00     0.084 H 
ATOM     13  H3  72H d   1       0.406  14.045  84.606  0.00  0.00     0.083 H 
ATOM     14  H4  72H d   1       2.434  13.940  83.202  0.00  0.00     0.083 H 
ATOM     15  H5  72H d   1       3.400  11.746  82.609  0.00  0.00     0.087 H 
ATOM     16  H6  72H d   1       2.363   7.325  83.526  0.00  0.00     0.116 H 
ENDROOT
BRANCH  10  17
ATOM     17  CAE 72H d   1       0.121   7.038  85.085  0.00  0.00    -0.024 A 
ATOM     18  CAD 72H d   1       1.049   5.910  85.537  0.00  0.00    -0.071 A 
ATOM     19  CAC 72H d   1       0.541   4.821  86.058  0.00  0.00    -0.059 A 
ATOM     20  H7  72H d   1       2.123   6.011  85.427  0.00  0.00     0.084 H 
ATOM     21  CAB 72H d   1      -0.962   4.712  86.210  0.00  0.00     0.079 A 
ATOM     22  H8  72H d   1       1.186   4.010  86.376  0.00  0.00     0.085 H 
ATOM     23  CAA 72H d   1      -1.771   5.684  85.839  0.00  0.00    -0.059 A 
ATOM     24  CAF 72H d   1      -1.179   6.953  85.240  0.00  0.00    -0.071 A 
ATOM     25  H11 72H d   1      -2.844   5.582  85.959  0.00  0.00     0.085 H 
ATOM     26  H12 72H d   1      -1.823   7.774  84.946  0.00  0.00     0.084 H 
BRANCH  21  27
ATOM     27  SAQ 72H d   1      -1.595   3.188  86.951  0.00  0.00     0.256 S 
ATOM     28  OAR 72H d   1      -3.067   3.228  86.967  0.00  0.00    -0.201 OA
ATOM     29  OAS 72H d   1      -1.218   3.232  88.376  0.00  0.00    -0.201 OA
BRANCH  27  30
ATOM     30  NAT 72H d   1      -0.941   1.817  86.166  0.00  0.00    -0.324 N 
ATOM     31  H9  72H d   1      -1.199   0.899  86.466  0.00  0.00     0.169 HD
ATOM     32  H10 72H d   1      -0.301   1.934  85.407  0.00  0.00     0.169 HD
ENDBRANCH  27  30
ENDBRANCH  21  27
ENDBRANCH  10  17
TORSDOF 3
