REMARK  5 active torsions:
REMARK  status: ('A' for Active; 'I' for Inactive)
REMARK    1  A    between atoms: N18_17  and  C13_2 
REMARK    2  A    between atoms: C14_15  and  C15_3 
REMARK    3  A    between atoms: N04_7  and  C02_6 
REMARK    4  A    between atoms: C05_8  and  N04_7 
REMARK    5  A    between atoms: C11_13  and  C08_11 
ROOT
ATOM      1  C13 73U d   1      -1.337  61.449   2.588  0.00  0.00     0.053 A 
ATOM      2  C17 73U d   1      -0.310  62.947   0.438  0.00  0.00    -0.072 A 
ATOM      3  C11 73U d   1      -1.189  63.523   1.341  0.00  0.00    -0.024 A 
ATOM      4  C12 73U d   1      -1.706  62.775   2.396  0.00  0.00    -0.045 A 
ATOM      5  C14 73U d   1      -0.448  60.872   1.676  0.00  0.00    -0.034 A 
ATOM      6  C16 73U d   1       0.062  61.620   0.616  0.00  0.00    -0.074 A 
ATOM      7  H5  73U d   1       0.081  63.522  -0.394  0.00  0.00     0.084 H 
ATOM      8  H13 73U d   1      -2.409  63.236   3.080  0.00  0.00     0.088 H 
ATOM      9  H14 73U d   1       0.757  61.161  -0.078  0.00  0.00     0.084 H 
ENDROOT
BRANCH   3  10
ATOM     10  C08 73U d   1      -1.646  64.949   1.177  0.00  0.00    -0.026 A 
ATOM     11  C07 73U d   1      -2.905  65.266   1.661  0.00  0.00    -0.070 A 
ATOM     12  C06 73U d   1      -3.412  66.547   1.534  0.00  0.00    -0.057 A 
ATOM     13  H11 73U d   1      -3.500  64.501   2.145  0.00  0.00     0.084 H 
ATOM     14  C05 73U d   1      -2.656  67.531   0.917  0.00  0.00     0.027 A 
ATOM     15  H10 73U d   1      -4.399  66.781   1.917  0.00  0.00     0.086 H 
ATOM     16  C10 73U d   1      -1.399  67.207   0.408  0.00  0.00    -0.057 A 
ATOM     17  C09 73U d   1      -0.887  65.916   0.535  0.00  0.00    -0.070 A 
ATOM     18  H1  73U d   1      -0.812  67.968  -0.093  0.00  0.00     0.086 H 
ATOM     19  H12 73U d   1       0.091  65.672   0.137  0.00  0.00     0.084 H 
BRANCH  14  20
ATOM     20  N04 73U d   1      -3.189  68.847   0.785  0.00  0.00    -0.394 N 
ATOM     21  H9  73U d   1      -3.182  69.290  -0.145  0.00  0.00     0.159 HD
BRANCH  20  22
ATOM     22  C02 73U d   1      -3.731  69.576   1.884  0.00  0.00    -0.021 C 
ATOM     23  H6  73U d   1      -4.077  70.560   1.536  0.00  0.00     0.056 H 
ATOM     24  H7  73U d   1      -2.956  69.711   2.653  0.00  0.00     0.056 H 
ATOM     25  H8  73U d   1      -4.578  69.019   2.311  0.00  0.00     0.056 H 
ENDBRANCH  20  22
ENDBRANCH  14  20
ENDBRANCH   3  10
BRANCH   1  26
ATOM     26  N18 73U d   1      -1.917  60.737   3.692  0.00  0.00    -0.250 N 
ATOM     27  C19 73U d   1      -3.416  60.039   3.591  0.00  0.00     0.086 C 
ATOM     28  C20 73U d   1      -3.630  59.275   4.687  0.00  0.00     0.251 C 
ATOM     29  H15 73U d   1      -4.184  60.825   3.535  0.00  0.00     0.080 H 
ATOM     30  H16 73U d   1      -3.468  59.411   2.690  0.00  0.00     0.080 H 
ATOM     31  O21 73U d   1      -4.585  58.571   4.881  0.00  0.00    -0.271 OA
ATOM     32  N22 73U d   1      -2.470  59.456   5.656  0.00  0.00    -0.235 N 
ATOM     33  S23 73U d   1      -1.399  60.541   4.962  0.00  0.00     0.328 S 
ATOM     34  H17 73U d   1      -2.366  59.009   6.545  0.00  0.00     0.183 HD
ATOM     35  O24 73U d   1      -0.045  60.022   4.943  0.00  0.00    -0.182 OA
ATOM     36  O25 73U d   1      -1.462  61.735   5.758  0.00  0.00    -0.182 OA
ENDBRANCH   1  26
BRANCH   5  37
ATOM     37  C15 73U d   1      -0.004  59.432   1.812  0.00  0.00    -0.049 C 
ATOM     38  H2  73U d   1       0.690  59.184   0.996  0.00  0.00     0.033 H 
ATOM     39  H3  73U d   1      -0.882  58.771   1.760  0.00  0.00     0.033 H 
ATOM     40  H4  73U d   1       0.502  59.294   2.779  0.00  0.00     0.033 H 
ENDBRANCH   5  37
TORSDOF 5
