REMARK  6 active torsions:
REMARK  status: ('A' for Active; 'I' for Inactive)
REMARK    1  A    between atoms: C5_3  and  C4_1 
REMARK    2  A    between atoms: C12_10  and  C16_16 
REMARK       I    between atoms: C16_16  and  N2_13 
REMARK    3  A    between atoms: C3_14  and  C1_20 
REMARK    4  A    between atoms: C1_20  and  O_21 
REMARK    5  A    between atoms: C1_20  and  C2_22 
REMARK    6  A    between atoms: C1_20  and  C_23 
ROOT
ATOM      1  C14 76Z d   1      42.955  17.165  -0.653  0.00  0.00     0.045 A 
ATOM      2  C5  76Z d   1      42.574  18.383   1.424  0.00  0.00     0.018 A 
ATOM      3  C6  76Z d   1      42.913  17.243   2.136  0.00  0.00    -0.062 A 
ATOM      4  C11 76Z d   1      43.027  16.906  -4.210  0.00  0.00     0.015 A 
ATOM      5  C7  76Z d   1      43.266  16.069   1.479  0.00  0.00    -0.048 A 
ATOM      6  C8  76Z d   1      43.293  16.019   0.082  0.00  0.00     0.083 A 
ATOM      7  C9  76Z d   1      44.491  14.760  -1.621  0.00  0.00     0.041 C 
ATOM      8  C10 76Z d   1      43.608  14.940  -2.849  0.00  0.00     0.021 C 
ATOM      9  C12 76Z d   1      42.637  18.210  -3.982  0.00  0.00     0.142 A 
ATOM     10  C13 76Z d   1      42.926  17.240  -2.049  0.00  0.00     0.143 A 
ATOM     11  N1  76Z d   1      42.588  18.381  -2.668  0.00  0.00    -0.223 NA
ATOM     12  N   76Z d   1      43.200  16.331  -3.010  0.00  0.00    -0.337 N 
ATOM     13  O1  76Z d   1      43.640  14.817  -0.487  0.00  0.00    -0.349 OA
ATOM     14  C15 76Z d   1      42.605  18.339   0.040  0.00  0.00    -0.049 A 
ATOM     15  H1  76Z d   1      42.903  17.267   3.220  0.00  0.00     0.085 H 
ATOM     16  H2  76Z d   1      43.168  16.433  -5.181  0.00  0.00     0.115 H 
ATOM     17  H3  76Z d   1      43.522  15.187   2.054  0.00  0.00     0.087 H 
ATOM     18  H4  76Z d   1      45.239  15.565  -1.573  0.00  0.00     0.077 H 
ATOM     19  H5  76Z d   1      45.001  13.786  -1.662  0.00  0.00     0.077 H 
ATOM     20  H6  76Z d   1      42.710  14.314  -2.740  0.00  0.00     0.068 H 
ATOM     21  H7  76Z d   1      44.168  14.625  -3.742  0.00  0.00     0.068 H 
ATOM     22  H10 76Z d   1      42.354  19.230  -0.523  0.00  0.00     0.087 H 
ENDROOT
BRANCH   2  23
ATOM     23  C4  76Z d   1      42.262  19.478   2.039  0.00  0.00    -0.064 C 
ATOM     24  C3  76Z d   1      42.006  20.513   2.564  0.00  0.00    -0.064 C 
BRANCH  24  25
ATOM     25  C1  76Z d   1      41.757  21.794   3.258  0.00  0.00     0.114 C 
BRANCH  25  26
ATOM     26  O   76Z d   1      42.293  21.759   4.581  0.00  0.00    -0.378 OA
ATOM     27  H11 76Z d   1      41.880  21.057   5.070  0.00  0.00     0.211 HD
ENDBRANCH  25  26
BRANCH  25  28
ATOM     28  C2  76Z d   1      40.264  22.035   3.379  0.00  0.00    -0.038 C 
ATOM     29  H12 76Z d   1      39.815  22.068   2.375  0.00  0.00     0.033 H 
ATOM     30  H13 76Z d   1      40.087  22.992   3.891  0.00  0.00     0.033 H 
ATOM     31  H14 76Z d   1      39.807  21.219   3.958  0.00  0.00     0.033 H 
ENDBRANCH  25  28
BRANCH  25  32
ATOM     32  C   76Z d   1      42.438  22.923   2.499  0.00  0.00    -0.038 C 
ATOM     33  H15 76Z d   1      42.040  22.969   1.475  0.00  0.00     0.033 H 
ATOM     34  H16 76Z d   1      43.522  22.739   2.463  0.00  0.00     0.033 H 
ATOM     35  H17 76Z d   1      42.245  23.878   3.010  0.00  0.00     0.033 H 
ENDBRANCH  25  32
ENDBRANCH  24  25
ENDBRANCH   2  23
BRANCH   9  36
ATOM     36  C16 76Z d   1      42.314  19.292  -4.935  0.00  0.00     0.269 C 
ATOM     37  N2  76Z d   1      42.007  20.484  -4.410  0.00  0.00    -0.365 N 
ATOM     38  H8  76Z d   1      41.780  21.251  -5.010  0.00  0.00     0.159 HD
ATOM     39  H9  76Z d   1      42.004  20.608  -3.418  0.00  0.00     0.159 HD
ATOM     40  O2  76Z d   1      42.336  19.069  -6.134  0.00  0.00    -0.266 OA
ENDBRANCH   9  36
TORSDOF 6
