REMARK  1 active torsions:
REMARK  status: ('A' for Active; 'I' for Inactive)
REMARK    1  A    between atoms: C4_9  and  C2_10 
REMARK       I    between atoms: C2_10  and  N1_14 
ROOT
ATOM      1  C6  774 d   1      28.719  55.248  -4.440  0.00  0.00    -0.046 A 
ATOM      2  C5  774 d   1      29.141  54.210  -5.243  0.00  0.00    -0.047 A 
ATOM      3  C15 774 d   1      28.636  53.587   1.197  0.00  0.00    -0.069 A 
ATOM      4  C14 774 d   1      29.368  52.420   1.118  0.00  0.00    -0.044 A 
ATOM      5  C11 774 d   1      28.409  54.219  -0.060  0.00  0.00    -0.036 A 
ATOM      6  C7  774 d   1      28.643  55.052  -3.078  0.00  0.00     0.099 A 
ATOM      7  C16 774 d   1      28.997  53.827  -2.534  0.00  0.00     0.108 A 
ATOM      8  C12 774 d   1      28.980  53.528  -1.114  0.00  0.00     0.042 A 
ATOM      9  C4  774 d   1      29.469  53.030  -4.615  0.00  0.00     0.125 A 
ATOM     10  C10 774 d   1      27.650  55.473  -0.155  0.00  0.00    -0.019 C 
ATOM     11  C9  774 d   1      27.113  55.771  -1.531  0.00  0.00     0.030 C 
ATOM     12  N17 774 d   1      29.409  52.810  -3.294  0.00  0.00    -0.239 NA
ATOM     13  O8  774 d   1      28.220  56.140  -2.341  0.00  0.00    -0.348 OA
ATOM     14  S13 774 d   1      29.774  52.117  -0.520  0.00  0.00    -0.099 SA
ATOM     15  H1  774 d   1      28.451  56.205  -4.874  0.00  0.00     0.087 H 
ATOM     16  H2  774 d   1      29.211  54.318  -6.319  0.00  0.00     0.087 H 
ATOM     17  H3  774 d   1      28.264  53.990   2.138  0.00  0.00     0.085 H 
ATOM     18  H4  774 d   1      29.644  51.791   1.963  0.00  0.00     0.095 H 
ATOM     19  H5  774 d   1      28.312  56.300   0.143  0.00  0.00     0.043 H 
ATOM     20  H6  774 d   1      26.800  55.415   0.541  0.00  0.00     0.043 H 
ATOM     21  H7  774 d   1      26.389  56.598  -1.482  0.00  0.00     0.075 H 
ATOM     22  H8  774 d   1      26.623  54.878  -1.946  0.00  0.00     0.075 H 
ENDROOT
BRANCH   9  23
ATOM     23  C2  774 d   1      29.922  51.889  -5.416  0.00  0.00     0.268 C 
ATOM     24  N1  774 d   1      30.400  50.851  -4.651  0.00  0.00    -0.365 N 
ATOM     25  H9  774 d   1      30.737  50.019  -5.092  0.00  0.00     0.159 HD
ATOM     26  H10 774 d   1      30.411  50.928  -3.654  0.00  0.00     0.159 HD
ATOM     27  O3  774 d   1      29.830  51.889  -6.636  0.00  0.00    -0.266 OA
ENDBRANCH   9  23
TORSDOF 1
