REMARK  12 active torsions:
REMARK  status: ('A' for Active; 'I' for Inactive)
REMARK    1  A    between atoms: C1_1  and  C31_22 
REMARK    2  A    between atoms: C2_2  and  O8_25 
REMARK    3  A    between atoms: C3_3  and  C32_23 
REMARK    4  A    between atoms: C4_4  and  O7_24 
REMARK    5  A    between atoms: O7_24  and  C33_26 
REMARK    6  A    between atoms: O8_25  and  C34_27 
REMARK    7  A    between atoms: C21_29  and  C22_32 
REMARK    8  A    between atoms: C22_32  and  C23_33 
REMARK    9  A    between atoms: C22_32  and  C24_34 
REMARK   10  A    between atoms: C12_36  and  C13_38 
REMARK   11  A    between atoms: C13_38  and  C14_39 
REMARK   12  A    between atoms: C18_43  and  O4_45 
ROOT
ATOM      1  C1  7HG d   1      72.835  51.662  66.857  0.00  0.00     0.045 C 
ATOM      2  C2  7HG d   1      73.449  51.990  65.448  0.00  0.00     0.055 C 
ATOM      3  C3  7HG d   1      72.741  53.137  64.657  0.00  0.00    -0.003 C 
ATOM      4  C4  7HG d   1      73.369  53.295  63.229  0.00  0.00     0.059 C 
ATOM      5  C5  7HG d   1      72.763  54.513  62.571  0.00  0.00    -0.075 C 
ATOM      6  C6  7HG d   1      75.278  61.652  64.736  0.00  0.00    -0.026 C 
ATOM      7  C7  7HG d   1      75.217  62.043  66.220  0.00  0.00    -0.046 C 
ATOM      8  C8  7HG d   1      75.792  60.949  67.115  0.00  0.00     0.025 C 
ATOM      9  N2  7HG d   1      75.186  59.665  66.752  0.00  0.00    -0.177 N 
ATOM     10  N3  7HG d   1      75.365  59.201  65.435  0.00  0.00     0.022 N 
ATOM     11  C9  7HG d   1      74.855  60.197  64.454  0.00  0.00     0.206 C 
ATOM     12  C10 7HG d   1      75.218  59.728  63.047  0.00  0.00     0.292 C 
ATOM     13  O1  7HG d   1      74.365  60.251  62.116  0.00  0.00    -0.320 OA
ATOM     14  O2  7HG d   1      76.139  58.983  62.759  0.00  0.00    -0.263 OA
ATOM     15  C25 7HG d   1      74.656  59.865  60.754  0.00  0.00     0.032 C 
ATOM     16  C26 7HG d   1      73.639  58.833  60.245  0.00  0.00    -0.029 C 
ATOM     17  C27 7HG d   1      73.925  57.533  60.913  0.00  0.00    -0.101 C 
ATOM     18  C28 7HG d   1      73.027  56.675  61.410  0.00  0.00    -0.087 C 
ATOM     19  C29 7HG d   1      73.521  55.470  62.033  0.00  0.00    -0.084 C 
ATOM     20  C30 7HG d   1      73.064  52.748  67.921  0.00  0.00     0.224 C 
ATOM     21  O6  7HG d   1      72.177  53.136  68.662  0.00  0.00    -0.273 OA
ATOM     22  N1  7HG d   1      74.363  53.274  67.949  0.00  0.00    -0.347 N 
ATOM     23  C21 7HG d   1      74.763  54.336  68.878  0.00  0.00     0.092 C 
ATOM     24  C20 7HG d   1      74.926  55.491  67.893  0.00  0.00     0.241 C 
ATOM     25  O5  7HG d   1      75.813  55.541  67.028  0.00  0.00    -0.271 OA
ATOM     26  C11 7HG d   1      74.437  58.938  67.641  0.00  0.00     0.266 C 
ATOM     27  C12 7HG d   1      73.814  57.624  67.162  0.00  0.00     0.095 C 
ATOM     28  O3  7HG d   1      74.227  59.296  68.808  0.00  0.00    -0.269 OA
ATOM     29  N4  7HG d   1      73.989  56.470  67.990  0.00  0.00    -0.346 N 
ATOM     30  H1  7HG d   1      71.751  51.538  66.717  0.00  0.00     0.058 H 
ATOM     31  H2  7HG d   1      73.344  51.074  64.849  0.00  0.00     0.085 H 
ATOM     32  H3  7HG d   1      71.693  52.829  64.531  0.00  0.00     0.047 H 
ATOM     33  H4  7HG d   1      74.454  53.446  63.324  0.00  0.00     0.090 H 
ATOM     34  H5  7HG d   1      71.679  54.612  62.535  0.00  0.00     0.080 H 
ATOM     35  H6  7HG d   1      76.312  61.786  64.385  0.00  0.00     0.036 H 
ATOM     36  H7  7HG d   1      74.610  62.322  64.174  0.00  0.00     0.036 H 
ATOM     37  H8  7HG d   1      74.168  62.218  66.500  0.00  0.00     0.035 H 
ATOM     38  H9  7HG d   1      75.795  62.967  66.370  0.00  0.00     0.035 H 
ATOM     39  H10 7HG d   1      75.567  61.178  68.167  0.00  0.00     0.067 H 
ATOM     40  H11 7HG d   1      76.882  60.894  66.976  0.00  0.00     0.067 H 
ATOM     41  H12 7HG d   1      74.864  58.334  65.318  0.00  0.00     0.307 HD
ATOM     42  H13 7HG d   1      76.347  59.046  65.269  0.00  0.00     0.307 HD
ATOM     43  H14 7HG d   1      73.757  60.182  64.527  0.00  0.00     0.104 H 
ATOM     44  H15 7HG d   1      75.664  59.427  60.712  0.00  0.00     0.075 H 
ATOM     45  H16 7HG d   1      74.616  60.757  60.111  0.00  0.00     0.075 H 
ATOM     46  H17 7HG d   1      73.735  58.721  59.155  0.00  0.00     0.042 H 
ATOM     47  H18 7HG d   1      72.619  59.162  60.491  0.00  0.00     0.042 H 
ATOM     48  H19 7HG d   1      74.973  57.252  61.007  0.00  0.00     0.076 H 
ATOM     49  H20 7HG d   1      71.959  56.879  61.347  0.00  0.00     0.083 H 
ATOM     50  H21 7HG d   1      74.601  55.331  62.066  0.00  0.00     0.083 H 
ATOM     51  H34 7HG d   1      75.043  52.911  67.311  0.00  0.00     0.163 HD
ATOM     52  H35 7HG d   1      73.920  54.543  69.553  0.00  0.00     0.088 H 
ATOM     53  H43 7HG d   1      74.327  57.400  66.215  0.00  0.00     0.088 H 
ATOM     54  H51 7HG d   1      73.335  56.371  68.740  0.00  0.00     0.163 HD
ENDROOT
BRANCH  27  55
ATOM     55  C13 7HG d   1      72.309  57.722  66.841  0.00  0.00    -0.014 C 
ATOM     56  H44 7HG d   1      71.763  57.759  67.795  0.00  0.00     0.043 H 
ATOM     57  H45 7HG d   1      72.023  56.814  66.290  0.00  0.00     0.043 H 
BRANCH  55  58
ATOM     58  C14 7HG d   1      71.888  58.903  66.027  0.00  0.00    -0.053 A 
ATOM     59  C15 7HG d   1      71.860  58.848  64.619  0.00  0.00    -0.077 A 
ATOM     60  C16 7HG d   1      71.483  59.984  63.886  0.00  0.00    -0.080 A 
ATOM     61  H46 7HG d   1      72.128  57.932  64.105  0.00  0.00     0.084 H 
ATOM     62  C17 7HG d   1      71.129  61.158  64.571  0.00  0.00    -0.051 A 
ATOM     63  H47 7HG d   1      71.465  59.956  62.803  0.00  0.00     0.083 H 
ATOM     64  C18 7HG d   1      71.145  61.206  65.963  0.00  0.00     0.066 A 
ATOM     65  H48 7HG d   1      70.840  62.038  64.009  0.00  0.00     0.087 H 
ATOM     66  C19 7HG d   1      71.530  60.077  66.694  0.00  0.00    -0.045 A 
ATOM     67  H49 7HG d   1      71.550  60.113  67.777  0.00  0.00     0.088 H 
BRANCH  64  68
ATOM     68  O4  7HG d   1      70.769  62.363  66.601  0.00  0.00    -0.361 OA
ATOM     69  H50 7HG d   1      71.489  62.678  67.135  0.00  0.00     0.217 HD
ENDBRANCH  64  68
ENDBRANCH  55  58
ENDBRANCH  27  55
BRANCH  23  70
ATOM     70  C22 7HG d   1      75.986  54.118  69.790  0.00  0.00    -0.033 C 
ATOM     71  H36 7HG d   1      76.873  53.942  69.164  0.00  0.00     0.042 H 
BRANCH  70  72
ATOM     72  C23 7HG d   1      76.226  55.377  70.639  0.00  0.00    -0.071 C 
ATOM     73  H37 7HG d   1      77.099  55.220  71.289  0.00  0.00     0.028 H 
ATOM     74  H38 7HG d   1      75.339  55.576  71.258  0.00  0.00     0.028 H 
ATOM     75  H39 7HG d   1      76.412  56.236  69.977  0.00  0.00     0.028 H 
ENDBRANCH  70  72
BRANCH  70  76
ATOM     76  C24 7HG d   1      75.756  52.889  70.667  0.00  0.00    -0.071 C 
ATOM     77  H40 7HG d   1      75.588  52.009  70.028  0.00  0.00     0.028 H 
ATOM     78  H41 7HG d   1      74.874  53.053  71.304  0.00  0.00     0.028 H 
ATOM     79  H42 7HG d   1      76.640  52.719  71.300  0.00  0.00     0.028 H 
ENDBRANCH  70  76
ENDBRANCH  23  70
BRANCH   1  80
ATOM     80  C31 7HG d   1      73.409  50.369  67.452  0.00  0.00    -0.062 C 
ATOM     81  H22 7HG d   1      72.951  50.182  68.434  0.00  0.00     0.028 H 
ATOM     82  H23 7HG d   1      74.498  50.471  67.569  0.00  0.00     0.028 H 
ATOM     83  H24 7HG d   1      73.190  49.527  66.779  0.00  0.00     0.028 H 
ENDBRANCH   1  80
BRANCH   2  84
ATOM     84  O8  7HG d   1      74.855  52.307  65.518  0.00  0.00    -0.389 OA
BRANCH  84  85
ATOM     85  C34 7HG d   1      75.699  51.387  64.819  0.00  0.00     0.005 C 
ATOM     86  H31 7HG d   1      76.748  51.701  64.923  0.00  0.00     0.066 H 
ATOM     87  H32 7HG d   1      75.424  51.373  63.754  0.00  0.00     0.066 H 
ATOM     88  H33 7HG d   1      75.574  50.380  65.243  0.00  0.00     0.066 H 
ENDBRANCH  84  85
ENDBRANCH   2  84
BRANCH   3  89
ATOM     89  C32 7HG d   1      72.721  54.521  65.354  0.00  0.00    -0.068 C 
ATOM     90  H25 7HG d   1      72.282  54.420  66.357  0.00  0.00     0.028 H 
ATOM     91  H26 7HG d   1      72.118  55.223  64.759  0.00  0.00     0.028 H 
ATOM     92  H27 7HG d   1      73.749  54.903  65.441  0.00  0.00     0.028 H 
ENDBRANCH   3  89
BRANCH   4  93
ATOM     93  O7  7HG d   1      73.137  52.102  62.463  0.00  0.00    -0.386 OA
BRANCH  93  94
ATOM     94  C33 7HG d   1      74.070  51.906  61.404  0.00  0.00     0.005 C 
ATOM     95  H28 7HG d   1      73.826  50.977  60.868  0.00  0.00     0.066 H 
ATOM     96  H29 7HG d   1      75.086  51.834  61.819  0.00  0.00     0.066 H 
ATOM     97  H30 7HG d   1      74.018  52.756  60.707  0.00  0.00     0.066 H 
ENDBRANCH  93  94
ENDBRANCH   4  93
TORSDOF 12
