REMARK  6 active torsions:
REMARK  status: ('A' for Active; 'I' for Inactive)
REMARK    1  A    between atoms: C10_23  and  C11_26 
REMARK    2  A    between atoms: C11_26  and  C13_27 
REMARK    3  A    between atoms: C11_26  and  C12_28 
REMARK    4  A    between atoms: C7_30  and  C8_31 
REMARK    5  A    between atoms: C8_31  and  C14_32 
REMARK    6  A    between atoms: C25_36  and  O6_38 
ROOT
ATOM      1  N2  78E d   1       5.720 -19.685  -0.856  0.00  0.00     0.022 N 
ATOM      2  C2  78E d   1       6.335 -19.491   1.996  0.00  0.00    -0.046 C 
ATOM      3  N1  78E d   1       6.459 -20.672  -0.162  0.00  0.00    -0.177 N 
ATOM      4  C4  78E d   1       4.818 -18.900   0.013  0.00  0.00     0.206 C 
ATOM      5  C5  78E d   1       4.210 -17.704  -0.724  0.00  0.00     0.292 C 
ATOM      6  C16 78E d   1       2.198 -16.348  -0.788  0.00  0.00     0.032 C 
ATOM      7  C18 78E d   1       1.634 -17.764  -2.816  0.00  0.00    -0.101 C 
ATOM      8  C15 78E d   1       5.017 -25.032  -5.503  0.00  0.00     0.218 C 
ATOM      9  C17 78E d   1       2.063 -16.399  -2.323  0.00  0.00    -0.029 C 
ATOM     10  C19 78E d   1       2.309 -18.456  -3.748  0.00  0.00    -0.087 C 
ATOM     11  C1  78E d   1       5.520 -18.387   1.308  0.00  0.00    -0.026 C 
ATOM     12  C3  78E d   1       7.257 -20.173   0.969  0.00  0.00     0.025 C 
ATOM     13  C20 78E d   1       1.880 -19.756  -4.205  0.00  0.00    -0.087 C 
ATOM     14  O1  78E d   1       2.967 -17.430  -0.267  0.00  0.00    -0.320 OA
ATOM     15  C21 78E d   1       2.548 -20.463  -5.128  0.00  0.00    -0.103 C 
ATOM     16  O2  78E d   1       4.800 -17.085  -1.601  0.00  0.00    -0.263 OA
ATOM     17  O5  78E d   1       4.673 -25.607  -4.472  0.00  0.00    -0.274 OA
ATOM     18  C22 78E d   1       2.101 -21.823  -5.610  0.00  0.00    -0.050 C 
ATOM     19  C23 78E d   1       3.301 -22.744  -5.828  0.00  0.00    -0.062 C 
ATOM     20  C29 78E d   1       2.955 -24.021  -6.609  0.00  0.00    -0.057 C 
ATOM     21  C30 78E d   1       4.096 -25.055  -6.722  0.00  0.00     0.009 C 
ATOM     22  N4  78E d   1       6.177 -24.370  -5.635  0.00  0.00    -0.347 N 
ATOM     23  C10 78E d   1       7.192 -24.183  -4.598  0.00  0.00     0.092 C 
ATOM     24  C9  78E d   1       6.740 -22.979  -3.763  0.00  0.00     0.241 C 
ATOM     25  O4  78E d   1       6.993 -21.830  -4.127  0.00  0.00    -0.271 OA
ATOM     26  N3  78E d   1       6.039 -23.258  -2.669  0.00  0.00    -0.346 N 
ATOM     27  C7  78E d   1       5.456 -22.294  -1.755  0.00  0.00     0.095 C 
ATOM     28  C6  78E d   1       6.368 -21.962  -0.551  0.00  0.00     0.266 C 
ATOM     29  O3  78E d   1       6.973 -22.856   0.027  0.00  0.00    -0.269 OA
ATOM     30  H1  78E d   1       5.164 -20.141  -1.562  0.00  0.00     0.307 HD
ATOM     31  H2  78E d   1       6.369 -19.052  -1.296  0.00  0.00     0.307 HD
ATOM     32  H3  78E d   1       5.650 -20.238   2.425  0.00  0.00     0.035 H 
ATOM     33  H4  78E d   1       6.945 -19.049   2.798  0.00  0.00     0.035 H 
ATOM     34  H5  78E d   1       3.997 -19.566   0.316  0.00  0.00     0.104 H 
ATOM     35  H6  78E d   1       1.192 -16.386  -0.345  0.00  0.00     0.075 H 
ATOM     36  H7  78E d   1       2.686 -15.403  -0.509  0.00  0.00     0.075 H 
ATOM     37  H8  78E d   1       0.733 -18.207  -2.394  0.00  0.00     0.076 H 
ATOM     38  H9  78E d   1       3.036 -16.150  -2.772  0.00  0.00     0.042 H 
ATOM     39  H10 78E d   1       1.313 -15.658  -2.637  0.00  0.00     0.042 H 
ATOM     40  H11 78E d   1       3.212 -18.021  -4.174  0.00  0.00     0.083 H 
ATOM     41  H12 78E d   1       6.195 -17.560   1.042  0.00  0.00     0.036 H 
ATOM     42  H13 78E d   1       4.753 -18.023   2.008  0.00  0.00     0.036 H 
ATOM     43  H14 78E d   1       7.778 -21.015   1.448  0.00  0.00     0.067 H 
ATOM     44  H15 78E d   1       7.996 -19.446   0.602  0.00  0.00     0.067 H 
ATOM     45  H16 78E d   1       0.972 -20.182  -3.781  0.00  0.00     0.083 H 
ATOM     46  H17 78E d   1       3.457 -20.036  -5.550  0.00  0.00     0.076 H 
ATOM     47  H18 78E d   1       1.558 -21.708  -6.559  0.00  0.00     0.038 H 
ATOM     48  H19 78E d   1       1.435 -22.271  -4.858  0.00  0.00     0.038 H 
ATOM     49  H20 78E d   1       3.701 -23.034  -4.845  0.00  0.00     0.033 H 
ATOM     50  H21 78E d   1       4.069 -22.190  -6.388  0.00  0.00     0.033 H 
ATOM     51  H22 78E d   1       2.661 -23.727  -7.627  0.00  0.00     0.033 H 
ATOM     52  H23 78E d   1       2.105 -24.506  -6.107  0.00  0.00     0.033 H 
ATOM     53  H24 78E d   1       3.656 -26.059  -6.815  0.00  0.00     0.047 H 
ATOM     54  H25 78E d   1       4.691 -24.830  -7.620  0.00  0.00     0.047 H 
ATOM     55  H26 78E d   1       6.366 -23.965  -6.530  0.00  0.00     0.163 HD
ATOM     56  H27 78E d   1       7.100 -25.053  -3.931  0.00  0.00     0.088 H 
ATOM     57  H35 78E d   1       5.900 -24.225  -2.455  0.00  0.00     0.163 HD
ATOM     58  H36 78E d   1       5.218 -21.361  -2.288  0.00  0.00     0.088 H 
ENDROOT
BRANCH  27  59
ATOM     59  C8  78E d   1       4.161 -22.998  -1.272  0.00  0.00    -0.014 C 
ATOM     60  H37 78E d   1       4.446 -23.929  -0.760  0.00  0.00     0.043 H 
ATOM     61  H38 78E d   1       3.550 -23.237  -2.155  0.00  0.00     0.043 H 
BRANCH  59  62
ATOM     62  C14 78E d   1       3.312 -22.171  -0.316  0.00  0.00    -0.053 A 
ATOM     63  C28 78E d   1       2.373 -21.232  -0.806  0.00  0.00    -0.077 A 
ATOM     64  C27 78E d   1       1.591 -20.470   0.093  0.00  0.00    -0.080 A 
ATOM     65  H39 78E d   1       2.253 -21.096  -1.875  0.00  0.00     0.084 H 
ATOM     66  C26 78E d   1       1.753 -20.656   1.482  0.00  0.00    -0.051 A 
ATOM     67  H40 78E d   1       0.873 -19.749  -0.282  0.00  0.00     0.083 H 
ATOM     68  C25 78E d   1       2.690 -21.594   1.970  0.00  0.00     0.066 A 
ATOM     69  H42 78E d   1       1.156 -20.077   2.178  0.00  0.00     0.087 H 
ATOM     70  C24 78E d   1       3.458 -22.355   1.071  0.00  0.00    -0.045 A 
ATOM     71  H41 78E d   1       4.165 -23.086   1.448  0.00  0.00     0.088 H 
BRANCH  68  72
ATOM     72  O6  78E d   1       2.859 -21.783   3.311  0.00  0.00    -0.361 OA
ATOM     73  H43 78E d   1       3.524 -22.446   3.455  0.00  0.00     0.217 HD
ENDBRANCH  68  72
ENDBRANCH  59  62
ENDBRANCH  27  59
BRANCH  23  74
ATOM     74  C11 78E d   1       8.673 -24.236  -5.061  0.00  0.00    -0.033 C 
ATOM     75  H28 78E d   1       8.872 -23.288  -5.583  0.00  0.00     0.042 H 
BRANCH  74  76
ATOM     76  C13 78E d   1       9.017 -25.360  -6.054  0.00  0.00    -0.071 C 
ATOM     77  H29 78E d   1      10.085 -25.306  -6.314  0.00  0.00     0.028 H 
ATOM     78  H30 78E d   1       8.411 -25.243  -6.965  0.00  0.00     0.028 H 
ATOM     79  H31 78E d   1       8.801 -26.335  -5.593  0.00  0.00     0.028 H 
ENDBRANCH  74  76
BRANCH  74  80
ATOM     80  C12 78E d   1       9.606 -24.296  -3.831  0.00  0.00    -0.071 C 
ATOM     81  H32 78E d   1       9.346 -23.486  -3.133  0.00  0.00     0.028 H 
ATOM     82  H33 78E d   1      10.650 -24.178  -4.157  0.00  0.00     0.028 H 
ATOM     83  H34 78E d   1       9.487 -25.267  -3.327  0.00  0.00     0.028 H 
ENDBRANCH  74  80
ENDBRANCH  23  74
TORSDOF 6
