REMARK  9 active torsions:
REMARK  status: ('A' for Active; 'I' for Inactive)
REMARK    1  A    between atoms: C24_8  and  C25_9 
REMARK    2  A    between atoms: C26_10  and  O46_26 
REMARK    3  A    between atoms: O46_26  and  C39_23 
REMARK    4  A    between atoms: C19_29  and  C20_32 
REMARK    5  A    between atoms: C20_32  and  C21_33 
REMARK    6  A    between atoms: C20_32  and  C22_34 
REMARK    7  A    between atoms: C10_36  and  C11_37 
REMARK    8  A    between atoms: C11_37  and  C12_38 
REMARK    9  A    between atoms: C14_42  and  O42_44 
ROOT
ATOM      1  N2  78R d   1      15.653  -5.701  14.888  0.00  0.00     0.022 N 
ATOM      2  N1  78R d   1      14.918  -5.568  13.676  0.00  0.00    -0.177 N 
ATOM      3  C5  78R d   1      17.583  -4.594  13.827  0.00  0.00    -0.026 C 
ATOM      4  C7  78R d   1      15.214  -4.380  12.895  0.00  0.00     0.025 C 
ATOM      5  C8  78R d   1      17.095  -5.790  14.641  0.00  0.00     0.206 C 
ATOM      6  C6  78R d   1      16.721  -4.480  12.542  0.00  0.00    -0.046 C 
ATOM      7  C23 78R d   1      10.440 -10.728  16.102  0.00  0.00     0.224 C 
ATOM      8  C24 78R d   1      10.278 -11.573  17.379  0.00  0.00     0.045 C 
ATOM      9  C26 78R d   1      10.742 -10.811  18.634  0.00  0.00     0.049 C 
ATOM     10  C27 78R d   1      12.177 -10.300  18.386  0.00  0.00    -0.037 C 
ATOM     11  C28 78R d   1      13.064 -10.727  19.523  0.00  0.00    -0.048 C 
ATOM     12  C29 78R d   1      17.734  -5.759  16.004  0.00  0.00     0.292 C 
ATOM     13  C30 78R d   1      19.141  -6.861  17.470  0.00  0.00     0.052 C 
ATOM     14  C31 78R d   1      18.252  -7.315  18.603  0.00  0.00    -0.033 A 
ATOM     15  C32 78R d   1      17.115  -8.069  18.357  0.00  0.00    -0.065 A 
ATOM     16  C33 78R d   1      16.284  -8.547  19.343  0.00  0.00    -0.036 A 
ATOM     17  C34 78R d   1      16.573  -8.181  20.650  0.00  0.00    -0.073 A 
ATOM     18  C35 78R d   1      17.696  -7.402  20.912  0.00  0.00    -0.082 A 
ATOM     19  C36 78R d   1      18.575  -6.942  19.929  0.00  0.00    -0.075 A 
ATOM     20  C37 78R d   1      15.097  -9.335  18.930  0.00  0.00    -0.077 C 
ATOM     21  C38 78R d   1      14.249  -9.854  19.814  0.00  0.00    -0.102 C 
ATOM     22  O44 78R d   1      10.916 -11.196  15.080  0.00  0.00    -0.273 OA
ATOM     23  O45 78R d   1      17.635  -4.935  16.850  0.00  0.00    -0.263 OA
ATOM     24  O47 78R d   1      18.508  -6.844  16.162  0.00  0.00    -0.315 OA
ATOM     25  N4  78R d   1      10.078  -9.377  16.218  0.00  0.00    -0.347 N 
ATOM     26  C19 78R d   1      10.256  -8.517  15.034  0.00  0.00     0.092 C 
ATOM     27  C18 78R d   1      11.652  -7.839  15.111  0.00  0.00     0.241 C 
ATOM     28  O43 78R d   1      11.898  -7.035  16.026  0.00  0.00    -0.271 OA
ATOM     29  N3  78R d   1      12.526  -8.262  14.177  0.00  0.00    -0.346 N 
ATOM     30  C10 78R d   1      13.878  -7.763  14.216  0.00  0.00     0.095 C 
ATOM     31  C9  78R d   1      14.019  -6.524  13.324  0.00  0.00     0.266 C 
ATOM     32  O41 78R d   1      13.391  -6.397  12.261  0.00  0.00    -0.269 OA
ATOM     33  H1  78R d   1      15.351  -6.537  15.363  0.00  0.00     0.307 HD
ATOM     34  H2  78R d   1      15.470  -4.899  15.470  0.00  0.00     0.307 HD
ATOM     35  H3  78R d   1      18.638  -4.739  13.553  0.00  0.00     0.036 H 
ATOM     36  H4  78R d   1      17.482  -3.675  14.423  0.00  0.00     0.036 H 
ATOM     37  H5  78R d   1      15.017  -3.473  13.485  0.00  0.00     0.067 H 
ATOM     38  H6  78R d   1      14.605  -4.361  11.979  0.00  0.00     0.067 H 
ATOM     39  H7  78R d   1      17.340  -6.724  14.114  0.00  0.00     0.104 H 
ATOM     40  H8  78R d   1      16.886  -5.370  11.917  0.00  0.00     0.035 H 
ATOM     41  H9  78R d   1      17.021  -3.580  11.985  0.00  0.00     0.035 H 
ATOM     42  H10 78R d   1      10.915 -12.465  17.286  0.00  0.00     0.058 H 
ATOM     43  H14 78R d   1      10.733 -11.481  19.506  0.00  0.00     0.084 H 
ATOM     44  H15 78R d   1      12.169  -9.202  18.320  0.00  0.00     0.037 H 
ATOM     45  H16 78R d   1      12.559 -10.722  17.445  0.00  0.00     0.037 H 
ATOM     46  H17 78R d   1      13.440 -11.735  19.293  0.00  0.00     0.038 H 
ATOM     47  H18 78R d   1      12.446 -10.765  20.432  0.00  0.00     0.038 H 
ATOM     48  H19 78R d   1      20.006  -7.539  17.422  0.00  0.00     0.082 H 
ATOM     49  H20 78R d   1      19.487  -5.841  17.695  0.00  0.00     0.082 H 
ATOM     50  H21 78R d   1      16.866  -8.295  17.326  0.00  0.00     0.085 H 
ATOM     51  H22 78R d   1      15.928  -8.500  21.461  0.00  0.00     0.084 H 
ATOM     52  H23 78R d   1      17.901  -7.136  21.943  0.00  0.00     0.083 H 
ATOM     53  H24 78R d   1      19.445  -6.340  20.166  0.00  0.00     0.084 H 
ATOM     54  H25 78R d   1      14.914  -9.494  17.868  0.00  0.00     0.084 H 
ATOM     55  H26 78R d   1      14.435  -9.620  20.861  0.00  0.00     0.076 H 
ATOM     56  H30 78R d   1       9.712  -9.011  17.074  0.00  0.00     0.163 HD
ATOM     57  H31 78R d   1      10.242  -9.160  14.142  0.00  0.00     0.088 H 
ATOM     58  H39 78R d   1      12.242  -8.910  13.470  0.00  0.00     0.163 HD
ATOM     59  H40 78R d   1      14.149  -7.519  15.254  0.00  0.00     0.088 H 
ENDROOT
BRANCH  30  60
ATOM     60  C11 78R d   1      14.847  -8.811  13.641  0.00  0.00    -0.014 C 
ATOM     61  H41 78R d   1      15.800  -8.311  13.415  0.00  0.00     0.043 H 
ATOM     62  H42 78R d   1      14.412  -9.208  12.712  0.00  0.00     0.043 H 
BRANCH  60  63
ATOM     63  C12 78R d   1      15.134  -9.987  14.576  0.00  0.00    -0.053 A 
ATOM     64  C17 78R d   1      14.153 -10.973  14.837  0.00  0.00    -0.077 A 
ATOM     65  C16 78R d   1      14.468 -12.058  15.668  0.00  0.00    -0.080 A 
ATOM     66  H43 78R d   1      13.165 -10.890  14.398  0.00  0.00     0.084 H 
ATOM     67  C15 78R d   1      15.691 -12.159  16.293  0.00  0.00    -0.051 A 
ATOM     68  H44 78R d   1      13.730 -12.837  15.822  0.00  0.00     0.083 H 
ATOM     69  C14 78R d   1      16.656 -11.199  15.997  0.00  0.00     0.066 A 
ATOM     70  H46 78R d   1      15.896 -12.960  16.993  0.00  0.00     0.087 H 
ATOM     71  C13 78R d   1      16.398 -10.100  15.169  0.00  0.00    -0.045 A 
ATOM     72  H45 78R d   1      17.161  -9.351  14.990  0.00  0.00     0.088 H 
BRANCH  69  73
ATOM     73  O42 78R d   1      17.888 -11.320  16.589  0.00  0.00    -0.361 OA
ATOM     74  H47 78R d   1      18.447 -10.606  16.304  0.00  0.00     0.217 HD
ENDBRANCH  69  73
ENDBRANCH  60  63
ENDBRANCH  30  60
BRANCH  26  75
ATOM     75  C20 78R d   1       9.120  -7.508  14.882  0.00  0.00    -0.033 C 
ATOM     76  H32 78R d   1       9.128  -6.854  15.766  0.00  0.00     0.042 H 
BRANCH  75  77
ATOM     77  C21 78R d   1       9.348  -6.646  13.629  0.00  0.00    -0.071 C 
ATOM     78  H33 78R d   1       8.526  -5.923  13.527  0.00  0.00     0.028 H 
ATOM     79  H34 78R d   1       9.380  -7.293  12.740  0.00  0.00     0.028 H 
ATOM     80  H35 78R d   1      10.302  -6.106  13.724  0.00  0.00     0.028 H 
ENDBRANCH  75  77
BRANCH  75  81
ATOM     81  C22 78R d   1       7.738  -8.167  14.791  0.00  0.00    -0.071 C 
ATOM     82  H36 78R d   1       7.567  -8.786  15.684  0.00  0.00     0.028 H 
ATOM     83  H37 78R d   1       7.692  -8.800  13.892  0.00  0.00     0.028 H 
ATOM     84  H38 78R d   1       6.964  -7.388  14.731  0.00  0.00     0.028 H 
ENDBRANCH  75  81
ENDBRANCH  26  75
BRANCH   8  85
ATOM     85  C25 78R d   1       8.821 -12.037  17.451  0.00  0.00    -0.062 C 
ATOM     86  H11 78R d   1       8.560 -12.571  16.525  0.00  0.00     0.028 H 
ATOM     87  H12 78R d   1       8.163 -11.163  17.568  0.00  0.00     0.028 H 
ATOM     88  H13 78R d   1       8.693 -12.710  18.311  0.00  0.00     0.028 H 
ENDBRANCH   8  85
BRANCH   9  89
ATOM     89  O46 78R d   1       9.844  -9.705  18.864  0.00  0.00    -0.390 OA
BRANCH  89  90
ATOM     90  C39 78R d   1       9.854  -9.033  20.114  0.00  0.00     0.004 C 
ATOM     91  H27 78R d   1       9.108  -8.225  20.102  0.00  0.00     0.066 H 
ATOM     92  H28 78R d   1      10.852  -8.607  20.294  0.00  0.00     0.066 H 
ATOM     93  H29 78R d   1       9.610  -9.746  20.915  0.00  0.00     0.066 H 
ENDBRANCH  89  90
ENDBRANCH   9  89
TORSDOF 9
