REMARK  10 active torsions:
REMARK  status: ('A' for Active; 'I' for Inactive)
REMARK    1  A    between atoms: C24_8  and  C25_9 
REMARK    2  A    between atoms: C26_10  and  O46_27 
REMARK    3  A    between atoms: C30_14  and  C40_24 
REMARK    4  A    between atoms: O46_27  and  C39_23 
REMARK    5  A    between atoms: C10_30  and  C11_31 
REMARK    6  A    between atoms: C11_31  and  C12_32 
REMARK    7  A    between atoms: C14_36  and  O42_38 
REMARK    8  A    between atoms: C19_42  and  C20_45 
REMARK    9  A    between atoms: C20_45  and  C21_46 
REMARK   10  A    between atoms: C20_45  and  C22_47 
ROOT
ATOM      1  N1  78X d   1      14.927  -5.472  13.605  0.00  0.00    -0.177 N 
ATOM      2  N2  78X d   1      15.628  -5.640  14.826  0.00  0.00     0.022 N 
ATOM      3  C5  78X d   1      17.558  -4.511  13.767  0.00  0.00    -0.026 C 
ATOM      4  C6  78X d   1      16.697  -4.309  12.515  0.00  0.00    -0.046 C 
ATOM      5  C7  78X d   1      15.224  -4.225  12.903  0.00  0.00     0.025 C 
ATOM      6  C8  78X d   1      17.085  -5.698  14.615  0.00  0.00     0.206 C 
ATOM      7  C23 78X d   1      10.482 -10.655  16.190  0.00  0.00     0.224 C 
ATOM      8  C24 78X d   1      10.301 -11.449  17.486  0.00  0.00     0.045 C 
ATOM      9  C26 78X d   1      10.713 -10.651  18.753  0.00  0.00     0.049 C 
ATOM     10  C27 78X d   1      12.086  -9.963  18.608  0.00  0.00    -0.037 C 
ATOM     11  C28 78X d   1      13.274 -10.822  19.059  0.00  0.00    -0.048 C 
ATOM     12  C29 78X d   1      17.710  -5.600  15.994  0.00  0.00     0.292 C 
ATOM     13  C30 78X d   1      19.325  -6.612  17.443  0.00  0.00     0.070 C 
ATOM     14  C31 78X d   1      18.397  -7.178  18.511  0.00  0.00    -0.028 A 
ATOM     15  C32 78X d   1      17.306  -7.995  18.152  0.00  0.00    -0.065 A 
ATOM     16  C33 78X d   1      16.437  -8.535  19.109  0.00  0.00    -0.036 A 
ATOM     17  C34 78X d   1      16.674  -8.246  20.454  0.00  0.00    -0.073 A 
ATOM     18  C35 78X d   1      17.748  -7.441  20.838  0.00  0.00    -0.082 A 
ATOM     19  C36 78X d   1      18.610  -6.913  19.873  0.00  0.00    -0.074 A 
ATOM     20  C37 78X d   1      15.302  -9.383  18.696  0.00  0.00    -0.077 C 
ATOM     21  C38 78X d   1      14.412  -9.953  19.528  0.00  0.00    -0.102 C 
ATOM     22  O44 78X d   1      10.911 -11.171  15.162  0.00  0.00    -0.273 OA
ATOM     23  O45 78X d   1      17.428  -4.764  16.831  0.00  0.00    -0.263 OA
ATOM     24  O47 78X d   1      18.634  -6.586  16.164  0.00  0.00    -0.310 OA
ATOM     25  N3  78X d   1      12.580  -8.185  14.145  0.00  0.00    -0.346 N 
ATOM     26  C10 78X d   1      13.963  -7.701  14.120  0.00  0.00     0.095 C 
ATOM     27  C9  78X d   1      14.066  -6.478  13.210  0.00  0.00     0.266 C 
ATOM     28  O41 78X d   1      13.432  -6.393  12.155  0.00  0.00    -0.269 OA
ATOM     29  N4  78X d   1      10.157  -9.317  16.157  0.00  0.00    -0.347 N 
ATOM     30  C19 78X d   1      10.296  -8.415  15.010  0.00  0.00     0.092 C 
ATOM     31  C18 78X d   1      11.683  -7.777  15.107  0.00  0.00     0.241 C 
ATOM     32  O43 78X d   1      11.945  -6.988  16.018  0.00  0.00    -0.271 OA
ATOM     33  H1  78X d   1      15.326  -6.498  15.260  0.00  0.00     0.307 HD
ATOM     34  H2  78X d   1      15.417  -4.864  15.433  0.00  0.00     0.307 HD
ATOM     35  H3  78X d   1      17.511  -3.598  14.379  0.00  0.00     0.036 H 
ATOM     36  H4  78X d   1      18.598  -4.691  13.456  0.00  0.00     0.036 H 
ATOM     37  H5  78X d   1      16.846  -5.157  11.830  0.00  0.00     0.035 H 
ATOM     38  H6  78X d   1      16.995  -3.376  12.014  0.00  0.00     0.035 H 
ATOM     39  H7  78X d   1      15.050  -3.363  13.563  0.00  0.00     0.067 H 
ATOM     40  H8  78X d   1      14.596  -4.132  12.005  0.00  0.00     0.067 H 
ATOM     41  H9  78X d   1      17.365  -6.642  14.125  0.00  0.00     0.104 H 
ATOM     42  H10 78X d   1      10.943 -12.341  17.431  0.00  0.00     0.058 H 
ATOM     43  H14 78X d   1      10.753 -11.344  19.607  0.00  0.00     0.084 H 
ATOM     44  H15 78X d   1      12.076  -9.044  19.213  0.00  0.00     0.037 H 
ATOM     45  H16 78X d   1      12.231  -9.704  17.549  0.00  0.00     0.037 H 
ATOM     46  H17 78X d   1      13.615 -11.439  18.214  0.00  0.00     0.038 H 
ATOM     47  H18 78X d   1      12.955 -11.475  19.884  0.00  0.00     0.038 H 
ATOM     48  H19 78X d   1      19.583  -5.584  17.736  0.00  0.00     0.091 H 
ATOM     49  H20 78X d   1      17.134  -8.212  17.104  0.00  0.00     0.085 H 
ATOM     50  H21 78X d   1      16.014  -8.653  21.212  0.00  0.00     0.084 H 
ATOM     51  H22 78X d   1      17.914  -7.225  21.887  0.00  0.00     0.083 H 
ATOM     52  H23 78X d   1      19.447  -6.296  20.178  0.00  0.00     0.084 H 
ATOM     53  H24 78X d   1      15.175  -9.562  17.629  0.00  0.00     0.084 H 
ATOM     54  H25 78X d   1      14.520  -9.777  20.597  0.00  0.00     0.076 H 
ATOM     55  H32 78X d   1      12.279  -8.830  13.443  0.00  0.00     0.163 HD
ATOM     56  H33 78X d   1      14.270  -7.432  15.142  0.00  0.00     0.088 H 
ATOM     57  H41 78X d   1       9.790  -8.922  16.999  0.00  0.00     0.163 HD
ATOM     58  H42 78X d   1      10.262  -9.025  14.095  0.00  0.00     0.088 H 
ENDROOT
BRANCH  26  59
ATOM     59  C11 78X d   1      14.912  -8.780  13.564  0.00  0.00    -0.014 C 
ATOM     60  H34 78X d   1      15.872  -8.295  13.332  0.00  0.00     0.043 H 
ATOM     61  H35 78X d   1      14.466  -9.174  12.639  0.00  0.00     0.043 H 
BRANCH  59  62
ATOM     62  C12 78X d   1      15.197  -9.954  14.475  0.00  0.00    -0.053 A 
ATOM     63  C17 78X d   1      14.159 -10.827  14.843  0.00  0.00    -0.077 A 
ATOM     64  C16 78X d   1      14.406 -11.913  15.686  0.00  0.00    -0.080 A 
ATOM     65  H36 78X d   1      13.156 -10.656  14.469  0.00  0.00     0.084 H 
ATOM     66  C15 78X d   1      15.691 -12.154  16.162  0.00  0.00    -0.051 A 
ATOM     67  H37 78X d   1      13.593 -12.571  15.971  0.00  0.00     0.083 H 
ATOM     68  C14 78X d   1      16.720 -11.295  15.798  0.00  0.00     0.066 A 
ATOM     69  H39 78X d   1      15.887 -13.002  16.809  0.00  0.00     0.087 H 
ATOM     70  C13 78X d   1      16.490 -10.199  14.964  0.00  0.00    -0.045 A 
ATOM     71  H38 78X d   1      17.307  -9.540  14.695  0.00  0.00     0.088 H 
BRANCH  68  72
ATOM     72  O42 78X d   1      17.984 -11.517  16.257  0.00  0.00    -0.361 OA
ATOM     73  H40 78X d   1      18.565 -10.845  15.919  0.00  0.00     0.217 HD
ENDBRANCH  68  72
ENDBRANCH  59  62
ENDBRANCH  26  59
BRANCH  30  74
ATOM     74  C20 78X d   1       9.167  -7.368  14.890  0.00  0.00    -0.033 C 
ATOM     75  H43 78X d   1       9.226  -6.694  15.758  0.00  0.00     0.042 H 
BRANCH  74  76
ATOM     76  C21 78X d   1       9.373  -6.559  13.607  0.00  0.00    -0.071 C 
ATOM     77  H44 78X d   1       8.573  -5.810  13.513  0.00  0.00     0.028 H 
ATOM     78  H45 78X d   1       9.347  -7.234  12.739  0.00  0.00     0.028 H 
ATOM     79  H46 78X d   1      10.348  -6.051  13.646  0.00  0.00     0.028 H 
ENDBRANCH  74  76
BRANCH  74  80
ATOM     80  C22 78X d   1       7.764  -7.991  14.855  0.00  0.00    -0.071 C 
ATOM     81  H47 78X d   1       7.600  -8.577  15.772  0.00  0.00     0.028 H 
ATOM     82  H48 78X d   1       7.677  -8.650  13.978  0.00  0.00     0.028 H 
ATOM     83  H49 78X d   1       7.010  -7.193  14.790  0.00  0.00     0.028 H 
ENDBRANCH  74  80
ENDBRANCH  30  74
BRANCH   8  84
ATOM     84  C25 78X d   1       8.840 -11.907  17.582  0.00  0.00    -0.062 C 
ATOM     85  H11 78X d   1       8.572 -12.469  16.675  0.00  0.00     0.028 H 
ATOM     86  H12 78X d   1       8.185 -11.028  17.676  0.00  0.00     0.028 H 
ATOM     87  H13 78X d   1       8.715 -12.553  18.464  0.00  0.00     0.028 H 
ENDBRANCH   8  84
BRANCH   9  88
ATOM     88  O46 78X d   1       9.731  -9.639  19.002  0.00  0.00    -0.390 OA
BRANCH  88  89
ATOM     89  C39 78X d   1       9.921  -8.913  20.211  0.00  0.00     0.004 C 
ATOM     90  H26 78X d   1       9.124  -8.162  20.317  0.00  0.00     0.066 H 
ATOM     91  H27 78X d   1      10.899  -8.409  20.186  0.00  0.00     0.066 H 
ATOM     92  H28 78X d   1       9.887  -9.606  21.064  0.00  0.00     0.066 H 
ENDBRANCH  88  89
ENDBRANCH   9  88
BRANCH  13  93
ATOM     93  C40 78X d   1      20.627  -7.389  17.237  0.00  0.00    -0.048 C 
ATOM     94  H29 78X d   1      21.223  -6.903  16.451  0.00  0.00     0.031 H 
ATOM     95  H30 78X d   1      20.394  -8.421  16.936  0.00  0.00     0.031 H 
ATOM     96  H31 78X d   1      21.199  -7.401  18.176  0.00  0.00     0.031 H 
ENDBRANCH  13  93
TORSDOF 10
