REMARK  8 active torsions:
REMARK  status: ('A' for Active; 'I' for Inactive)
REMARK    1  A    between atoms: C24_8  and  C25_9 
REMARK    2  A    between atoms: C26_10  and  O46_27 
REMARK    3  A    between atoms: C30_14  and  C40_24 
REMARK    4  A    between atoms: O46_27  and  C39_23 
REMARK    5  A    between atoms: C19_30  and  C20_33 
REMARK    6  A    between atoms: C20_33  and  C21_34 
REMARK    7  A    between atoms: C20_33  and  C22_35 
REMARK    8  A    between atoms: C10_37  and  C11_40 
ROOT
ATOM      1  N1  838 d   1       3.697  17.016   1.979  0.00  0.00    -0.177 N 
ATOM      2  N2  838 d   1       4.097  15.699   1.627  0.00  0.00     0.022 N 
ATOM      3  C5  838 d   1       2.211  14.847   3.008  0.00  0.00    -0.026 C 
ATOM      4  C6  838 d   1       1.801  16.289   3.305  0.00  0.00    -0.046 C 
ATOM      5  C7  838 d   1       2.248  17.172   2.146  0.00  0.00     0.025 C 
ATOM      6  C8  838 d   1       3.710  14.753   2.694  0.00  0.00     0.206 C 
ATOM      7  C23 838 d   1      10.441  19.223   0.206  0.00  0.00     0.224 C 
ATOM      8  C24 838 d   1      11.680  18.558  -0.417  0.00  0.00     0.045 C 
ATOM      9  C26 838 d   1      11.343  17.314  -1.290  0.00  0.00     0.049 C 
ATOM     10  C27 838 d   1      10.768  16.054  -0.586  0.00  0.00    -0.037 C 
ATOM     11  C28 838 d   1       9.393  16.216   0.095  0.00  0.00    -0.048 C 
ATOM     12  C29 838 d   1       4.017  13.359   2.178  0.00  0.00     0.292 C 
ATOM     13  C30 838 d   1       5.243  11.377   2.775  0.00  0.00     0.070 C 
ATOM     14  C31 838 d   1       6.281  11.387   1.654  0.00  0.00    -0.028 A 
ATOM     15  C32 838 d   1       7.089  12.533   1.379  0.00  0.00    -0.065 A 
ATOM     16  C33 838 d   1       8.057  12.541   0.348  0.00  0.00    -0.036 A 
ATOM     17  C34 838 d   1       8.230  11.380  -0.421  0.00  0.00    -0.073 A 
ATOM     18  C35 838 d   1       7.447  10.251  -0.163  0.00  0.00    -0.082 A 
ATOM     19  C36 838 d   1       6.499  10.255   0.861  0.00  0.00    -0.074 A 
ATOM     20  C37 838 d   1       8.882  13.733   0.076  0.00  0.00    -0.077 C 
ATOM     21  C38 838 d   1       8.551  14.999   0.373  0.00  0.00    -0.102 C 
ATOM     22  O44 838 d   1      10.375  19.502   1.395  0.00  0.00    -0.273 OA
ATOM     23  O45 838 d   1       3.627  12.901   1.119  0.00  0.00    -0.263 OA
ATOM     24  O47 838 d   1       4.805  12.724   3.079  0.00  0.00    -0.310 OA
ATOM     25  N4  838 d   1       9.406  19.444  -0.681  0.00  0.00    -0.347 N 
ATOM     26  C19 838 d   1       8.126  20.037  -0.307  0.00  0.00     0.092 C 
ATOM     27  C18 838 d   1       7.187  18.895   0.034  0.00  0.00     0.241 C 
ATOM     28  O43 838 d   1       6.704  18.168  -0.831  0.00  0.00    -0.271 OA
ATOM     29  N3  838 d   1       6.938  18.676   1.359  0.00  0.00    -0.346 N 
ATOM     30  C10 838 d   1       6.128  17.589   1.896  0.00  0.00     0.087 C 
ATOM     31  C9  838 d   1       4.672  17.973   2.107  0.00  0.00     0.266 C 
ATOM     32  O41 838 d   1       4.381  19.134   2.426  0.00  0.00    -0.269 OA
ATOM     33  H1  838 d   1       5.097  15.675   1.506  0.00  0.00     0.307 HD
ATOM     34  H2  838 d   1       3.647  15.432   0.765  0.00  0.00     0.307 HD
ATOM     35  H3  838 d   1       1.639  14.482   2.142  0.00  0.00     0.036 H 
ATOM     36  H4  838 d   1       1.988  14.222   3.885  0.00  0.00     0.036 H 
ATOM     37  H5  838 d   1       2.282  16.627   4.235  0.00  0.00     0.035 H 
ATOM     38  H6  838 d   1       0.708  16.348   3.415  0.00  0.00     0.035 H 
ATOM     39  H7  838 d   1       1.732  16.865   1.224  0.00  0.00     0.067 H 
ATOM     40  H8  838 d   1       2.010  18.223   2.366  0.00  0.00     0.067 H 
ATOM     41  H9  838 d   1       4.289  14.960   3.606  0.00  0.00     0.104 H 
ATOM     42  H10 838 d   1      12.312  18.197   0.407  0.00  0.00     0.058 H 
ATOM     43  H14 838 d   1      12.318  16.976  -1.672  0.00  0.00     0.084 H 
ATOM     44  H15 838 d   1      11.489  15.743   0.185  0.00  0.00     0.037 H 
ATOM     45  H16 838 d   1      10.675  15.261  -1.343  0.00  0.00     0.037 H 
ATOM     46  H17 838 d   1       8.794  16.878  -0.548  0.00  0.00     0.038 H 
ATOM     47  H18 838 d   1       9.572  16.708   1.062  0.00  0.00     0.038 H 
ATOM     48  H19 838 d   1       4.388  10.775   2.434  0.00  0.00     0.091 H 
ATOM     49  H20 838 d   1       6.956  13.425   1.980  0.00  0.00     0.085 H 
ATOM     50  H21 838 d   1       8.969  11.359  -1.214  0.00  0.00     0.084 H 
ATOM     51  H22 838 d   1       7.578   9.360  -0.767  0.00  0.00     0.083 H 
ATOM     52  H23 838 d   1       5.917   9.359   1.047  0.00  0.00     0.084 H 
ATOM     53  H24 838 d   1       9.844  13.572  -0.408  0.00  0.00     0.084 H 
ATOM     54  H25 838 d   1       7.589  15.160   0.858  0.00  0.00     0.076 H 
ATOM     55  H32 838 d   1       9.542  19.182  -1.637  0.00  0.00     0.163 HD
ATOM     56  H33 838 d   1       8.293  20.608   0.618  0.00  0.00     0.088 H 
ATOM     57  H41 838 d   1       7.344  19.313   2.014  0.00  0.00     0.163 HD
ATOM     58  H42 838 d   1       6.141  16.780   1.151  0.00  0.00     0.087 H 
ENDROOT
BRANCH  26  59
ATOM     59  C20 838 d   1       7.555  21.042  -1.316  0.00  0.00    -0.033 C 
ATOM     60  H34 838 d   1       7.231  20.484  -2.207  0.00  0.00     0.042 H 
BRANCH  59  61
ATOM     61  C21 838 d   1       6.341  21.771  -0.730  0.00  0.00    -0.071 C 
ATOM     62  H35 838 d   1       5.950  22.485  -1.470  0.00  0.00     0.028 H 
ATOM     63  H36 838 d   1       6.642  22.313   0.179  0.00  0.00     0.028 H 
ATOM     64  H37 838 d   1       5.560  21.039  -0.478  0.00  0.00     0.028 H 
ENDBRANCH  59  61
BRANCH  59  65
ATOM     65  C22 838 d   1       8.605  22.069  -1.747  0.00  0.00    -0.071 C 
ATOM     66  H38 838 d   1       9.477  21.547  -2.168  0.00  0.00     0.028 H 
ATOM     67  H39 838 d   1       8.918  22.662  -0.875  0.00  0.00     0.028 H 
ATOM     68  H40 838 d   1       8.175  22.736  -2.508  0.00  0.00     0.028 H 
ENDBRANCH  59  65
ENDBRANCH  26  59
BRANCH   8  69
ATOM     69  C25 838 d   1      12.470  19.641  -1.164  0.00  0.00    -0.062 C 
ATOM     70  H11 838 d   1      12.669  20.483  -0.485  0.00  0.00     0.028 H 
ATOM     71  H12 838 d   1      11.884  19.995  -2.025  0.00  0.00     0.028 H 
ATOM     72  H13 838 d   1      13.423  19.221  -1.517  0.00  0.00     0.028 H 
ENDBRANCH   8  69
BRANCH  30  73
ATOM     73  C11 838 d   1       6.742  17.040   3.172  0.00  0.00    -0.049 C 
ATOM     74  H43 838 d   1       6.115  16.223   3.558  0.00  0.00     0.030 H 
ATOM     75  H44 838 d   1       6.804  17.841   3.923  0.00  0.00     0.030 H 
ATOM     76  H45 838 d   1       7.751  16.659   2.959  0.00  0.00     0.030 H 
ENDBRANCH  30  73
BRANCH   9  77
ATOM     77  O46 838 d   1      10.600  17.718  -2.453  0.00  0.00    -0.390 OA
BRANCH  77  78
ATOM     78  C39 838 d   1      10.786  16.958  -3.638  0.00  0.00     0.004 C 
ATOM     79  H26 838 d   1      10.162  17.374  -4.442  0.00  0.00     0.066 H 
ATOM     80  H27 838 d   1      10.496  15.913  -3.453  0.00  0.00     0.066 H 
ATOM     81  H28 838 d   1      11.844  16.998  -3.937  0.00  0.00     0.066 H 
ENDBRANCH  77  78
ENDBRANCH   9  77
BRANCH  13  82
ATOM     82  C40 838 d   1       5.734  10.825   4.106  0.00  0.00    -0.048 C 
ATOM     83  H29 838 d   1       4.917  10.861   4.842  0.00  0.00     0.031 H 
ATOM     84  H30 838 d   1       6.578  11.432   4.466  0.00  0.00     0.031 H 
ATOM     85  H31 838 d   1       6.062   9.783   3.973  0.00  0.00     0.031 H 
ENDBRANCH  13  82
TORSDOF 8
