REMARK  3 active torsions:
REMARK  status: ('A' for Active; 'I' for Inactive)
REMARK    1  A    between atoms: CAS_1  and  CAR_2 
REMARK    2  A    between atoms: CAR_2  and  CAP_3 
REMARK       I    between atoms: CAP_3  and  NAH_5 
REMARK    3  A    between atoms: CAE_13  and  CAJ_14 
ROOT
ATOM      1  CAP 77X d   1       0.369  14.584  24.852  0.00  0.00     0.219 C 
ATOM      2  OAQ 77X d   1       1.440  14.753  25.464  0.00  0.00    -0.273 OA
ATOM      3  NAH 77X d   1      -0.748  14.190  25.492  0.00  0.00    -0.347 N 
ATOM      4  CAG 77X d   1      -0.752  13.996  26.986  0.00  0.00     0.003 C 
ATOM      5  CAF 77X d   1      -1.033  12.526  27.300  0.00  0.00    -0.007 C 
ATOM      6  CAI 77X d   1      -1.987  13.903  24.711  0.00  0.00     0.025 C 
ATOM      7  CAD 77X d   1      -2.530  12.562  25.186  0.00  0.00     0.015 A 
ATOM      8  CAC 77X d   1      -2.078  11.960  26.352  0.00  0.00     0.066 A 
ATOM      9  NAB 77X d   1      -2.750  10.802  26.427  0.00  0.00    -0.178 NA
ATOM     10  NAA 77X d   1      -3.551  10.671  25.485  0.00  0.00    -0.277 N 
ATOM     11  CAE 77X d   1      -3.475  11.683  24.635  0.00  0.00     0.070 A 
ATOM     12  H6  77X d   1      -1.534  14.625  27.437  0.00  0.00     0.065 H 
ATOM     13  H7  77X d   1       0.228  14.279  27.397  0.00  0.00     0.065 H 
ATOM     14  H8  77X d   1      -1.401  12.442  28.333  0.00  0.00     0.044 H 
ATOM     15  H9  77X d   1      -0.102  11.950  27.195  0.00  0.00     0.044 H 
ATOM     16  H10 77X d   1      -1.751  13.853  23.638  0.00  0.00     0.071 H 
ATOM     17  H11 77X d   1      -2.732  14.693  24.886  0.00  0.00     0.071 H 
ATOM     18  H12 77X d   1      -4.194   9.873  25.379  0.00  0.00     0.189 HD
ENDROOT
BRANCH  11  19
ATOM     19  CAJ 77X d   1      -4.248  11.820  23.461  0.00  0.00    -0.007 A 
ATOM     20  CAK 77X d   1      -4.525  10.694  22.686  0.00  0.00    -0.071 A 
ATOM     21  CAL 77X d   1      -5.302  10.850  21.551  0.00  0.00    -0.082 A 
ATOM     22  H13 77X d   1      -4.141   9.720  22.966  0.00  0.00     0.084 H 
ATOM     23  CAM 77X d   1      -5.822  12.082  21.174  0.00  0.00    -0.083 A 
ATOM     24  H14 77X d   1      -5.512   9.982  20.936  0.00  0.00     0.083 H 
ATOM     25  CAN 77X d   1      -5.566  13.211  21.932  0.00  0.00    -0.082 A 
ATOM     26  H15 77X d   1      -6.432  12.159  20.281  0.00  0.00     0.083 H 
ATOM     27  CAO 77X d   1      -4.783  13.045  23.069  0.00  0.00    -0.071 A 
ATOM     28  H16 77X d   1      -5.958  14.182  21.652  0.00  0.00     0.083 H 
ATOM     29  H17 77X d   1      -4.578  13.915  23.683  0.00  0.00     0.084 H 
ENDBRANCH  11  19
BRANCH   1  30
ATOM     30  CAR 77X d   1       0.280  14.742  23.321  0.00  0.00     0.006 C 
ATOM     31  H4  77X d   1      -0.403  13.970  22.936  0.00  0.00     0.046 H 
ATOM     32  H5  77X d   1      -0.133  15.738  23.103  0.00  0.00     0.046 H 
BRANCH  30  33
ATOM     33  CAS 77X d   1       1.599  14.609  22.594  0.00  0.00    -0.068 C 
ATOM     34  H1  77X d   1       1.437  14.736  21.514  0.00  0.00     0.028 H 
ATOM     35  H2  77X d   1       2.025  13.613  22.786  0.00  0.00     0.028 H 
ATOM     36  H3  77X d   1       2.295  15.381  22.953  0.00  0.00     0.028 H 
ENDBRANCH  30  33
ENDBRANCH   1  30
TORSDOF 3
