REMARK  8 active torsions:
REMARK  status: ('A' for Active; 'I' for Inactive)
REMARK    1  A    between atoms: NAV_6  and  CAU_7 
REMARK    2  A    between atoms: CAU_7  and  CAT_8 
REMARK    3  A    between atoms: CAT_8  and  NAR_9 
REMARK       I    between atoms: NAR_9  and  CAQ_10 
REMARK    4  A    between atoms: CAQ_10  and  CAM_12 
REMARK    5  A    between atoms: CAI_27  and  NBB_28 
REMARK    6  A    between atoms: NBB_28  and  CBC_29 
REMARK    7  A    between atoms: CBE_36  and  NBK_37 
REMARK       I    between atoms: NBK_37  and  CBL_38 
REMARK    8  A    between atoms: CBL_38  and  CBM_40 
ROOT
ATOM      1  CAM 78L d   1      18.814   5.924 -26.593  0.00  0.00     0.033 A 
ATOM      2  CAL 78L d   1      19.113   4.512 -26.534  0.00  0.00    -0.053 A 
ATOM      3  CAA 78L d   1      18.407   3.563 -25.756  0.00  0.00     0.022 A 
ATOM      4  CAG 78L d   1      18.809   2.191 -25.799  0.00  0.00     0.193 C 
ATOM      5  OAP 78L d   1      19.132   1.701 -26.898  0.00  0.00    -0.287 OA
ATOM      6  CAN 78L d   1      17.725   6.323 -25.806  0.00  0.00    -0.067 A 
ATOM      7  CAO 78L d   1      17.017   5.396 -25.031  0.00  0.00    -0.075 A 
ATOM      8  CAB 78L d   1      17.348   4.029 -25.018  0.00  0.00    -0.044 A 
ATOM      9  CAC 78L d   1      16.604   3.195 -24.138  0.00  0.00    -0.036 C 
ATOM     10  CAD 78L d   1      17.606   2.731 -22.987  0.00  0.00    -0.036 C 
ATOM     11  CAE 78L d   1      18.340   1.590 -23.405  0.00  0.00    -0.042 A 
ATOM     12  CAH 78L d   1      18.531   0.633 -22.385  0.00  0.00    -0.050 A 
ATOM     13  CAF 78L d   1      18.861   1.347 -24.671  0.00  0.00     0.021 A 
ATOM     14  CAK 78L d   1      19.531   0.130 -24.905  0.00  0.00    -0.067 A 
ATOM     15  CAJ 78L d   1      19.684  -0.834 -23.895  0.00  0.00    -0.056 A 
ATOM     16  CAI 78L d   1      19.201  -0.592 -22.603  0.00  0.00     0.033 A 
ATOM     17  H12 78L d   1      19.942   4.151 -27.132  0.00  0.00     0.086 H 
ATOM     18  H13 78L d   1      17.426   7.365 -25.797  0.00  0.00     0.085 H 
ATOM     19  H14 78L d   1      16.189   5.742 -24.423  0.00  0.00     0.084 H 
ATOM     20  H15 78L d   1      16.219   2.319 -24.681  0.00  0.00     0.040 H 
ATOM     21  H16 78L d   1      15.763   3.756 -23.705  0.00  0.00     0.040 H 
ATOM     22  H17 78L d   1      17.030   2.482 -22.083  0.00  0.00     0.040 H 
ATOM     23  H18 78L d   1      18.305   3.550 -22.762  0.00  0.00     0.040 H 
ATOM     24  H19 78L d   1      18.148   0.847 -21.394  0.00  0.00     0.087 H 
ATOM     25  H20 78L d   1      19.939  -0.068 -25.890  0.00  0.00     0.085 H 
ATOM     26  H21 78L d   1      20.180  -1.772 -24.117  0.00  0.00     0.086 H 
ENDROOT
BRANCH  16  27
ATOM     27  NBB 78L d   1      19.319  -1.427 -21.540  0.00  0.00    -0.354 N 
ATOM     28  H22 78L d   1      18.753  -1.178 -20.716  0.00  0.00     0.166 HD
BRANCH  27  29
ATOM     29  CBC 78L d   1      20.082  -2.550 -21.410  0.00  0.00     0.074 A 
ATOM     30  CBD 78L d   1      19.484  -3.620 -20.760  0.00  0.00    -0.025 A 
ATOM     31  CBE 78L d   1      20.148  -4.827 -20.569  0.00  0.00     0.076 A 
ATOM     32  H23 78L d   1      18.471  -3.512 -20.391  0.00  0.00     0.090 H 
ATOM     33  CBF 78L d   1      21.480  -4.907 -21.000  0.00  0.00     0.146 A 
ATOM     34  CBG 78L d   1      22.110  -3.825 -21.619  0.00  0.00    -0.004 A 
ATOM     35  FBJ 78L d   1      22.226  -6.107 -20.823  0.00  0.00    -0.204 F 
ATOM     36  CBH 78L d   1      21.435  -2.644 -21.817  0.00  0.00     0.146 A 
ATOM     37  H24 78L d   1      23.139  -3.917 -21.946  0.00  0.00     0.093 H 
ATOM     38  FBI 78L d   1      22.059  -1.765 -22.387  0.00  0.00    -0.204 F 
BRANCH  31  39
ATOM     39  NBK 78L d   1      19.635  -5.943 -19.945  0.00  0.00    -0.320 N 
ATOM     40  CBL 78L d   1      18.320  -6.330 -20.064  0.00  0.00     0.263 C 
ATOM     41  OBN 78L d   1      17.452  -5.708 -20.699  0.00  0.00    -0.267 OA
ATOM     42  H25 78L d   1      20.246  -6.497 -19.380  0.00  0.00     0.169 HD
BRANCH  40  43
ATOM     43  CBM 78L d   1      17.910  -7.444 -19.384  0.00  0.00     0.072 A 
ATOM     44  SBR 78L d   1      16.653  -8.459 -19.924  0.00  0.00    -0.097 SA
ATOM     45  CBQ 78L d   1      16.790  -9.491 -18.540  0.00  0.00    -0.044 A 
ATOM     46  CBP 78L d   1      17.758  -9.019 -17.739  0.00  0.00    -0.075 A 
ATOM     47  H26 78L d   1      16.188 -10.379 -18.350  0.00  0.00     0.095 H 
ATOM     48  CBO 78L d   1      18.352  -7.914 -18.192  0.00  0.00    -0.060 A 
ATOM     49  H27 78L d   1      18.035  -9.497 -16.800  0.00  0.00     0.084 H 
ATOM     50  H28 78L d   1      19.146  -7.418 -17.636  0.00  0.00     0.085 H 
ENDBRANCH  40  43
ENDBRANCH  31  39
ENDBRANCH  27  29
ENDBRANCH  16  27
BRANCH   1  51
ATOM     51  CAQ 78L d   1      19.631   6.779 -27.415  0.00  0.00     0.255 C 
ATOM     52  NAR 78L d   1      19.773   8.128 -27.208  0.00  0.00    -0.332 N 
ATOM     53  H11 78L d   1      20.405   8.581 -27.836  0.00  0.00     0.168 HD
ATOM     54  OAS 78L d   1      20.377   6.265 -28.257  0.00  0.00    -0.267 OA
BRANCH  52  55
ATOM     55  CAT 78L d   1      19.135   9.043 -26.191  0.00  0.00    -0.010 C 
ATOM     56  H10 78L d   1      18.405   8.683 -25.468  0.00  0.00     0.112 H 
BRANCH  55  57
ATOM     57  CAU 78L d   1      19.460  10.122 -26.225  0.00  0.00    -0.027 C 
ATOM     58  H9  78L d   1      18.860  10.884 -25.729  0.00  0.00     0.104 H 
BRANCH  57  59
ATOM     59  NAV 78L d   1      20.708  10.513 -26.946  0.00  0.00    -0.287 NA
ATOM     60  CAW 78L d   1      20.444  11.521 -27.997  0.00  0.00     0.003 C 
ATOM     61  CAX 78L d   1      21.735  11.930 -28.730  0.00  0.00     0.031 C 
ATOM     62  H1  78L d   1      19.738  11.098 -28.727  0.00  0.00     0.059 H 
ATOM     63  H2  78L d   1      20.000  12.413 -27.532  0.00  0.00     0.059 H 
ATOM     64  OAY 78L d   1      22.753  12.364 -27.790  0.00  0.00    -0.389 OA
ATOM     65  H3  78L d   1      21.510  12.755 -29.422  0.00  0.00     0.076 H 
ATOM     66  H4  78L d   1      22.114  11.068 -29.298  0.00  0.00     0.076 H 
ATOM     67  CAZ 78L d   1      22.992  11.449 -26.719  0.00  0.00     0.031 C 
ATOM     68  CBA 78L d   1      21.693  11.108 -26.003  0.00  0.00     0.003 C 
ATOM     69  H5  78L d   1      23.690  11.906 -26.002  0.00  0.00     0.076 H 
ATOM     70  H6  78L d   1      23.434  10.527 -27.124  0.00  0.00     0.076 H 
ATOM     71  H7  78L d   1      21.268  12.026 -25.570  0.00  0.00     0.059 H 
ATOM     72  H8  78L d   1      21.903  10.387 -25.199  0.00  0.00     0.059 H 
ENDBRANCH  57  59
ENDBRANCH  55  57
ENDBRANCH  52  55
ENDBRANCH   1  51
TORSDOF 8
