REMARK  5 active torsions:
REMARK  status: ('A' for Active; 'I' for Inactive)
REMARK    1  A    between atoms: C8_5  and  O1_10 
REMARK    2  A    between atoms: O1_10  and  C1_11 
REMARK    3  A    between atoms: C12_18  and  O4_19 
REMARK    4  A    between atoms: C4_20  and  S1_21 
REMARK    5  A    between atoms: S1_21  and  C16_22 
ROOT
ATOM      1  N1  79A d   1      18.441   1.963  -8.638  0.00  0.00    -0.191 NA
ATOM      2  C17 79A d   1      18.993   1.124  -9.264  0.00  0.00     0.099 C 
ATOM      3  C6  79A d   1      19.660   0.223  -9.932  0.00  0.00     0.050 A 
ATOM      4  C7  79A d   1      20.931   0.481 -10.449  0.00  0.00    -0.030 A 
ATOM      5  C8  79A d   1      21.577  -0.506 -11.164  0.00  0.00     0.080 A 
ATOM      6  C9  79A d   1      20.974  -1.739 -11.430  0.00  0.00    -0.013 A 
ATOM      7  C10 79A d   1      19.707  -1.996 -10.899  0.00  0.00     0.120 A 
ATOM      8  F1  79A d   1      19.080  -3.186 -11.078  0.00  0.00    -0.206 F 
ATOM      9  C5  79A d   1      19.080  -1.006 -10.167  0.00  0.00    -0.025 A 
ATOM     10  H1  79A d   1      21.404   1.444 -10.291  0.00  0.00     0.090 H 
ATOM     11  H2  79A d   1      21.480  -2.482 -12.037  0.00  0.00     0.092 H 
ATOM     12  H3  79A d   1      18.094  -1.203  -9.762  0.00  0.00     0.090 H 
ENDROOT
BRANCH   5  13
ATOM     13  O1  79A d   1      22.789  -0.124 -11.649  0.00  0.00    -0.310 OA
BRANCH  13  14
ATOM     14  C1  79A d   1      23.852  -0.285 -10.804  0.00  0.00     0.083 A 
ATOM     15  C14 79A d   1      25.014   0.103 -11.392  0.00  0.00    -0.008 A 
ATOM     16  C15 79A d   1      25.215   0.646 -12.798  0.00  0.00     0.026 C 
ATOM     17  C13 79A d   1      26.191  -0.063 -10.690  0.00  0.00     0.007 A 
ATOM     18  C11 79A d   1      26.709   0.396 -12.998  0.00  0.00     0.277 C 
ATOM     19  H4  79A d   1      24.974   1.718 -12.855  0.00  0.00     0.049 H 
ATOM     20  H5  79A d   1      24.611   0.095 -13.534  0.00  0.00     0.049 H 
ATOM     21  F3  79A d   1      27.186   1.299 -13.846  0.00  0.00    -0.203 F 
ATOM     22  F2  79A d   1      26.866  -0.788 -13.547  0.00  0.00    -0.203 F 
ATOM     23  C12 79A d   1      27.304   0.394 -11.565  0.00  0.00     0.126 C 
ATOM     24  H6  79A d   1      28.181  -0.266 -11.492  0.00  0.00     0.100 H 
ATOM     25  C4  79A d   1      26.172  -0.585  -9.390  0.00  0.00     0.068 A 
ATOM     26  C3  79A d   1      24.994  -0.935  -8.757  0.00  0.00    -0.059 A 
ATOM     27  C2  79A d   1      23.769  -0.779  -9.506  0.00  0.00    -0.048 A 
ATOM     28  H11 79A d   1      24.990  -1.311  -7.740  0.00  0.00     0.086 H 
ATOM     29  H12 79A d   1      22.812  -1.040  -9.069  0.00  0.00     0.087 H 
BRANCH  23  30
ATOM     30  O4  79A d   1      27.634   1.726 -11.186  0.00  0.00    -0.385 OA
ATOM     31  H7  79A d   1      28.345   2.042 -11.732  0.00  0.00     0.210 HD
ENDBRANCH  23  30
BRANCH  25  32
ATOM     32  S1  79A d   1      27.588  -0.747  -8.548  0.00  0.00     0.172 S 
ATOM     33  O3  79A d   1      27.223  -1.585  -7.442  0.00  0.00    -0.223 OA
ATOM     34  O2  79A d   1      28.463  -1.390  -9.478  0.00  0.00    -0.223 OA
BRANCH  32  35
ATOM     35  C16 79A d   1      27.906   0.824  -8.226  0.00  0.00     0.020 C 
ATOM     36  H8  79A d   1      28.843   0.899  -7.654  0.00  0.00     0.049 H 
ATOM     37  H9  79A d   1      27.081   1.252  -7.637  0.00  0.00     0.049 H 
ATOM     38  H10 79A d   1      28.008   1.379  -9.171  0.00  0.00     0.049 H 
ENDBRANCH  32  35
ENDBRANCH  25  32
ENDBRANCH  13  14
ENDBRANCH   5  13
TORSDOF 5
