REMARK  4 active torsions:
REMARK  status: ('A' for Active; 'I' for Inactive)
REMARK    1  A    between atoms: C14_4  and  C19_1 
REMARK    2  A    between atoms: C19_1  and  O20_20 
REMARK    3  A    between atoms: C10_5  and  C13_8 
REMARK    4  A    between atoms: C05_13  and  C07_15 
ROOT
ATOM      1  C17 79V d   1      71.397 -10.945  21.175  0.00  0.00     0.093 C 
ATOM      2  C16 79V d   1      70.698 -10.126  22.177  0.00  0.00     0.193 C 
ATOM      3  C14 79V d   1      70.133  -9.878  24.224  0.00  0.00     0.133 C 
ATOM      4  C13 79V d   1      69.605 -10.795  23.079  0.00  0.00     0.041 C 
ATOM      5  N15 79V d   1      71.495  -9.909  23.467  0.00  0.00    -0.051 N 
ATOM      6  N18 79V d   1      71.936 -11.599  20.370  0.00  0.00    -0.195 NA
ATOM      7  H3  79V d   1      70.355  -9.201  21.690  0.00  0.00     0.109 H 
ATOM      8  H4  79V d   1      70.144 -10.372  25.207  0.00  0.00     0.088 H 
ATOM      9  H7  79V d   1      69.828 -11.855  23.272  0.00  0.00     0.055 H 
ATOM     10  H14 79V d   1      72.014  -9.046  23.500  0.00  0.00     0.279 HD
ATOM     11  H15 79V d   1      72.100 -10.674  23.721  0.00  0.00     0.279 HD
ENDROOT
BRANCH   4  12
ATOM     12  C10 79V d   1      68.118 -10.757  22.661  0.00  0.00    -0.049 A 
ATOM     13  C11 79V d   1      67.673 -10.339  21.363  0.00  0.00    -0.075 A 
ATOM     14  C12 79V d   1      66.287 -10.343  21.011  0.00  0.00    -0.072 A 
ATOM     15  H5  79V d   1      68.404 -10.013  20.632  0.00  0.00     0.084 H 
ATOM     16  C07 79V d   1      65.282 -10.757  21.930  0.00  0.00    -0.023 A 
ATOM     17  H6  79V d   1      65.994 -10.022  20.018  0.00  0.00     0.084 H 
ATOM     18  C08 79V d   1      65.730 -11.188  23.209  0.00  0.00    -0.072 A 
ATOM     19  C09 79V d   1      67.103 -11.188  23.563  0.00  0.00    -0.075 A 
ATOM     20  H12 79V d   1      65.000 -11.527  23.935  0.00  0.00     0.084 H 
ATOM     21  H13 79V d   1      67.390 -11.527  24.552  0.00  0.00     0.084 H 
BRANCH  16  22
ATOM     22  C05 79V d   1      63.794 -10.812  21.580  0.00  0.00     0.013 A 
ATOM     23  C04 79V d   1      63.347 -11.585  20.443  0.00  0.00     0.127 A 
ATOM     24  C03 79V d   1      61.955 -11.679  20.126  0.00  0.00    -0.045 A 
ATOM     25  F21 79V d   1      64.229 -12.203  19.671  0.00  0.00    -0.205 F 
ATOM     26  C02 79V d   1      60.992 -11.034  20.934  0.00  0.00    -0.080 A 
ATOM     27  H10 79V d   1      61.637 -12.249  19.260  0.00  0.00     0.088 H 
ATOM     28  C01 79V d   1      61.411 -10.288  22.058  0.00  0.00    -0.082 A 
ATOM     29  H9  79V d   1      59.938 -11.111  20.693  0.00  0.00     0.083 H 
ATOM     30  C06 79V d   1      62.789 -10.193  22.372  0.00  0.00    -0.069 A 
ATOM     31  H8  79V d   1      60.678  -9.788  22.680  0.00  0.00     0.083 H 
ATOM     32  H11 79V d   1      63.088  -9.628  23.248  0.00  0.00     0.085 H 
ENDBRANCH  16  22
ENDBRANCH   4  12
BRANCH   3  33
ATOM     33  C19 79V d   1      69.552  -8.485  24.402  0.00  0.00     0.044 C 
ATOM     34  H1  79V d   1      69.559  -8.253  25.477  0.00  0.00     0.077 H 
ATOM     35  H2  79V d   1      68.514  -8.504  24.037  0.00  0.00     0.077 H 
BRANCH  33  36
ATOM     36  O20 79V d   1      70.272  -7.370  23.685  0.00  0.00    -0.399 OA
ATOM     37  H16 79V d   1      70.267  -7.541  22.750  0.00  0.00     0.209 HD
ENDBRANCH  33  36
ENDBRANCH   3  33
TORSDOF 4
