REMARK  12 active torsions:
REMARK  status: ('A' for Active; 'I' for Inactive)
REMARK    1  A    between atoms: C2_2  and  O26_27 
REMARK    2  A    between atoms: C3_3  and  O25_25 
REMARK    3  A    between atoms: C7_7  and  C4_4 
REMARK       I    between atoms: N8_8  and  C7_7 
REMARK    4  A    between atoms: C10_10  and  N8_8 
REMARK    5  A    between atoms: C11_11  and  C10_10 
REMARK    6  A    between atoms: C12_12  and  C11_11 
REMARK    7  A    between atoms: C23_24  and  C12_12 
REMARK       I    between atoms: N14_13  and  C15_14 
REMARK    8  A    between atoms: C13_26  and  N14_13 
REMARK    9  A    between atoms: C15_14  and  C16_15 
REMARK   10  A    between atoms: C18_17  and  O23_22 
REMARK   11  A    between atoms: C19_18  and  O24_23 
REMARK   12  A    between atoms: C23_24  and  C13_26 
ROOT
ATOM      1  C12 5LC d   1     -14.587   6.695   1.711  0.00  0.00    -0.062 C 
ATOM      2  H9  5LC d   1     -15.417   6.330   2.334  0.00  0.00     0.033 H 
ATOM      3  H10 5LC d   1     -13.633   6.336   2.124  0.00  0.00     0.033 H 
ENDROOT
BRANCH   1   4
ATOM      4  C11 5LC d   1     -14.591   8.230   1.717  0.00  0.00    -0.050 C 
ATOM      5  H7  5LC d   1     -14.476   8.558   0.673  0.00  0.00     0.035 H 
ATOM      6  H8  5LC d   1     -15.573   8.550   2.095  0.00  0.00     0.035 H 
BRANCH   4   7
ATOM      7  C10 5LC d   1     -13.529   8.964   2.541  0.00  0.00    -0.004 C 
ATOM      8  H5  5LC d   1     -13.667  10.044   2.383  0.00  0.00     0.064 H 
ATOM      9  H6  5LC d   1     -13.699   8.723   3.601  0.00  0.00     0.064 H 
BRANCH   7  10
ATOM     10  N8  5LC d   1     -12.148   8.642   2.228  0.00  0.00    -0.357 N 
ATOM     11  C7  5LC d   1     -11.090   9.475   2.190  0.00  0.00     0.254 C 
ATOM     12  O9  5LC d   1     -11.164  10.704   2.294  0.00  0.00    -0.268 OA
ATOM     13  H4  5LC d   1     -11.959   7.684   2.014  0.00  0.00     0.162 HD
BRANCH  11  14
ATOM     14  C4  5LC d   1      -9.736   8.823   1.892  0.00  0.00     0.067 A 
ATOM     15  C3  5LC d   1      -9.578   7.462   1.996  0.00  0.00     0.114 A 
ATOM     16  C2  5LC d   1      -8.390   6.871   1.608  0.00  0.00     0.099 A 
ATOM     17  C1  5LC d   1      -7.329   7.625   1.159  0.00  0.00    -0.048 A 
ATOM     18  C6  5LC d   1      -7.468   8.989   1.036  0.00  0.00    -0.079 A 
ATOM     19  H1  5LC d   1      -6.390   7.147   0.904  0.00  0.00     0.087 H 
ATOM     20  C5  5LC d   1      -8.661   9.587   1.391  0.00  0.00    -0.065 A 
ATOM     21  H3  5LC d   1      -6.646   9.590   0.663  0.00  0.00     0.083 H 
ATOM     22  H2  5LC d   1      -8.773  10.660   1.283  0.00  0.00     0.085 H 
BRANCH  15  23
ATOM     23  O25 5LC d   1     -10.569   6.648   2.498  0.00  0.00    -0.357 OA
ATOM     24  H19 5LC d   1     -10.271   5.746   2.489  0.00  0.00     0.217 HD
ENDBRANCH  15  23
BRANCH  16  25
ATOM     25  O26 5LC d   1      -8.310   5.537   1.770  0.00  0.00    -0.358 OA
ATOM     26  H22 5LC d   1      -8.422   5.323   2.689  0.00  0.00     0.217 HD
ENDBRANCH  16  25
ENDBRANCH  11  14
ENDBRANCH   7  10
ENDBRANCH   4   7
ENDBRANCH   1   4
BRANCH   1  27
ATOM     27  C23 5LC d   1     -14.751   6.159   0.302  0.00  0.00    -0.050 C 
ATOM     28  H17 5LC d   1     -13.941   6.600  -0.297  0.00  0.00     0.035 H 
ATOM     29  H18 5LC d   1     -15.720   6.529  -0.063  0.00  0.00     0.035 H 
BRANCH  27  30
ATOM     30  C13 5LC d   1     -14.728   4.684   0.030  0.00  0.00    -0.004 C 
ATOM     31  H20 5LC d   1     -15.424   4.200   0.731  0.00  0.00     0.064 H 
ATOM     32  H21 5LC d   1     -15.076   4.525  -1.001  0.00  0.00     0.064 H 
BRANCH  30  33
ATOM     33  N14 5LC d   1     -13.421   4.034   0.171  0.00  0.00    -0.357 N 
ATOM     34  C15 5LC d   1     -12.979   3.086  -0.625  0.00  0.00     0.254 C 
ATOM     35  O17 5LC d   1     -13.562   2.802  -1.666  0.00  0.00    -0.268 OA
ATOM     36  H11 5LC d   1     -12.829   4.331   0.920  0.00  0.00     0.162 HD
BRANCH  34  37
ATOM     37  C16 5LC d   1     -11.745   2.300  -0.192  0.00  0.00     0.067 A 
ATOM     38  C18 5LC d   1     -10.973   2.797   0.832  0.00  0.00     0.114 A 
ATOM     39  C19 5LC d   1      -9.864   2.121   1.308  0.00  0.00     0.099 A 
ATOM     40  C20 5LC d   1      -9.485   0.921   0.732  0.00  0.00    -0.048 A 
ATOM     41  C21 5LC d   1     -10.252   0.404  -0.325  0.00  0.00    -0.079 A 
ATOM     42  H12 5LC d   1      -8.611   0.389   1.091  0.00  0.00     0.087 H 
ATOM     43  C22 5LC d   1     -11.372   1.080  -0.802  0.00  0.00    -0.065 A 
ATOM     44  H13 5LC d   1      -9.967  -0.539  -0.778  0.00  0.00     0.083 H 
ATOM     45  H14 5LC d   1     -11.948   0.678  -1.627  0.00  0.00     0.085 H 
BRANCH  38  46
ATOM     46  O23 5LC d   1     -11.279   3.989   1.444  0.00  0.00    -0.357 OA
ATOM     47  H15 5LC d   1     -11.446   3.836   2.367  0.00  0.00     0.217 HD
ENDBRANCH  38  46
BRANCH  39  48
ATOM     48  O24 5LC d   1      -9.211   2.692   2.377  0.00  0.00    -0.358 OA
ATOM     49  H16 5LC d   1      -9.638   3.509   2.608  0.00  0.00     0.217 HD
ENDBRANCH  39  48
ENDBRANCH  34  37
ENDBRANCH  30  33
ENDBRANCH  27  30
ENDBRANCH   1  27
TORSDOF 12
