REMARK  12 active torsions:
REMARK  status: ('A' for Active; 'I' for Inactive)
REMARK    1  A    between atoms: PA_1  and  O3A_4 
REMARK    2  A    between atoms: O5D_21  and  PA_1 
REMARK    3  A    between atoms: O3A_4  and  PB_5 
REMARK    4  A    between atoms: PB_5  and  O3B_8 
REMARK    5  A    between atoms: O3B_8  and  PG_30 
REMARK    6  A    between atoms: C1D_29  and  N9A_9 
REMARK    7  A    between atoms: N7A_11  and  C7X_12 
REMARK    8  A    between atoms: C2A_17  and  N2A_18 
REMARK    9  A    between atoms: C5D_22  and  O5D_21 
REMARK   10  A    between atoms: C4D_23  and  C5D_22 
REMARK   11  A    between atoms: C3D_25  and  O3D_26 
REMARK   12  A    between atoms: C2D_27  and  O2D_28 
ROOT
ATOM      1  C4D GTG d   1      36.201  64.362  30.099  0.00  0.00     0.089 C 
ATOM      2  O4D GTG d   1      36.976  65.359  30.807  0.00  0.00    -0.353 OA
ATOM      3  C3D GTG d   1      34.763  64.546  30.556  0.00  0.00     0.091 C 
ATOM      4  C2D GTG d   1      34.949  64.973  31.996  0.00  0.00     0.105 C 
ATOM      5  C1D GTG d   1      36.226  65.832  31.914  0.00  0.00     0.139 C 
ATOM      6  H11 GTG d   1      36.544  63.351  30.366  0.00  0.00     0.090 H 
ATOM      7  H12 GTG d   1      34.264  65.332  29.970  0.00  0.00     0.091 H 
ATOM      8  H14 GTG d   1      34.095  65.554  32.374  0.00  0.00     0.093 H 
ATOM      9  H16 GTG d   1      36.803  65.686  32.839  0.00  0.00     0.122 H 
ENDROOT
BRANCH   5  10
ATOM     10  N9A GTG d   1      35.983  67.289  31.747  0.00  0.00    -0.296 N 
ATOM     11  C8A GTG d   1      36.499  68.061  30.784  0.00  0.00     0.049 A 
ATOM     12  N7A GTG d   1      36.159  69.324  30.980  0.00  0.00    -0.340 N 
ATOM     13  H1  GTG d   1      37.111  67.701  29.958  0.00  0.00     0.141 H 
ATOM     14  C5A GTG d   1      35.356  69.387  32.109  0.00  0.00     0.149 A 
ATOM     15  C6A GTG d   1      34.680  70.453  32.754  0.00  0.00     0.290 A 
ATOM     16  C4A GTG d   1      35.263  68.097  32.593  0.00  0.00     0.159 A 
ATOM     17  O6A GTG d   1      34.739  71.662  32.507  0.00  0.00    -0.265 OA
ATOM     18  N1A GTG d   1      33.974  69.987  33.847  0.00  0.00    -0.154 N 
ATOM     19  C2A GTG d   1      33.967  68.690  34.307  0.00  0.00     0.680 A 
ATOM     20  H5  GTG d   1      33.419  70.651  34.348  0.00  0.00     0.187 HD
ATOM     21  N3A GTG d   1      34.603  67.695  33.694  0.00  0.00    -0.174 N 
ATOM     22  H8  GTG d   1      34.591  66.720  34.027  0.00  0.00     0.186 HD
BRANCH  12  23
ATOM     23  C7X GTG d   1      36.574  70.449  30.138  0.00  0.00    -0.013 C 
ATOM     24  H2  GTG d   1      37.208  70.079  29.318  0.00  0.00     0.057 H 
ATOM     25  H3  GTG d   1      37.142  71.171  30.744  0.00  0.00     0.057 H 
ATOM     26  H4  GTG d   1      35.684  70.942  29.720  0.00  0.00     0.057 H 
ENDBRANCH  12  23
BRANCH  19  27
ATOM     27  N2A GTG d   1      33.311  68.451  35.451  0.00  0.00    -0.234 N 
ATOM     28  H6  GTG d   1      33.278  67.496  35.836  0.00  0.00     0.174 HD
ATOM     29  H7  GTG d   1      32.840  69.222  35.946  0.00  0.00     0.174 HD
ENDBRANCH  19  27
ENDBRANCH   5  10
BRANCH   4  30
ATOM     30  O2D GTG d   1      35.140  63.812  32.782  0.00  0.00    -0.388 OA
ATOM     31  H15 GTG d   1      34.379  63.249  32.704  0.00  0.00     0.210 HD
ENDBRANCH   4  30
BRANCH   1  32
ATOM     32  C5D GTG d   1      36.381  64.561  28.635  0.00  0.00     0.058 C 
ATOM     33  H9  GTG d   1      37.434  64.411  28.355  0.00  0.00     0.079 H 
ATOM     34  H10 GTG d   1      35.748  63.859  28.072  0.00  0.00     0.079 H 
BRANCH  32  35
ATOM     35  O5D GTG d   1      35.983  65.909  28.374  0.00  0.00    -0.287 OA
BRANCH  35  36
ATOM     36  PA  GTG d   1      35.882  66.440  26.886  0.00  0.00     0.417 P 
ATOM     37  O1A GTG d   1      34.893  67.535  26.828  0.00  0.00    -0.624 OA
ATOM     38  O2A GTG d   1      35.314  65.239  26.012  0.00  0.00    -0.624 OA
BRANCH  36  39
ATOM     39  O3A GTG d   1      37.288  66.995  26.352  0.00  0.00    -0.180 OA
BRANCH  39  40
ATOM     40  PB  GTG d   1      38.488  67.910  26.892  0.00  0.00     0.428 P 
ATOM     41  O1B GTG d   1      38.643  67.790  28.356  0.00  0.00    -0.624 OA
ATOM     42  O2B GTG d   1      38.347  69.377  26.466  0.00  0.00    -0.624 OA
BRANCH  40  43
ATOM     43  O3B GTG d   1      39.825  67.355  26.247  0.00  0.00    -0.173 OA
BRANCH  43  44
ATOM     44  PG  GTG d   1      40.671  66.158  26.860  0.00  0.00     0.431 P 
ATOM     45  O1G GTG d   1      40.878  65.134  25.805  0.00  0.00    -0.616 OA
ATOM     46  O2G GTG d   1      39.867  65.588  28.066  0.00  0.00    -0.616 OA
ATOM     47  O5E GTG d   1      41.990  66.857  27.459  0.00  0.00    -0.616 OA
ENDBRANCH  43  44
ENDBRANCH  40  43
ENDBRANCH  39  40
ENDBRANCH  36  39
ENDBRANCH  35  36
ENDBRANCH  32  35
ENDBRANCH   1  32
BRANCH   3  48
ATOM     48  O3D GTG d   1      33.996  63.341  30.468  0.00  0.00    -0.390 OA
ATOM     49  H13 GTG d   1      33.109  63.509  30.764  0.00  0.00     0.210 HD
ENDBRANCH   3  48
TORSDOF 12
