REMARK  4 active torsions:
REMARK  status: ('A' for Active; 'I' for Inactive)
REMARK    1  A    between atoms: C2_13  and  C17_9 
REMARK    2  A    between atoms: C11_12  and  S12_22 
REMARK       I    between atoms: N3_17  and  C2_13 
REMARK    3  A    between atoms: C4_14  and  N3_17 
REMARK    4  A    between atoms: S12_22  and  N14_15 
ROOT
ATOM      1  C9  7B1 d   1      -0.219   3.587  84.709  0.00  0.00    -0.046 A 
ATOM      2  C10 7B1 d   1      -0.843   2.620  85.437  0.00  0.00    -0.058 A 
ATOM      3  C16 7B1 d   1      -3.026   3.586  85.056  0.00  0.00    -0.030 A 
ATOM      4  C6  7B1 d   1      -2.375   4.536  84.301  0.00  0.00     0.096 A 
ATOM      5  C7  7B1 d   1      -1.008   4.535  84.146  0.00  0.00     0.108 A 
ATOM      6  C11 7B1 d   1      -2.215   2.612  85.601  0.00  0.00     0.081 A 
ATOM      7  C4  7B1 d   1      -1.913   6.275  82.939  0.00  0.00     0.255 A 
ATOM      8  N5  7B1 d   1      -2.969   5.620  83.654  0.00  0.00    -0.206 NA
ATOM      9  O8  7B1 d   1      -0.608   5.551  83.401  0.00  0.00    -0.276 OA
ATOM     10  H6  7B1 d   1       0.858   3.598  84.585  0.00  0.00     0.087 H 
ATOM     11  H7  7B1 d   1      -0.250   1.839  85.898  0.00  0.00     0.086 H 
ATOM     12  H8  7B1 d   1      -4.099   3.602  85.211  0.00  0.00     0.089 H 
ENDROOT
BRANCH   7  13
ATOM     13  N3  7B1 d   1      -1.916   7.451  82.221  0.00  0.00    -0.286 N 
ATOM     14  C2  7B1 d   1      -2.979   7.905  81.575  0.00  0.00     0.258 C 
ATOM     15  O1  7B1 d   1      -3.999   7.274  81.467  0.00  0.00    -0.267 OA
ATOM     16  H11 7B1 d   1      -1.073   7.988  82.186  0.00  0.00     0.172 HD
BRANCH  14  17
ATOM     17  C17 7B1 d   1      -2.687   9.262  81.093  0.00  0.00     0.032 A 
ATOM     18  C18 7B1 d   1      -3.747  10.106  80.972  0.00  0.00    -0.068 A 
ATOM     19  C19 7B1 d   1      -3.532  11.399  80.539  0.00  0.00    -0.082 A 
ATOM     20  H4  7B1 d   1      -4.748   9.767  81.213  0.00  0.00     0.085 H 
ATOM     21  C20 7B1 d   1      -2.258  11.812  80.246  0.00  0.00    -0.083 A 
ATOM     22  H2  7B1 d   1      -4.365  12.084  80.431  0.00  0.00     0.083 H 
ATOM     23  C21 7B1 d   1      -1.182  10.955  80.371  0.00  0.00    -0.082 A 
ATOM     24  H1  7B1 d   1      -2.092  12.829  79.910  0.00  0.00     0.083 H 
ATOM     25  C22 7B1 d   1      -1.392   9.665  80.798  0.00  0.00    -0.068 A 
ATOM     26  H3  7B1 d   1      -0.181  11.296  80.135  0.00  0.00     0.083 H 
ATOM     27  H5  7B1 d   1      -0.562   8.976  80.902  0.00  0.00     0.085 H 
ENDBRANCH  14  17
ENDBRANCH   7  13
BRANCH   6  28
ATOM     28  S12 7B1 d   1      -2.880   1.307  86.617  0.00  0.00     0.256 S 
ATOM     29  O13 7B1 d   1      -2.323   1.491  87.947  0.00  0.00    -0.201 OA
ATOM     30  O15 7B1 d   1      -4.327   1.418  86.485  0.00  0.00    -0.201 OA
BRANCH  28  31
ATOM     31  N14 7B1 d   1      -2.376  -0.133  86.028  0.00  0.00    -0.324 N 
ATOM     32  H9  7B1 d   1      -2.655  -0.982  86.477  0.00  0.00     0.169 HD
ATOM     33  H10 7B1 d   1      -1.789  -0.165  85.219  0.00  0.00     0.169 HD
ENDBRANCH  28  31
ENDBRANCH   6  28
TORSDOF 4
