REMARK  1 active torsions:
REMARK  status: ('A' for Active; 'I' for Inactive)
REMARK    1  A    between atoms: N2_4  and  O8_5 
ROOT
ATOM      1  C4  BEW d   1      -5.038   3.324  14.117  0.00  0.00    -0.087 A 
ATOM      2  C5  BEW d   1      -5.834   3.743  15.131  0.00  0.00    -0.099 A 
ATOM      3  C6  BEW d   1      -6.241   2.873  16.069  0.00  0.00     0.000 A 
ATOM      4  N2  BEW d   1      -5.060   1.107  15.012  0.00  0.00    -0.251 N 
ATOM      5  C3  BEW d   1      -4.643   1.999  14.050  0.00  0.00     0.036 A 
ATOM      6  C1  BEW d   1      -5.837   1.515  15.999  0.00  0.00     0.104 A 
ATOM      7  S7  BEW d   1      -6.362   0.394  17.207  0.00  0.00    -0.063 SA
ATOM      8  H1  BEW d   1      -4.709   4.029  13.355  0.00  0.00     0.079 H 
ATOM      9  H2  BEW d   1      -6.144   4.786  15.185  0.00  0.00     0.077 H 
ATOM     10  H3  BEW d   1      -7.341   2.878  16.052  0.00  0.00     0.049 H 
ATOM     11  H4  BEW d   1      -5.888   3.260  17.036  0.00  0.00     0.049 H 
ATOM     12  H6  BEW d   1      -3.543   1.994  14.068  0.00  0.00     0.074 H 
ATOM     13  H7  BEW d   1      -4.996   1.611  13.083  0.00  0.00     0.074 H 
ENDROOT
BRANCH   4  14
ATOM     14  O8  BEW d   1      -4.682  -0.167  14.946  0.00  0.00    -0.286 OA
ATOM     15  H5  BEW d   1      -4.990  -0.546  14.131  0.00  0.00     0.244 HD
ENDBRANCH   4  14
TORSDOF 1
