REMARK  30 active torsions:
REMARK  status: ('A' for Active; 'I' for Inactive)
REMARK    1  A    between atoms: N_1  and  CA_2 
REMARK    2  A    between atoms: CA_2  and  C_3 
REMARK    3  A    between atoms: CA_2  and  CB_5 
REMARK       I    between atoms: C_3  and  N_6 
REMARK    4  A    between atoms: N_6  and  CA_7 
REMARK    5  A    between atoms: CA_7  and  C_8 
REMARK    6  A    between atoms: CA_7  and  CB_10 
REMARK       I    between atoms: C_8  and  N_13 
REMARK    7  A    between atoms: CB_10  and  CG1_11 
REMARK    8  A    between atoms: CB_10  and  CG2_12 
REMARK    9  A    between atoms: N_13  and  CA_14 
REMARK   10  A    between atoms: CA_14  and  C_15 
REMARK       I    between atoms: C_15  and  N_17 
REMARK   11  A    between atoms: N_17  and  CA_18 
REMARK   12  A    between atoms: CA_18  and  C_19 
REMARK   13  A    between atoms: CA_18  and  CB_21 
REMARK       I    between atoms: C_19  and  N_25 
REMARK   14  A    between atoms: CB_21  and  CG1_22 
REMARK   15  A    between atoms: CB_21  and  CG2_23 
REMARK   16  A    between atoms: CG1_22  and  CD1_24 
REMARK   17  A    between atoms: N_25  and  CA_26 
REMARK   18  A    between atoms: CA_26  and  C_27 
REMARK       I    between atoms: C_27  and  N_29 
REMARK   19  A    between atoms: N_29  and  CA_30 
REMARK   20  A    between atoms: CA_30  and  C_31 
REMARK   21  A    between atoms: CA_30  and  CB_33 
REMARK       I    between atoms: C_31  and  N_34 
REMARK   22  A    between atoms: N_34  and  CA_35 
REMARK   23  A    between atoms: CA_35  and  C_36 
REMARK   24  A    between atoms: CA_35  and  CB_38 
REMARK       I    between atoms: C_36  and  N_41 
REMARK   25  A    between atoms: CB_38  and  CG1_39 
REMARK   26  A    between atoms: CB_38  and  CG2_40 
REMARK   27  A    between atoms: N_41  and  CA_42 
REMARK   28  A    between atoms: CA_42  and  C_43 
REMARK   29  A    between atoms: CA_42  and  CB_45 
REMARK   30  A    between atoms: CB_45  and  CG_46 
ROOT
ATOM      1  N   GLY d   1      -2.178 108.075  75.376  0.00  0.00    -0.351 N 
ATOM      2  H31 GLY d   1      -2.766 108.692  74.853  0.00  0.00     0.163 HD
ATOM      3  C   ILE d   1      -1.102 107.545  74.805  0.00  0.00     0.241 C 
ATOM      4  O   ILE d   1      -0.361 106.764  75.416  0.00  0.00    -0.271 OA
ENDROOT
BRANCH   3   5
ATOM      5  CA  ILE d   1      -0.788 107.911  73.367  0.00  0.00     0.092 C 
ATOM      6  H21 ILE d   1      -0.430 107.003  72.860  0.00  0.00     0.088 H 
BRANCH   5   7
ATOM      7  N   ILE d   1      -1.982 108.374  72.660  0.00  0.00    -0.346 N 
ATOM      8  C   GLY d   1      -2.886 107.485  72.245  0.00  0.00     0.236 C 
ATOM      9  O   GLY d   1      -2.811 106.284  72.527  0.00  0.00    -0.272 OA
ATOM     10  H20 ILE d   1      -2.120 109.350  72.489  0.00  0.00     0.163 HD
BRANCH   8  11
ATOM     11  CA  GLY d   1      -4.012 108.038  71.393  0.00  0.00     0.069 C 
ATOM     12  H18 GLY d   1      -4.859 108.299  72.045  0.00  0.00     0.078 H 
ATOM     13  H19 GLY d   1      -3.658 108.940  70.874  0.00  0.00     0.078 H 
BRANCH  11  14
ATOM     14  N   GLY d   1      -4.455 107.071  70.409  0.00  0.00    -0.351 N 
ATOM     15  C   VAL d   1      -5.558 106.358  70.483  0.00  0.00     0.241 C 
ATOM     16  O   VAL d   1      -6.419 106.570  71.346  0.00  0.00    -0.271 OA
ATOM     17  H17 GLY d   1      -3.874 106.934  69.607  0.00  0.00     0.163 HD
BRANCH  15  18
ATOM     18  CA  VAL d   1      -5.756 105.284  69.418  0.00  0.00     0.092 C 
ATOM     19  H9  VAL d   1      -6.802 104.947  69.465  0.00  0.00     0.088 H 
BRANCH  18  20
ATOM     20  N   VAL d   1      -5.508 105.830  68.083  0.00  0.00    -0.346 N 
ATOM     21  C   ALA d   1      -6.283 106.790  67.577  0.00  0.00     0.248 C 
ATOM     22  O   ALA d   1      -7.276 107.243  68.159  0.00  0.00    -0.271 OA
ATOM     23  H8  VAL d   1      -4.745 105.477  67.541  0.00  0.00     0.163 HD
BRANCH  21  24
ATOM     24  CA  ALA d   1      -5.850 107.354  66.225  0.00  0.00     0.172 C 
ATOM     25  H4  ALA d   1      -5.644 106.518  65.541  0.00  0.00     0.098 H 
BRANCH  24  26
ATOM     26  N   ALA d   1      -6.931 108.157  65.666  0.00  0.00    -0.067 N 
ATOM     27  H1  ALA d   1      -6.646 108.530  64.774  0.00  0.00     0.275 HD
ATOM     28  H2  ALA d   1      -7.145 108.916  66.294  0.00  0.00     0.275 HD
ATOM     29  H3  ALA d   1      -7.749 107.581  65.544  0.00  0.00     0.275 HD
ENDBRANCH  24  26
BRANCH  24  30
ATOM     30  CB  ALA d   1      -4.552 108.191  66.385  0.00  0.00    -0.042 C 
ATOM     31  H5  ALA d   1      -3.758 107.558  66.808  0.00  0.00     0.030 H 
ATOM     32  H6  ALA d   1      -4.743 109.039  67.059  0.00  0.00     0.030 H 
ATOM     33  H7  ALA d   1      -4.236 108.569  65.401  0.00  0.00     0.030 H 
ENDBRANCH  24  30
ENDBRANCH  21  24
ENDBRANCH  18  20
BRANCH  18  34
ATOM     34  CB  VAL d   1      -4.851 104.068  69.663  0.00  0.00    -0.033 C 
ATOM     35  H10 VAL d   1      -3.830 104.313  69.336  0.00  0.00     0.042 H 
BRANCH  34  36
ATOM     36  CG1 VAL d   1      -4.814 103.699  71.158  0.00  0.00    -0.071 C 
ATOM     37  H11 VAL d   1      -4.160 102.827  71.304  0.00  0.00     0.028 H 
ATOM     38  H12 VAL d   1      -5.831 103.457  71.501  0.00  0.00     0.028 H 
ATOM     39  H13 VAL d   1      -4.425 104.550  71.736  0.00  0.00     0.028 H 
ENDBRANCH  34  36
BRANCH  34  40
ATOM     40  CG2 VAL d   1      -5.371 102.883  68.838  0.00  0.00    -0.071 C 
ATOM     41  H14 VAL d   1      -5.393 103.159  67.773  0.00  0.00     0.028 H 
ATOM     42  H15 VAL d   1      -6.387 102.623  69.170  0.00  0.00     0.028 H 
ATOM     43  H16 VAL d   1      -4.706 102.018  68.979  0.00  0.00     0.028 H 
ENDBRANCH  34  40
ENDBRANCH  18  34
ENDBRANCH  15  18
ENDBRANCH  11  14
ENDBRANCH   8  11
ENDBRANCH   5   7
BRANCH   5  44
ATOM     44  CB  ILE d   1       0.338 108.961  73.305  0.00  0.00    -0.030 C 
ATOM     45  H22 ILE d   1       1.265 108.499  73.677  0.00  0.00     0.043 H 
BRANCH  44  46
ATOM     46  CG1 ILE d   1       0.007 110.177  74.166  0.00  0.00    -0.063 C 
ATOM     47  H23 ILE d   1      -0.249 109.827  75.177  0.00  0.00     0.033 H 
ATOM     48  H24 ILE d   1      -0.861 110.689  73.725  0.00  0.00     0.033 H 
BRANCH  46  49
ATOM     49  CD1 ILE d   1       1.156 111.185  74.280  0.00  0.00    -0.076 C 
ATOM     50  H28 ILE d   1       0.842 112.028  74.913  0.00  0.00     0.027 H 
ATOM     51  H29 ILE d   1       1.419 111.556  73.278  0.00  0.00     0.027 H 
ATOM     52  H30 ILE d   1       2.031 110.694  74.731  0.00  0.00     0.027 H 
ENDBRANCH  46  49
ENDBRANCH  44  46
BRANCH  44  53
ATOM     53  CG2 ILE d   1       0.564 109.452  71.853  0.00  0.00    -0.071 C 
ATOM     54  H25 ILE d   1       0.805 108.593  71.209  0.00  0.00     0.028 H 
ATOM     55  H26 ILE d   1       1.397 110.170  71.834  0.00  0.00     0.028 H 
ATOM     56  H27 ILE d   1      -0.350 109.941  71.485  0.00  0.00     0.028 H 
ENDBRANCH  44  53
ENDBRANCH   5  44
ENDBRANCH   3   5
BRANCH   1  57
ATOM     57  CA  GLY d   1      -2.505 107.764  76.754  0.00  0.00     0.069 C 
ATOM     58  H32 GLY d   1      -2.812 108.697  77.249  0.00  0.00     0.078 H 
ATOM     59  H33 GLY d   1      -1.598 107.374  77.238  0.00  0.00     0.078 H 
BRANCH  57  60
ATOM     60  C   GLY d   1      -3.611 106.748  76.948  0.00  0.00     0.236 C 
ATOM     61  O   GLY d   1      -4.023 106.522  78.093  0.00  0.00    -0.272 OA
ATOM     62  N   ALA d   1      -4.104 106.126  75.876  0.00  0.00    -0.347 N 
ATOM     63  H34 ALA d   1      -3.756 106.358  74.968  0.00  0.00     0.163 HD
BRANCH  62  64
ATOM     64  CA  ALA d   1      -5.143 105.113  76.011  0.00  0.00     0.086 C 
ATOM     65  H35 ALA d   1      -5.935 105.502  76.668  0.00  0.00     0.086 H 
BRANCH  64  66
ATOM     66  C   ALA d   1      -4.551 103.860  76.639  0.00  0.00     0.240 C 
ATOM     67  O   ALA d   1      -3.436 103.446  76.310  0.00  0.00    -0.271 OA
ATOM     68  N   VAL d   1      -5.292 103.246  77.542  0.00  0.00    -0.346 N 
ATOM     69  H39 VAL d   1      -6.155 103.659  77.834  0.00  0.00     0.163 HD
BRANCH  68  70
ATOM     70  CA  VAL d   1      -4.875 101.978  78.120  0.00  0.00     0.092 C 
ATOM     71  H40 VAL d   1      -4.083 101.549  77.489  0.00  0.00     0.088 H 
BRANCH  70  72
ATOM     72  C   VAL d   1      -6.048 101.007  78.134  0.00  0.00     0.241 C 
ATOM     73  O   VAL d   1      -7.199 101.421  78.313  0.00  0.00    -0.271 OA
ATOM     74  N   PHE d   1      -5.757  99.729  77.866  0.00  0.00    -0.344 N 
ATOM     75  H48 PHE d   1      -4.922  99.541  77.349  0.00  0.00     0.163 HD
BRANCH  74  76
ATOM     76  CA  PHE d   1      -6.583  98.574  78.280  0.00  0.00     0.100 C 
ATOM     77  H49 PHE d   1      -6.580  98.534  79.379  0.00  0.00     0.090 H 
BRANCH  76  78
ATOM     78  C   PHE d   1      -5.970  97.280  77.745  0.00  0.00     0.197 C 
ATOM     79  O   PHE d   1      -6.322  96.810  76.661  0.00  0.00    -0.646 OA
ATOM     80  OXT PHE d   1      -5.108  96.673  78.384  0.00  0.00    -0.646 OA
ENDBRANCH  76  78
BRANCH  76  81
ATOM     81  CB  PHE d   1      -8.044  98.682  77.815  0.00  0.00    -0.013 C 
ATOM     82  H50 PHE d   1      -8.150  98.125  76.872  0.00  0.00     0.043 H 
ATOM     83  H51 PHE d   1      -8.276  99.743  77.642  0.00  0.00     0.043 H 
BRANCH  81  84
ATOM     84  CG  PHE d   1      -9.043  98.130  78.812  0.00  0.00    -0.056 A 
ATOM     85  CD1 PHE d   1      -8.679  97.129  79.704  0.00  0.00    -0.077 A 
ATOM     86  CE1 PHE d   1      -9.590  96.626  80.620  0.00  0.00    -0.082 A 
ATOM     87  H52 PHE d   1      -7.669  96.736  79.683  0.00  0.00     0.084 H 
ATOM     88  CZ  PHE d   1     -10.880  97.119  80.659  0.00  0.00    -0.083 A 
ATOM     89  H54 PHE d   1      -9.289  95.844  81.308  0.00  0.00     0.083 H 
ATOM     90  CE2 PHE d   1     -11.258  98.117  79.782  0.00  0.00    -0.082 A 
ATOM     91  H56 PHE d   1     -11.592  96.724  81.375  0.00  0.00     0.083 H 
ATOM     92  CD2 PHE d   1     -10.342  98.620  78.864  0.00  0.00    -0.077 A 
ATOM     93  H55 PHE d   1     -12.269  98.508  79.809  0.00  0.00     0.083 H 
ATOM     94  H53 PHE d   1     -10.646  99.404  78.180  0.00  0.00     0.084 H 
ENDBRANCH  81  84
ENDBRANCH  76  81
ENDBRANCH  74  76
ENDBRANCH  70  72
BRANCH  70  95
ATOM     95  CB  VAL d   1      -4.290 102.207  79.536  0.00  0.00    -0.033 C 
ATOM     96  H41 VAL d   1      -3.474 102.939  79.445  0.00  0.00     0.042 H 
BRANCH  95  97
ATOM     97  CG1 VAL d   1      -5.340 102.799  80.480  0.00  0.00    -0.071 C 
ATOM     98  H42 VAL d   1      -4.895 102.950  81.475  0.00  0.00     0.028 H 
ATOM     99  H43 VAL d   1      -6.192 102.108  80.560  0.00  0.00     0.028 H 
ATOM    100  H44 VAL d   1      -5.687 103.765  80.083  0.00  0.00     0.028 H 
ENDBRANCH  95  97
BRANCH  95 101
ATOM    101  CG2 VAL d   1      -3.696 100.925  80.096  0.00  0.00    -0.071 C 
ATOM    102  H45 VAL d   1      -2.948 100.530  79.393  0.00  0.00     0.028 H 
ATOM    103  H46 VAL d   1      -4.495 100.182  80.237  0.00  0.00     0.028 H 
ATOM    104  H47 VAL d   1      -3.215 101.135  81.063  0.00  0.00     0.028 H 
ENDBRANCH  95 101
ENDBRANCH  70  95
ENDBRANCH  68  70
ENDBRANCH  64  66
BRANCH  64 105
ATOM    105  CB  ALA d   1      -5.755 104.781  74.649  0.00  0.00    -0.049 C 
ATOM    106  H36 ALA d   1      -6.535 104.016  74.774  0.00  0.00     0.030 H 
ATOM    107  H37 ALA d   1      -4.971 104.399  73.978  0.00  0.00     0.030 H 
ATOM    108  H38 ALA d   1      -6.199 105.689  74.215  0.00  0.00     0.030 H 
ENDBRANCH  64 105
ENDBRANCH  62  64
ENDBRANCH  57  60
ENDBRANCH   1  57
TORSDOF 30
