REMARK  30 active torsions:
REMARK  status: ('A' for Active; 'I' for Inactive)
REMARK    1  A    between atoms: N_1  and  CA_2 
REMARK    2  A    between atoms: CA_2  and  C_3 
REMARK    3  A    between atoms: CA_2  and  CB_5 
REMARK       I    between atoms: C_3  and  N_6 
REMARK    4  A    between atoms: N_6  and  CA_7 
REMARK    5  A    between atoms: CA_7  and  C_8 
REMARK    6  A    between atoms: CA_7  and  CB_10 
REMARK       I    between atoms: C_8  and  N_13 
REMARK    7  A    between atoms: CB_10  and  CG1_11 
REMARK    8  A    between atoms: CB_10  and  CG2_12 
REMARK    9  A    between atoms: N_13  and  CA_14 
REMARK   10  A    between atoms: CA_14  and  C_15 
REMARK       I    between atoms: C_15  and  N_17 
REMARK   11  A    between atoms: N_17  and  CA_18 
REMARK   12  A    between atoms: CA_18  and  C_19 
REMARK   13  A    between atoms: CA_18  and  CB_21 
REMARK       I    between atoms: C_19  and  N_25 
REMARK   14  A    between atoms: CB_21  and  CG1_22 
REMARK   15  A    between atoms: CB_21  and  CG2_23 
REMARK   16  A    between atoms: CG1_22  and  CD1_24 
REMARK   17  A    between atoms: N_25  and  CA_26 
REMARK   18  A    between atoms: CA_26  and  C_27 
REMARK       I    between atoms: C_27  and  N_29 
REMARK   19  A    between atoms: N_29  and  CA_30 
REMARK   20  A    between atoms: CA_30  and  C_31 
REMARK   21  A    between atoms: CA_30  and  CB_33 
REMARK       I    between atoms: C_31  and  N_34 
REMARK   22  A    between atoms: N_34  and  CA_35 
REMARK   23  A    between atoms: CA_35  and  C_36 
REMARK   24  A    between atoms: CA_35  and  CB_38 
REMARK       I    between atoms: C_36  and  N_41 
REMARK   25  A    between atoms: CB_38  and  CG1_39 
REMARK   26  A    between atoms: CB_38  and  CG2_40 
REMARK   27  A    between atoms: N_41  and  CA_42 
REMARK   28  A    between atoms: CA_42  and  C_43 
REMARK   29  A    between atoms: CA_42  and  CB_45 
REMARK   30  A    between atoms: CB_45  and  CG_46 
ROOT
ATOM      1  N   GLY d   1      36.695  -6.046  39.366  0.00  0.00    -0.351 N 
ATOM      2  H31 GLY d   1      36.087  -6.604  38.801  0.00  0.00     0.163 HD
ATOM      3  C   ILE d   1      38.010  -6.160  39.209  0.00  0.00     0.241 C 
ATOM      4  O   ILE d   1      38.815  -5.515  39.885  0.00  0.00    -0.271 OA
ENDROOT
BRANCH   3   5
ATOM      5  CA  ILE d   1      38.514  -7.138  38.170  0.00  0.00     0.092 C 
ATOM      6  H21 ILE d   1      39.412  -7.630  38.572  0.00  0.00     0.088 H 
BRANCH   5   7
ATOM      7  N   ILE d   1      37.521  -8.167  37.902  0.00  0.00    -0.346 N 
ATOM      8  C   GLY d   1      37.142  -9.021  38.859  0.00  0.00     0.236 C 
ATOM      9  O   GLY d   1      37.534  -8.949  40.043  0.00  0.00    -0.272 OA
ATOM     10  H20 ILE d   1      37.117  -8.237  36.990  0.00  0.00     0.163 HD
BRANCH   8  11
ATOM     11  CA  GLY d   1      36.159 -10.079  38.412  0.00  0.00     0.069 C 
ATOM     12  H18 GLY d   1      35.744  -9.795  37.434  0.00  0.00     0.078 H 
ATOM     13  H19 GLY d   1      36.682 -11.043  38.323  0.00  0.00     0.078 H 
BRANCH  11  14
ATOM     14  N   GLY d   1      35.074 -10.212  39.370  0.00  0.00    -0.351 N 
ATOM     15  C   VAL d   1      34.320  -9.154  39.658  0.00  0.00     0.241 C 
ATOM     16  O   VAL d   1      34.506  -8.038  39.162  0.00  0.00    -0.271 OA
ATOM     17  H17 GLY d   1      34.895 -11.092  39.809  0.00  0.00     0.163 HD
BRANCH  15  18
ATOM     18  CA  VAL d   1      33.216  -9.360  40.682  0.00  0.00     0.092 C 
ATOM     19  H9  VAL d   1      33.670  -9.505  41.673  0.00  0.00     0.088 H 
BRANCH  18  20
ATOM     20  N   VAL d   1      32.425  -8.139  40.699  0.00  0.00    -0.346 N 
ATOM     21  C   ALA d   1      32.305  -7.392  41.799  0.00  0.00     0.248 C 
ATOM     22  O   ALA d   1      32.734  -7.734  42.898  0.00  0.00    -0.271 OA
ATOM     23  H8  VAL d   1      31.958  -7.851  39.863  0.00  0.00     0.163 HD
BRANCH  21  24
ATOM     24  CA  ALA d   1      31.607  -6.053  41.628  0.00  0.00     0.172 C 
ATOM     25  H4  ALA d   1      32.377  -5.271  41.553  0.00  0.00     0.098 H 
BRANCH  24  26
ATOM     26  N   ALA d   1      30.807  -6.019  40.414  0.00  0.00    -0.067 N 
ATOM     27  H1  ALA d   1      30.359  -5.120  40.332  0.00  0.00     0.275 HD
ATOM     28  H2  ALA d   1      30.105  -6.741  40.454  0.00  0.00     0.275 HD
ATOM     29  H3  ALA d   1      31.402  -6.172  39.615  0.00  0.00     0.275 HD
ENDBRANCH  24  26
BRANCH  24  30
ATOM     30  CB  ALA d   1      30.750  -5.762  42.829  0.00  0.00    -0.042 C 
ATOM     31  H5  ALA d   1      31.370  -5.792  43.737  0.00  0.00     0.030 H 
ATOM     32  H6  ALA d   1      29.954  -6.518  42.903  0.00  0.00     0.030 H 
ATOM     33  H7  ALA d   1      30.299  -4.764  42.725  0.00  0.00     0.030 H 
ENDBRANCH  24  30
ENDBRANCH  21  24
ENDBRANCH  18  20
BRANCH  18  34
ATOM     34  CB  VAL d   1      32.365 -10.600  40.366  0.00  0.00    -0.033 C 
ATOM     35  H10 VAL d   1      33.026 -11.479  40.382  0.00  0.00     0.042 H 
BRANCH  34  36
ATOM     36  CG1 VAL d   1      31.309 -10.788  41.453  0.00  0.00    -0.071 C 
ATOM     37  H11 VAL d   1      30.701 -11.676  41.224  0.00  0.00     0.028 H 
ATOM     38  H12 VAL d   1      30.661  -9.900  41.492  0.00  0.00     0.028 H 
ATOM     39  H13 VAL d   1      31.804 -10.923  42.426  0.00  0.00     0.028 H 
ENDBRANCH  34  36
BRANCH  34  40
ATOM     40  CG2 VAL d   1      31.748 -10.517  38.980  0.00  0.00    -0.071 C 
ATOM     41  H14 VAL d   1      32.543 -10.382  38.232  0.00  0.00     0.028 H 
ATOM     42  H15 VAL d   1      31.056  -9.663  38.937  0.00  0.00     0.028 H 
ATOM     43  H16 VAL d   1      31.198 -11.446  38.767  0.00  0.00     0.028 H 
ENDBRANCH  34  40
ENDBRANCH  18  34
ENDBRANCH  15  18
ENDBRANCH  11  14
ENDBRANCH   8  11
ENDBRANCH   5   7
BRANCH   5  44
ATOM     44  CB  ILE d   1      38.917  -6.397  36.874  0.00  0.00    -0.030 C 
ATOM     45  H22 ILE d   1      39.697  -5.665  37.130  0.00  0.00     0.043 H 
BRANCH  44  46
ATOM     46  CG1 ILE d   1      37.727  -5.624  36.302  0.00  0.00    -0.063 C 
ATOM     47  H23 ILE d   1      37.236  -5.079  37.122  0.00  0.00     0.033 H 
ATOM     48  H24 ILE d   1      37.019  -6.343  35.865  0.00  0.00     0.033 H 
BRANCH  46  49
ATOM     49  CD1 ILE d   1      38.129  -4.625  35.227  0.00  0.00    -0.076 C 
ATOM     50  H28 ILE d   1      37.233  -4.104  34.858  0.00  0.00     0.027 H 
ATOM     51  H29 ILE d   1      38.613  -5.157  34.395  0.00  0.00     0.027 H 
ATOM     52  H30 ILE d   1      38.831  -3.892  35.652  0.00  0.00     0.027 H 
ENDBRANCH  46  49
ENDBRANCH  44  46
BRANCH  44  53
ATOM     53  CG2 ILE d   1      39.513  -7.374  35.864  0.00  0.00    -0.071 C 
ATOM     54  H25 ILE d   1      40.362  -7.903  36.322  0.00  0.00     0.028 H 
ATOM     55  H26 ILE d   1      39.860  -6.820  34.979  0.00  0.00     0.028 H 
ATOM     56  H27 ILE d   1      38.746  -8.103  35.563  0.00  0.00     0.028 H 
ENDBRANCH  44  53
ENDBRANCH   5  44
ENDBRANCH   3   5
BRANCH   1  57
ATOM     57  CA  GLY d   1      36.118  -5.133  40.336  0.00  0.00     0.069 C 
ATOM     58  H32 GLY d   1      35.094  -4.898  40.010  0.00  0.00     0.078 H 
ATOM     59  H33 GLY d   1      36.723  -4.215  40.336  0.00  0.00     0.078 H 
BRANCH  57  60
ATOM     60  C   GLY d   1      36.046  -5.640  41.758  0.00  0.00     0.236 C 
ATOM     61  O   GLY d   1      35.668  -4.882  42.654  0.00  0.00    -0.272 OA
ATOM     62  N   ALA d   1      36.406  -6.893  42.011  0.00  0.00    -0.347 N 
ATOM     63  H34 ALA d   1      36.686  -7.490  41.259  0.00  0.00     0.163 HD
BRANCH  62  64
ATOM     64  CA  ALA d   1      36.396  -7.403  43.371  0.00  0.00     0.086 C 
ATOM     65  H35 ALA d   1      35.472  -7.067  43.864  0.00  0.00     0.086 H 
BRANCH  64  66
ATOM     66  C   ALA d   1      37.588  -6.852  44.140  0.00  0.00     0.240 C 
ATOM     67  O   ALA d   1      38.712  -6.792  43.629  0.00  0.00    -0.271 OA
ATOM     68  N   VAL d   1      37.340  -6.437  45.361  0.00  0.00    -0.346 N 
ATOM     69  H39 VAL d   1      36.406  -6.481  45.716  0.00  0.00     0.163 HD
BRANCH  68  70
ATOM     70  CA  VAL d   1      38.404  -5.913  46.207  0.00  0.00     0.092 C 
ATOM     71  H40 VAL d   1      39.208  -5.526  45.564  0.00  0.00     0.088 H 
BRANCH  70  72
ATOM     72  C   VAL d   1      38.956  -7.051  47.044  0.00  0.00     0.241 C 
ATOM     73  O   VAL d   1      38.202  -7.894  47.553  0.00  0.00    -0.271 OA
ATOM     74  N   PHE d   1      40.277  -7.075  47.189  0.00  0.00    -0.344 N 
ATOM     75  H48 PHE d   1      40.824  -6.352  46.767  0.00  0.00     0.163 HD
BRANCH  74  76
ATOM     76  CA  PHE d   1      40.951  -8.120  47.943  0.00  0.00     0.100 C 
ATOM     77  H49 PHE d   1      40.187  -8.703  48.479  0.00  0.00     0.090 H 
BRANCH  76  78
ATOM     78  C   PHE d   1      41.916  -7.531  48.980  0.00  0.00     0.197 C 
ATOM     79  O   PHE d   1      42.437  -8.247  49.841  0.00  0.00    -0.646 OA
ATOM     80  OXT PHE d   1      42.194  -6.328  48.977  0.00  0.00    -0.646 OA
ENDBRANCH  76  78
BRANCH  76  81
ATOM     81  CB  PHE d   1      41.697  -9.060  46.996  0.00  0.00    -0.013 C 
ATOM     82  H50 PHE d   1      42.370  -9.692  47.594  0.00  0.00     0.043 H 
ATOM     83  H51 PHE d   1      42.290  -8.451  46.298  0.00  0.00     0.043 H 
BRANCH  81  84
ATOM     84  CG  PHE d   1      40.793  -9.955  46.194  0.00  0.00    -0.056 A 
ATOM     85  CD1 PHE d   1      40.328 -11.144  46.721  0.00  0.00    -0.077 A 
ATOM     86  CE1 PHE d   1      39.513 -11.990  45.973  0.00  0.00    -0.082 A 
ATOM     87  H52 PHE d   1      40.602 -11.423  47.732  0.00  0.00     0.084 H 
ATOM     88  CZ  PHE d   1      39.154 -11.639  44.690  0.00  0.00    -0.083 A 
ATOM     89  H54 PHE d   1      39.162 -12.923  46.399  0.00  0.00     0.083 H 
ATOM     90  CE2 PHE d   1      39.618 -10.455  44.151  0.00  0.00    -0.082 A 
ATOM     91  H56 PHE d   1      38.511 -12.288  44.107  0.00  0.00     0.083 H 
ATOM     92  CD2 PHE d   1      40.450  -9.629  44.878  0.00  0.00    -0.077 A 
ATOM     93  H55 PHE d   1      39.325 -10.172  43.146  0.00  0.00     0.083 H 
ATOM     94  H53 PHE d   1      40.840  -8.723  44.427  0.00  0.00     0.084 H 
ENDBRANCH  81  84
ENDBRANCH  76  81
ENDBRANCH  74  76
ENDBRANCH  70  72
BRANCH  70  95
ATOM     95  CB  VAL d   1      37.899  -4.759  47.087  0.00  0.00    -0.033 C 
ATOM     96  H41 VAL d   1      37.266  -5.175  47.885  0.00  0.00     0.042 H 
BRANCH  95  97
ATOM     97  CG1 VAL d   1      39.073  -4.050  47.725  0.00  0.00    -0.071 C 
ATOM     98  H42 VAL d   1      38.706  -3.225  48.353  0.00  0.00     0.028 H 
ATOM     99  H43 VAL d   1      39.730  -3.648  46.939  0.00  0.00     0.028 H 
ATOM    100  H44 VAL d   1      39.637  -4.761  48.346  0.00  0.00     0.028 H 
ENDBRANCH  95  97
BRANCH  95 101
ATOM    101  CG2 VAL d   1      37.060  -3.794  46.259  0.00  0.00    -0.071 C 
ATOM    102  H45 VAL d   1      36.216  -4.336  45.808  0.00  0.00     0.028 H 
ATOM    103  H46 VAL d   1      37.682  -3.357  45.464  0.00  0.00     0.028 H 
ATOM    104  H47 VAL d   1      36.677  -2.992  46.907  0.00  0.00     0.028 H 
ENDBRANCH  95 101
ENDBRANCH  70  95
ENDBRANCH  68  70
ENDBRANCH  64  66
BRANCH  64 105
ATOM    105  CB  ALA d   1      36.425  -8.931  43.385  0.00  0.00    -0.049 C 
ATOM    106  H36 ALA d   1      36.417  -9.288  44.425  0.00  0.00     0.030 H 
ATOM    107  H37 ALA d   1      37.337  -9.285  42.883  0.00  0.00     0.030 H 
ATOM    108  H38 ALA d   1      35.542  -9.319  42.857  0.00  0.00     0.030 H 
ENDBRANCH  64 105
ENDBRANCH  62  64
ENDBRANCH  57  60
ENDBRANCH   1  57
TORSDOF 30
