REMARK  18 active torsions:
REMARK  status: ('A' for Active; 'I' for Inactive)
REMARK    1  A    between atoms: C_1  and  OA_3 
REMARK       I    between atoms: N_11  and  C_1 
REMARK    2  A    between atoms: OA_3  and  CB_4 
REMARK    3  A    between atoms: CB_4  and  CG_5 
REMARK    4  A    between atoms: CA_12  and  N_11 
REMARK    5  A    between atoms: P_13  and  CA_12 
REMARK    6  A    between atoms: P_13  and  N_16 
REMARK    7  A    between atoms: N_16  and  CA_17 
REMARK    8  A    between atoms: CA_17  and  CB_20 
REMARK    9  A    between atoms: CA_17  and  C_18 
REMARK       I    between atoms: C_18  and  N_24 
REMARK   10  A    between atoms: CB_20  and  CG_21 
REMARK   11  A    between atoms: CG_21  and  CD1_22 
REMARK   12  A    between atoms: CG_21  and  CD2_23 
REMARK   13  A    between atoms: N_24  and  CA_25 
REMARK   14  A    between atoms: CA_25  and  CB_28 
REMARK   15  A    between atoms: CA_25  and  C_26 
REMARK   16  A    between atoms: CB_28  and  CG_29 
REMARK   17  A    between atoms: CG_29  and  CD1_30 
REMARK   18  A    between atoms: CG_29  and  CD2_31 
ROOT
ATOM      1  CA  0PJ d   1      52.836  18.229  -3.639  0.00  0.00     0.091 C 
ATOM      2  H12 0PJ d   1      53.581  19.013  -3.840  0.00  0.00     0.087 H 
ENDROOT
BRANCH   1   3
ATOM      3  N   0PJ d   1      51.712  18.517  -4.509  0.00  0.00    -0.334 N 
ATOM      4  H11 0PJ d   1      50.807  18.431  -4.093  0.00  0.00     0.164 HD
BRANCH   3   5
ATOM      5  P   0PJ d   1      51.731  18.970  -6.103  0.00  0.00     0.224 P 
ATOM      6  O1P 0PJ d   1      53.074  18.641  -6.573  0.00  0.00    -0.651 OA
ATOM      7  O2P 0PJ d   1      51.501  20.472  -6.137  0.00  0.00    -0.651 OA
BRANCH   5   8
ATOM      8  CA  0PJ d   1      50.444  17.978  -6.700  0.00  0.00     0.086 C 
ATOM      9  H9  0PJ d   1      50.781  16.947  -6.882  0.00  0.00     0.083 H 
ATOM     10  H10 0PJ d   1      49.589  17.968  -6.008  0.00  0.00     0.083 H 
BRANCH   8  11
ATOM     11  N   0PJ d   1      50.131  18.628  -7.886  0.00  0.00    -0.325 N 
ATOM     12  C   0PJ d   1      49.731  17.921  -8.917  0.00  0.00     0.361 C 
ATOM     13  O   0PJ d   1      49.624  16.719  -9.015  0.00  0.00    -0.238 OA
ATOM     14  H8  0PJ d   1      50.209  19.623  -7.954  0.00  0.00     0.165 HD
BRANCH  12  15
ATOM     15  OA  0PJ d   1      49.436  18.746  -9.880  0.00  0.00    -0.299 OA
BRANCH  15  16
ATOM     16  CB  0PJ d   1      48.880  18.292 -11.185  0.00  0.00     0.054 C 
ATOM     17  H1  0PJ d   1      48.675  17.213 -11.125  0.00  0.00     0.082 H 
ATOM     18  H2  0PJ d   1      49.626  18.480 -11.971  0.00  0.00     0.082 H 
BRANCH  16  19
ATOM     19  CG  0PJ d   1      47.542  19.040 -11.568  0.00  0.00    -0.034 A 
ATOM     20  CD1 0PJ d   1      46.478  18.975 -10.703  0.00  0.00    -0.075 A 
ATOM     21  CE1 0PJ d   1      45.248  19.585 -10.962  0.00  0.00    -0.082 A 
ATOM     22  H3  0PJ d   1      46.598  18.425  -9.777  0.00  0.00     0.084 H 
ATOM     23  CZ  0PJ d   1      45.111  20.300 -12.094  0.00  0.00    -0.083 A 
ATOM     24  H5  0PJ d   1      44.422  19.485 -10.267  0.00  0.00     0.083 H 
ATOM     25  CE2 0PJ d   1      46.154  20.414 -12.958  0.00  0.00    -0.082 A 
ATOM     26  H7  0PJ d   1      44.168  20.785 -12.317  0.00  0.00     0.083 H 
ATOM     27  CD2 0PJ d   1      47.380  19.770 -12.725  0.00  0.00    -0.075 A 
ATOM     28  H6  0PJ d   1      46.036  21.018 -13.851  0.00  0.00     0.083 H 
ATOM     29  H4  0PJ d   1      48.187  19.846 -13.445  0.00  0.00     0.084 H 
ENDBRANCH  16  19
ENDBRANCH  15  16
ENDBRANCH  12  15
ENDBRANCH   8  11
ENDBRANCH   5   8
ENDBRANCH   3   5
ENDBRANCH   1   3
BRANCH   1  30
ATOM     30  CB  0PJ d   1      52.473  18.323  -2.131  0.00  0.00    -0.035 C 
ATOM     31  H13 0PJ d   1      51.751  17.530  -1.889  0.00  0.00     0.037 H 
ATOM     32  H14 0PJ d   1      52.019  19.305  -1.935  0.00  0.00     0.037 H 
BRANCH  30  33
ATOM     33  CG  0PJ d   1      53.700  18.161  -1.241  0.00  0.00    -0.059 C 
ATOM     34  H15 0PJ d   1      54.238  17.238  -1.504  0.00  0.00     0.038 H 
BRANCH  33  35
ATOM     35  CD1 0PJ d   1      54.632  19.371  -1.435  0.00  0.00    -0.073 C 
ATOM     36  H16 0PJ d   1      55.519  19.257  -0.794  0.00  0.00     0.028 H 
ATOM     37  H17 0PJ d   1      54.098  20.293  -1.162  0.00  0.00     0.028 H 
ATOM     38  H18 0PJ d   1      54.946  19.427  -2.488  0.00  0.00     0.028 H 
ENDBRANCH  33  35
BRANCH  33  39
ATOM     39  CD2 0PJ d   1      53.211  18.083   0.219  0.00  0.00    -0.073 C 
ATOM     40  H19 0PJ d   1      52.548  17.214   0.338  0.00  0.00     0.028 H 
ATOM     41  H20 0PJ d   1      52.660  19.001   0.471  0.00  0.00     0.028 H 
ATOM     42  H21 0PJ d   1      54.076  17.978   0.890  0.00  0.00     0.028 H 
ENDBRANCH  33  39
ENDBRANCH  30  33
ENDBRANCH   1  30
BRANCH   1  43
ATOM     43  C   0PJ d   1      53.530  16.886  -3.904  0.00  0.00     0.241 C 
ATOM     44  O   0PJ d   1      54.757  16.775  -3.834  0.00  0.00    -0.271 OA
ATOM     45  N   0PJ d   1      52.737  15.885  -4.194  0.00  0.00    -0.345 N 
ATOM     46  H22 0PJ d   1      51.754  16.063  -4.241  0.00  0.00     0.163 HD
BRANCH  45  47
ATOM     47  CA  0PJ d   1      53.202  14.521  -4.453  0.00  0.00     0.096 C 
ATOM     48  H23 0PJ d   1      54.202  14.637  -4.896  0.00  0.00     0.089 H 
BRANCH  47  49
ATOM     49  CB  0PJ d   1      53.449  13.693  -3.139  0.00  0.00    -0.034 C 
ATOM     50  H24 0PJ d   1      54.214  14.218  -2.548  0.00  0.00     0.037 H 
ATOM     51  H25 0PJ d   1      53.827  12.702  -3.431  0.00  0.00     0.037 H 
BRANCH  49  52
ATOM     52  CG  0PJ d   1      52.250  13.487  -2.260  0.00  0.00    -0.059 C 
ATOM     53  H26 0PJ d   1      51.330  13.539  -2.861  0.00  0.00     0.038 H 
BRANCH  52  54
ATOM     54  CD1 0PJ d   1      52.340  12.169  -1.535  0.00  0.00    -0.073 C 
ATOM     55  H27 0PJ d   1      51.453  12.040  -0.898  0.00  0.00     0.028 H 
ATOM     56  H28 0PJ d   1      53.245  12.155  -0.910  0.00  0.00     0.028 H 
ATOM     57  H29 0PJ d   1      52.388  11.350  -2.268  0.00  0.00     0.028 H 
ENDBRANCH  52  54
BRANCH  52  58
ATOM     58  CD2 0PJ d   1      52.251  14.541  -1.171  0.00  0.00    -0.073 C 
ATOM     59  H30 0PJ d   1      52.187  15.540  -1.627  0.00  0.00     0.028 H 
ATOM     60  H31 0PJ d   1      53.180  14.464  -0.587  0.00  0.00     0.028 H 
ATOM     61  H32 0PJ d   1      51.387  14.384  -0.508  0.00  0.00     0.028 H 
ENDBRANCH  52  58
ENDBRANCH  49  52
ENDBRANCH  47  49
BRANCH  47  62
ATOM     62  C   0PJ d   1      52.389  13.836  -5.524  0.00  0.00     0.196 C 
ATOM     63  O   0PJ d   1      51.325  14.363  -5.943  0.00  0.00    -0.646 OA
ATOM     64  OXT 0PJ d   1      52.791  12.766  -6.071  0.00  0.00    -0.646 OA
ENDBRANCH  47  62
ENDBRANCH  45  47
ENDBRANCH   1  43
TORSDOF 18
