REMARK  20 active torsions:
REMARK  status: ('A' for Active; 'I' for Inactive)
REMARK    1  A    between atoms: N1T_1  and  C1'_16 
REMARK    2  A    between atoms: C5T_7  and  C7T_9 
REMARK    3  A    between atoms: C4'_12  and  C5'_10 
REMARK    4  A    between atoms: C5'_10  and  O5'_11 
REMARK    5  A    between atoms: O5'_11  and  PA_20 
REMARK    6  A    between atoms: C3'_14  and  NA3_17 
REMARK    7  A    between atoms: PA_20  and  OPA_23 
REMARK    8  A    between atoms: OPA_23  and  PB_24 
REMARK    9  A    between atoms: PB_24  and  OPB_27 
REMARK   10  A    between atoms: OPB_27  and  PC_28 
REMARK   11  A    between atoms: PC_28  and  OPC_31 
REMARK   12  A    between atoms: OPC_31  and  PD_32 
REMARK   13  A    between atoms: PD_32  and  OPD_35 
REMARK   14  A    between atoms: OPD_35  and  PE_36 
REMARK   15  A    between atoms: PE_36  and  O5'_39 
REMARK   16  A    between atoms: O5'_39  and  C5'_40 
REMARK   17  A    between atoms: C5'_40  and  C4'_41 
REMARK   18  A    between atoms: C3'_43  and  O3'_44 
REMARK   19  A    between atoms: C2'_45  and  O2'_46 
REMARK   20  A    between atoms: C1'_47  and  N9A_48 
ROOT
ATOM      1  NA3 Z5A d   1      22.343 102.242  20.814  0.00  0.00    -0.107 NA
ATOM      2  N3B Z5A d   1      22.799 102.919  21.737  0.00  0.00    -0.167 NA
ATOM      3  N3C Z5A d   1      23.151 103.425  22.675  0.00  0.00     0.068 N 
ENDROOT
BRANCH   1   4
ATOM      4  C3' Z5A d   1      22.549 102.739  19.451  0.00  0.00     0.096 C 
ATOM      5  C4' Z5A d   1      21.704 101.929  18.496  0.00  0.00     0.086 C 
ATOM      6  O4' Z5A d   1      22.595 101.160  17.642  0.00  0.00    -0.356 OA
ATOM      7  H8  Z5A d   1      21.189 101.197  19.135  0.00  0.00     0.090 H 
ATOM      8  C1' Z5A d   1      23.732 100.970  18.487  0.00  0.00     0.116 C 
ATOM      9  C2' Z5A d   1      23.911 102.308  19.059  0.00  0.00     0.002 C 
ATOM     10  H12 Z5A d   1      23.570 100.208  19.263  0.00  0.00     0.118 H 
ATOM     11  H10 Z5A d   1      24.334 102.995  18.312  0.00  0.00     0.043 H 
ATOM     12  H11 Z5A d   1      24.572 102.268  19.937  0.00  0.00     0.043 H 
ATOM     13  H9  Z5A d   1      22.381 103.823  19.371  0.00  0.00     0.084 H 
BRANCH   5  14
ATOM     14  C5' Z5A d   1      20.579 102.588  17.728  0.00  0.00     0.058 C 
ATOM     15  H6  Z5A d   1      19.999 103.259  18.379  0.00  0.00     0.079 H 
ATOM     16  H7  Z5A d   1      19.909 101.834  17.288  0.00  0.00     0.079 H 
BRANCH  14  17
ATOM     17  O5' Z5A d   1      21.239 103.306  16.735  0.00  0.00    -0.287 OA
BRANCH  17  18
ATOM     18  PA  Z5A d   1      20.517 104.138  15.609  0.00  0.00     0.417 P 
ATOM     19  O2P Z5A d   1      21.372 105.078  14.831  0.00  0.00    -0.624 OA
ATOM     20  O1P Z5A d   1      19.516 103.313  14.879  0.00  0.00    -0.624 OA
BRANCH  18  21
ATOM     21  OPA Z5A d   1      19.824 104.962  16.609  0.00  0.00    -0.180 OA
BRANCH  21  22
ATOM     22  PB  Z5A d   1      18.659 105.945  16.628  0.00  0.00     0.427 P 
ATOM     23  O4P Z5A d   1      17.359 105.207  16.769  0.00  0.00    -0.624 OA
ATOM     24  O3P Z5A d   1      19.054 107.048  17.540  0.00  0.00    -0.624 OA
BRANCH  22  25
ATOM     25  OPB Z5A d   1      18.614 106.579  15.180  0.00  0.00    -0.180 OA
BRANCH  25  26
ATOM     26  PC  Z5A d   1      17.882 107.737  14.500  0.00  0.00     0.427 P 
ATOM     27  O6P Z5A d   1      16.653 107.987  15.321  0.00  0.00    -0.624 OA
ATOM     28  O5P Z5A d   1      17.819 107.504  13.053  0.00  0.00    -0.624 OA
BRANCH  26  29
ATOM     29  OPC Z5A d   1      18.842 108.931  14.794  0.00  0.00    -0.180 OA
BRANCH  29  30
ATOM     30  PD  Z5A d   1      18.809 110.486  14.686  0.00  0.00     0.427 P 
ATOM     31  O8P Z5A d   1      19.584 110.724  13.464  0.00  0.00    -0.624 OA
ATOM     32  O7P Z5A d   1      17.396 110.890  14.758  0.00  0.00    -0.624 OA
BRANCH  30  33
ATOM     33  OPD Z5A d   1      19.514 111.172  15.947  0.00  0.00    -0.180 OA
BRANCH  33  34
ATOM     34  PE  Z5A d   1      19.613 112.657  16.644  0.00  0.00     0.417 P 
ATOM     35  OAP Z5A d   1      19.739 113.702  15.592  0.00  0.00    -0.624 OA
ATOM     36  O9P Z5A d   1      20.636 112.566  17.696  0.00  0.00    -0.624 OA
BRANCH  34  37
ATOM     37  O5' Z5A d   1      18.199 112.917  17.364  0.00  0.00    -0.287 OA
BRANCH  37  38
ATOM     38  C5' Z5A d   1      17.825 112.226  18.535  0.00  0.00     0.058 C 
ATOM     39  H13 Z5A d   1      18.736 112.011  19.112  0.00  0.00     0.079 H 
ATOM     40  H14 Z5A d   1      17.348 111.280  18.238  0.00  0.00     0.079 H 
BRANCH  38  41
ATOM     41  C4' Z5A d   1      16.874 112.969  19.423  0.00  0.00     0.089 C 
ATOM     42  C3' Z5A d   1      15.649 113.614  18.628  0.00  0.00     0.091 C 
ATOM     43  C2' Z5A d   1      16.142 115.045  18.436  0.00  0.00     0.105 C 
ATOM     44  H16 Z5A d   1      15.449 113.110  17.671  0.00  0.00     0.091 H 
ATOM     45  C1' Z5A d   1      16.969 115.278  19.720  0.00  0.00     0.139 C 
ATOM     46  H18 Z5A d   1      16.814 115.073  17.565  0.00  0.00     0.093 H 
ATOM     47  O4' Z5A d   1      17.520 114.015  20.171  0.00  0.00    -0.353 OA
ATOM     48  H20 Z5A d   1      16.299 115.663  20.503  0.00  0.00     0.122 H 
ATOM     49  H15 Z5A d   1      16.466 112.241  20.139  0.00  0.00     0.090 H 
BRANCH  42  50
ATOM     50  O3' Z5A d   1      14.487 113.578  19.478  0.00  0.00    -0.390 OA
ATOM     51  H17 Z5A d   1      14.706 113.942  20.328  0.00  0.00     0.210 HD
ENDBRANCH  42  50
BRANCH  43  52
ATOM     52  O2' Z5A d   1      15.116 116.047  18.196  0.00  0.00    -0.388 OA
ATOM     53  H19 Z5A d   1      14.505 116.054  18.924  0.00  0.00     0.210 HD
ENDBRANCH  43  52
BRANCH  45  54
ATOM     54  N9A Z5A d   1      18.026 116.285  19.485  0.00  0.00    -0.294 N 
ATOM     55  C4A Z5A d   1      18.012 117.500  20.092  0.00  0.00     0.167 A 
ATOM     56  C5A Z5A d   1      19.140 118.144  19.670  0.00  0.00     0.149 A 
ATOM     57  N3A Z5A d   1      17.179 117.858  21.083  0.00  0.00    -0.222 NA
ATOM     58  N7A Z5A d   1      19.688 117.482  18.553  0.00  0.00    -0.236 NA
ATOM     59  C6A Z5A d   1      19.395 119.410  20.271  0.00  0.00     0.155 A 
ATOM     60  C8A Z5A d   1      19.067 116.327  18.574  0.00  0.00     0.071 C 
ATOM     61  H21 Z5A d   1      19.343 115.486  17.939  0.00  0.00     0.144 H 
ATOM     62  N1A Z5A d   1      18.569 119.803  21.291  0.00  0.00    -0.222 NA
ATOM     63  N6A Z5A d   1      20.365 120.229  19.835  0.00  0.00    -0.382 N 
ATOM     64  C2A Z5A d   1      17.568 118.998  21.655  0.00  0.00     0.091 A 
ATOM     65  H24 Z5A d   1      17.000 119.310  22.524  0.00  0.00     0.146 H 
ATOM     66  H22 Z5A d   1      20.518 121.137  20.296  0.00  0.00     0.157 HD
ATOM     67  H23 Z5A d   1      20.956 119.949  19.039  0.00  0.00     0.157 HD
ENDBRANCH  45  54
ENDBRANCH  38  41
ENDBRANCH  37  38
ENDBRANCH  34  37
ENDBRANCH  33  34
ENDBRANCH  30  33
ENDBRANCH  29  30
ENDBRANCH  26  29
ENDBRANCH  25  26
ENDBRANCH  22  25
ENDBRANCH  21  22
ENDBRANCH  18  21
ENDBRANCH  17  18
ENDBRANCH  14  17
ENDBRANCH   5  14
BRANCH   8  68
ATOM     68  N1T Z5A d   1      24.830 100.609  17.625  0.00  0.00    -0.282 N 
ATOM     69  C6T Z5A d   1      24.785 100.899  16.253  0.00  0.00    -0.002 C 
ATOM     70  C5T Z5A d   1      25.649 100.333  15.366  0.00  0.00     0.022 C 
ATOM     71  H2  Z5A d   1      24.035 101.599  15.886  0.00  0.00     0.113 H 
ATOM     72  C4T Z5A d   1      26.689  99.479  15.847  0.00  0.00     0.256 C 
ATOM     73  N3T Z5A d   1      26.793  99.340  17.253  0.00  0.00    -0.275 N 
ATOM     74  O4T Z5A d   1      27.485  98.925  15.098  0.00  0.00    -0.267 OA
ATOM     75  C2T Z5A d   1      25.802  99.777  18.164  0.00  0.00     0.331 C 
ATOM     76  H1  Z5A d   1      27.615  98.908  17.624  0.00  0.00     0.173 HD
ATOM     77  O2T Z5A d   1      25.746  99.387  19.331  0.00  0.00    -0.246 OA
BRANCH  70  78
ATOM     78  C7T Z5A d   1      25.569 100.633  13.847  0.00  0.00    -0.045 C 
ATOM     79  H3  Z5A d   1      26.357 100.073  13.321  0.00  0.00     0.033 H 
ATOM     80  H4  Z5A d   1      25.710 101.711  13.678  0.00  0.00     0.033 H 
ATOM     81  H5  Z5A d   1      24.584 100.328  13.464  0.00  0.00     0.033 H 
ENDBRANCH  70  78
ENDBRANCH   8  68
ENDBRANCH   1   4
TORSDOF 20
