REMARK  4 active torsions:
REMARK  status: ('A' for Active; 'I' for Inactive)
REMARK    1  A    between atoms: C1_1  and  N1_10 
REMARK    2  A    between atoms: C4_4  and  C7_7 
REMARK    3  A    between atoms: C7_7  and  NA_8 
REMARK    4  A    between atoms: N1_10  and  N_11 
ROOT
ATOM      1  C1  BRN d   1       3.925  -3.836 -12.027  0.00  0.00     0.078 C 
ATOM      2  C2  BRN d   1       4.715  -3.289 -11.082  0.00  0.00    -0.053 C 
ATOM      3  C3  BRN d   1       4.425  -3.295  -9.754  0.00  0.00    -0.067 C 
ATOM      4  C4  BRN d   1       3.174  -3.728  -9.330  0.00  0.00     0.007 C 
ATOM      5  C5  BRN d   1       2.293  -4.252 -10.243  0.00  0.00    -0.067 C 
ATOM      6  C6  BRN d   1       2.678  -4.321 -11.603  0.00  0.00    -0.053 C 
ATOM      7  H1  BRN d   1       5.637  -2.816 -11.400  0.00  0.00     0.087 H 
ATOM      8  H2  BRN d   1       5.163  -2.965  -9.032  0.00  0.00     0.085 H 
ATOM      9  H3  BRN d   1       1.319  -4.607  -9.928  0.00  0.00     0.085 H 
ATOM     10  H4  BRN d   1       2.000  -4.755 -12.328  0.00  0.00     0.087 H 
ENDROOT
BRANCH   4  11
ATOM     11  C7  BRN d   1       2.763  -3.638  -7.932  0.00  0.00     0.102 C 
ATOM     12  NB  BRN d   1       3.612  -3.285  -7.028  0.00  0.00    -0.385 N 
ATOM     13  H7  BRN d   1       4.579  -3.050  -7.293  0.00  0.00     0.157 HD
ATOM     14  H8  BRN d   1       3.323  -3.237  -6.040  0.00  0.00     0.157 HD
BRANCH  11  15
ATOM     15  NA  BRN d   1       1.497  -3.942  -7.562  0.00  0.00    -0.385 N 
ATOM     16  H5  BRN d   1       1.219  -3.874  -6.572  0.00  0.00     0.157 HD
ATOM     17  H6  BRN d   1       0.811  -4.241  -8.270  0.00  0.00     0.157 HD
ENDBRANCH  11  15
ENDBRANCH   4  11
BRANCH   1  18
ATOM     18  N1  BRN d   1       4.341  -3.892 -13.299  0.00  0.00    -0.158 NA
BRANCH  18  19
ATOM     19  N   BRN d   1       3.326  -4.015 -14.125  0.00  0.00    -0.203 NA
ATOM     20  H9  BRN d   1       3.488  -4.070 -15.118  0.00  0.00     0.212 HD
ENDBRANCH  18  19
ENDBRANCH   1  18
TORSDOF 4
