REMARK  8 active torsions:
REMARK  status: ('A' for Active; 'I' for Inactive)
REMARK    1  A    between atoms: C14_1  and  N5_2 
REMARK    2  A    between atoms: N5_2  and  C13_3 
REMARK    3  A    between atoms: N5_2  and  C12_4 
REMARK    4  A    between atoms: C12_4  and  C15_5 
REMARK    5  A    between atoms: C12_4  and  C1_11 
REMARK    6  A    between atoms: C1_11  and  C_12 
REMARK    7  A    between atoms: C1_11  and  N_13 
REMARK    8  A    between atoms: C3_26  and  C4_27 
ROOT
ATOM      1  C1  7H7 d   1      27.035  76.748  47.332  0.00  0.00     0.039 C 
ATOM      2  H14 7H7 d   1      26.576  77.271  48.184  0.00  0.00     0.075 H 
ENDROOT
BRANCH   1   3
ATOM      3  C12 7H7 d   1      28.480  76.367  47.740  0.00  0.00     0.147 C 
ATOM      4  H8  7H7 d   1      28.929  75.873  46.865  0.00  0.00     0.095 H 
BRANCH   3   5
ATOM      5  N5  7H7 d   1      29.370  77.504  48.063  0.00  0.00    -0.069 N 
ATOM      6  H4  7H7 d   1      29.452  77.983  47.180  0.00  0.00     0.279 HD
BRANCH   5   7
ATOM      7  C14 7H7 d   1      30.759  77.135  48.415  0.00  0.00     0.067 C 
ATOM      8  H1  7H7 d   1      31.335  78.045  48.636  0.00  0.00     0.068 H 
ATOM      9  H2  7H7 d   1      31.223  76.604  47.571  0.00  0.00     0.068 H 
ATOM     10  H3  7H7 d   1      30.752  76.481  49.300  0.00  0.00     0.068 H 
ENDBRANCH   5   7
BRANCH   5  11
ATOM     11  C13 7H7 d   1      28.878  78.541  48.980  0.00  0.00     0.067 C 
ATOM     12  H5  7H7 d   1      27.846  78.809  48.711  0.00  0.00     0.068 H 
ATOM     13  H6  7H7 d   1      29.519  79.432  48.904  0.00  0.00     0.068 H 
ATOM     14  H7  7H7 d   1      28.901  78.159  50.011  0.00  0.00     0.068 H 
ENDBRANCH   5  11
ENDBRANCH   3   5
BRANCH   3  15
ATOM     15  C15 7H7 d   1      28.435  75.336  48.859  0.00  0.00    -0.026 A 
ATOM     16  C20 7H7 d   1      27.813  75.618  50.080  0.00  0.00    -0.075 A 
ATOM     17  C19 7H7 d   1      27.908  74.733  51.142  0.00  0.00    -0.082 A 
ATOM     18  H9  7H7 d   1      27.251  76.538  50.196  0.00  0.00     0.084 H 
ATOM     19  C18 7H7 d   1      28.602  73.536  50.995  0.00  0.00    -0.083 A 
ATOM     20  H10 7H7 d   1      27.440  74.974  52.090  0.00  0.00     0.083 H 
ATOM     21  C17 7H7 d   1      29.212  73.241  49.788  0.00  0.00    -0.082 A 
ATOM     22  H11 7H7 d   1      28.665  72.838  51.822  0.00  0.00     0.083 H 
ATOM     23  C16 7H7 d   1      29.129  74.129  48.727  0.00  0.00    -0.075 A 
ATOM     24  H12 7H7 d   1      29.757  72.311  49.672  0.00  0.00     0.083 H 
ATOM     25  H13 7H7 d   1      29.607  73.885  47.785  0.00  0.00     0.084 H 
ENDBRANCH   3  15
ENDBRANCH   1   3
BRANCH   1  26
ATOM     26  C   7H7 d   1      26.186  75.529  47.012  0.00  0.00    -0.055 C 
ATOM     27  H15 7H7 d   1      25.173  75.852  46.729  0.00  0.00     0.030 H 
ATOM     28  H16 7H7 d   1      26.130  74.879  47.897  0.00  0.00     0.030 H 
ATOM     29  H17 7H7 d   1      26.640  74.974  46.178  0.00  0.00     0.030 H 
ENDBRANCH   1  26
BRANCH   1  30
ATOM     30  N   7H7 d   1      27.022  77.646  46.181  0.00  0.00    -0.366 N 
ATOM     31  C2  7H7 d   1      26.363  78.832  46.170  0.00  0.00     0.155 A 
ATOM     32  C11 7H7 d   1      26.288  79.485  44.859  0.00  0.00     0.025 A 
ATOM     33  N1  7H7 d   1      25.909  79.352  47.283  0.00  0.00    -0.145 NA
ATOM     34  C10 7H7 d   1      26.678  78.828  43.687  0.00  0.00    -0.068 A 
ATOM     35  C6  7H7 d   1      25.698  80.757  44.775  0.00  0.00     0.028 A 
ATOM     36  C9  7H7 d   1      26.490  79.434  42.454  0.00  0.00    -0.082 A 
ATOM     37  H19 7H7 d   1      27.128  77.843  43.743  0.00  0.00     0.085 H 
ATOM     38  C8  7H7 d   1      25.935  80.700  42.374  0.00  0.00    -0.082 A 
ATOM     39  H20 7H7 d   1      26.779  78.914  41.548  0.00  0.00     0.083 H 
ATOM     40  C7  7H7 d   1      25.544  81.365  43.525  0.00  0.00    -0.068 A 
ATOM     41  H21 7H7 d   1      25.806  81.173  41.407  0.00  0.00     0.083 H 
ATOM     42  H22 7H7 d   1      25.118  82.359  43.456  0.00  0.00     0.085 H 
ATOM     43  C5  7H7 d   1      25.191  81.349  45.989  0.00  0.00     0.185 A 
ATOM     44  N2  7H7 d   1      25.300  80.612  47.148  0.00  0.00    -0.195 N 
ATOM     45  N4  7H7 d   1      24.505  82.442  46.236  0.00  0.00    -0.127 NA
ATOM     46  C3  7H7 d   1      24.635  81.336  48.116  0.00  0.00     0.148 A 
ATOM     47  N3  7H7 d   1      24.163  82.434  47.590  0.00  0.00    -0.133 NA
ATOM     48  H18 7H7 d   1      27.539  77.365  45.335  0.00  0.00     0.161 HD
BRANCH  46  49
ATOM     49  C4  7H7 d   1      24.556  80.946  49.548  0.00  0.00    -0.018 C 
ATOM     50  H23 7H7 d   1      23.969  81.695  50.100  0.00  0.00     0.038 H 
ATOM     51  H24 7H7 d   1      25.570  80.892  49.970  0.00  0.00     0.038 H 
ATOM     52  H25 7H7 d   1      24.070  79.963  49.634  0.00  0.00     0.038 H 
ENDBRANCH  46  49
ENDBRANCH   1  30
TORSDOF 8
