REMARK  5 active torsions:
REMARK  status: ('A' for Active; 'I' for Inactive)
REMARK    1  A    between atoms: S1_9  and  N1_1 
REMARK    2  A    between atoms: C5_5  and  O3_15 
REMARK    3  A    between atoms: O3_15  and  C8_6 
REMARK    4  A    between atoms: C8_6  and  C9_16 
REMARK    5  A    between atoms: C1_10  and  S1_9 
ROOT
ATOM      1  C2  EZL d   1      53.748  41.717  87.690  0.00  0.00     0.071 A 
ATOM      2  C3  EZL d   1      54.463  42.822  88.239  0.00  0.00     0.035 A 
ATOM      3  C4  EZL d   1      55.069  43.742  87.395  0.00  0.00    -0.032 A 
ATOM      4  C5  EZL d   1      54.978  43.583  86.008  0.00  0.00     0.070 A 
ATOM      5  C1  EZL d   1      53.563  41.464  90.111  0.00  0.00     0.281 A 
ATOM      6  N2  EZL d   1      53.174  40.851  88.887  0.00  0.00    -0.244 NA
ATOM      7  S2  EZL d   1      54.384  42.721  89.773  0.00  0.00    -0.072 SA
ATOM      8  C6  EZL d   1      54.272  42.490  85.465  0.00  0.00    -0.049 A 
ATOM      9  C7  EZL d   1      53.660  41.563  86.314  0.00  0.00    -0.051 A 
ATOM     10  H3  EZL d   1      55.612  44.583  87.810  0.00  0.00     0.089 H 
ATOM     11  H6  EZL d   1      54.204  42.368  84.390  0.00  0.00     0.087 H 
ATOM     12  H7  EZL d   1      53.116  40.723  85.897  0.00  0.00     0.087 H 
ENDROOT
BRANCH   4  13
ATOM     13  O3  EZL d   1      55.706  44.695  85.557  0.00  0.00    -0.351 OA
BRANCH  13  14
ATOM     14  C8  EZL d   1      55.734  44.828  84.155  0.00  0.00     0.023 C 
ATOM     15  H4  EZL d   1      55.434  45.849  83.877  0.00  0.00     0.074 H 
ATOM     16  H5  EZL d   1      55.037  44.106  83.704  0.00  0.00     0.074 H 
BRANCH  14  17
ATOM     17  C9  EZL d   1      57.135  44.559  83.651  0.00  0.00    -0.056 C 
ATOM     18  H8  EZL d   1      57.157  44.663  82.556  0.00  0.00     0.030 H 
ATOM     19  H9  EZL d   1      57.435  43.538  83.928  0.00  0.00     0.030 H 
ATOM     20  H10 EZL d   1      57.832  45.281  84.102  0.00  0.00     0.030 H 
ENDBRANCH  14  17
ENDBRANCH  13  14
ENDBRANCH   4  13
BRANCH   5  21
ATOM     21  S1  EZL d   1      53.013  40.639  91.581  0.00  0.00     0.268 S 
ATOM     22  O1  EZL d   1      53.448  41.333  92.762  0.00  0.00    -0.202 OA
ATOM     23  O2  EZL d   1      53.670  39.371  91.744  0.00  0.00    -0.202 OA
BRANCH  21  24
ATOM     24  N1  EZL d   1      51.381  40.467  91.559  0.00  0.00    -0.325 N 
ATOM     25  H1  EZL d   1      50.795  41.270  91.451  0.00  0.00     0.168 HD
ATOM     26  H2  EZL d   1      50.973  39.559  91.653  0.00  0.00     0.168 HD
ENDBRANCH  21  24
ENDBRANCH   5  21
TORSDOF 5
