REMARK  3 active torsions:
REMARK  status: ('A' for Active; 'I' for Inactive)
REMARK    1  A    between atoms: S1_1  and  N1_4 
REMARK    2  A    between atoms: C1_8  and  S1_1 
REMARK    3  A    between atoms: C2_9  and  N4_10 
ROOT
ATOM      1  N2  1SA d   1      10.308 -41.622 -78.026  0.00  0.00    -0.126 NA
ATOM      2  N3  1SA d   1      11.321 -42.172 -78.538  0.00  0.00    -0.123 NA
ATOM      3  S2  1SA d   1      12.077 -40.016 -77.784  0.00  0.00    -0.016 SA
ATOM      4  C1  1SA d   1      10.353 -40.412 -77.508  0.00  0.00     0.237 A 
ATOM      5  C2  1SA d   1      12.501 -41.567 -78.575  0.00  0.00     0.188 A 
ENDROOT
BRANCH   4   6
ATOM      6  S1  1SA d   1       9.079 -39.454 -76.755  0.00  0.00     0.282 S 
ATOM      7  O1  1SA d   1       7.980 -40.340 -76.586  0.00  0.00    -0.199 OA
ATOM      8  O2  1SA d   1       9.045 -38.228 -77.470  0.00  0.00    -0.199 OA
BRANCH   6   9
ATOM      9  N1  1SA d   1       9.587 -39.070 -75.226  0.00  0.00    -0.323 N 
ATOM     10  H1  1SA d   1       9.687 -39.788 -74.537  0.00  0.00     0.169 HD
ATOM     11  H2  1SA d   1       9.794 -38.120 -74.992  0.00  0.00     0.169 HD
ENDBRANCH   6   9
ENDBRANCH   4   6
BRANCH   5  12
ATOM     12  N4  1SA d   1      13.714 -42.007 -79.085  0.00  0.00    -0.377 N 
ATOM     13  H3  1SA d   1      13.784 -42.941 -79.513  0.00  0.00     0.158 HD
ATOM     14  H4  1SA d   1      14.544 -41.399 -79.036  0.00  0.00     0.158 HD
ENDBRANCH   5  12
TORSDOF 3
