REMARK  8 active torsions:
REMARK  status: ('A' for Active; 'I' for Inactive)
REMARK    1  A    between atoms: C6_3  and  NAS_19 
REMARK    2  A    between atoms: NAR_9  and  C2_10 
REMARK    3  A    between atoms: CAW_12  and  OAT_13 
REMARK    4  A    between atoms: OAT_13  and  CAB_14 
REMARK    5  A    between atoms: CAX_15  and  OAU_16 
REMARK    6  A    between atoms: OAU_16  and  CAC_17 
REMARK    7  A    between atoms: NAS_19  and  CBB_20 
REMARK    8  A    between atoms: NBC_24  and  CAD_25 
ROOT
ATOM      1  C4  7L6 d   1     -21.052 -14.676   3.070  0.00  0.00     0.092 A 
ATOM      2  C5  7L6 d   1     -21.247 -13.447   2.444  0.00  0.00     0.042 A 
ATOM      3  C6  7L6 d   1     -22.008 -12.476   3.095  0.00  0.00     0.155 A 
ATOM      4  N1  7L6 d   1     -22.540 -12.752   4.299  0.00  0.00    -0.044 NA
ATOM      5  N3  7L6 d   1     -21.607 -14.908   4.279  0.00  0.00    -0.062 NA
ATOM      6  C2  7L6 d   1     -22.343 -13.951   4.885  0.00  0.00     0.727 A 
ATOM      7  CAE 7L6 d   1     -20.298 -15.672   2.446  0.00  0.00    -0.019 A 
ATOM      8  CAW 7L6 d   1     -19.740 -15.424   1.194  0.00  0.00     0.103 A 
ATOM      9  CAX 7L6 d   1     -19.932 -14.208   0.569  0.00  0.00     0.102 A 
ATOM     10  CAF 7L6 d   1     -20.675 -13.202   1.196  0.00  0.00    -0.032 A 
ATOM     11  H7  7L6 d   1     -20.148 -16.630   2.932  0.00  0.00     0.091 H 
ATOM     12  H14 7L6 d   1     -20.805 -12.239   0.715  0.00  0.00     0.089 H 
ENDROOT
BRANCH   3  13
ATOM     13  NAS 7L6 d   1     -22.230 -11.261   2.556  0.00  0.00    -0.369 N 
ATOM     14  H15 7L6 d   1     -21.932 -11.057   1.591  0.00  0.00     0.161 HD
BRANCH  13  15
ATOM     15  CBB 7L6 d   1     -22.896 -10.239   3.351  0.00  0.00     0.014 C 
ATOM     16  CAL 7L6 d   1     -24.317 -10.025   2.840  0.00  0.00    -0.024 C 
ATOM     17  CAN 7L6 d   1     -24.988  -8.831   3.515  0.00  0.00     0.085 C 
ATOM     18  H17 7L6 d   1     -24.909 -10.929   3.045  0.00  0.00     0.038 H 
ATOM     19  H18 7L6 d   1     -24.282  -9.848   1.755  0.00  0.00     0.038 H 
ATOM     20  NBC 7L6 d   1     -24.186  -7.635   3.248  0.00  0.00    -0.075 N 
ATOM     21  H27 7L6 d   1     -25.047  -9.003   4.600  0.00  0.00     0.076 H 
ATOM     22  H28 7L6 d   1     -26.001  -8.696   3.109  0.00  0.00     0.076 H 
ATOM     23  CAO 7L6 d   1     -22.887  -7.780   3.921  0.00  0.00     0.085 C 
ATOM     24  H23 7L6 d   1     -24.045  -7.530   2.255  0.00  0.00     0.279 HD
ATOM     25  CAM 7L6 d   1     -22.116  -8.933   3.282  0.00  0.00    -0.024 C 
ATOM     26  H21 7L6 d   1     -22.311  -6.849   3.814  0.00  0.00     0.076 H 
ATOM     27  H22 7L6 d   1     -23.047  -7.992   4.989  0.00  0.00     0.076 H 
ATOM     28  H19 7L6 d   1     -21.921  -8.690   2.227  0.00  0.00     0.038 H 
ATOM     29  H20 7L6 d   1     -21.161  -9.060   3.812  0.00  0.00     0.038 H 
ATOM     30  H16 7L6 d   1     -22.940 -10.573   4.398  0.00  0.00     0.072 H 
BRANCH  20  31
ATOM     31  CAD 7L6 d   1     -24.894  -6.462   3.774  0.00  0.00     0.066 C 
ATOM     32  H24 7L6 d   1     -25.864  -6.361   3.265  0.00  0.00     0.068 H 
ATOM     33  H25 7L6 d   1     -24.291  -5.559   3.596  0.00  0.00     0.068 H 
ATOM     34  H26 7L6 d   1     -25.058  -6.587   4.855  0.00  0.00     0.068 H 
ENDBRANCH  20  31
ENDBRANCH  13  15
ENDBRANCH   3  13
BRANCH   6  35
ATOM     35  NAR 7L6 d   1     -22.924 -14.177   6.133  0.00  0.00    -0.210 N 
ATOM     36  CAJ 7L6 d   1     -22.807 -15.470   6.786  0.00  0.00     0.031 C 
ATOM     37  C3  7L6 d   1     -24.240 -15.887   7.090  0.00  0.00     0.035 C 
ATOM     38  H5  7L6 d   1     -22.325 -16.199   6.118  0.00  0.00     0.068 H 
ATOM     39  H6  7L6 d   1     -22.224 -15.383   7.715  0.00  0.00     0.068 H 
ATOM     40  O3  7L6 d   1     -24.863 -14.864   7.867  0.00  0.00    -0.388 OA
ATOM     41  H3  7L6 d   1     -24.238 -16.831   7.655  0.00  0.00     0.076 H 
ATOM     42  H4  7L6 d   1     -24.793 -16.024   6.149  0.00  0.00     0.076 H 
ATOM     43  C8  7L6 d   1     -25.017 -13.666   7.105  0.00  0.00     0.035 C 
ATOM     44  C1  7L6 d   1     -23.650 -13.086   6.768  0.00  0.00     0.031 C 
ATOM     45  H1  7L6 d   1     -25.556 -13.893   6.174  0.00  0.00     0.076 H 
ATOM     46  H2  7L6 d   1     -25.590 -12.932   7.691  0.00  0.00     0.076 H 
ATOM     47  H29 7L6 d   1     -23.133 -12.758   7.682  0.00  0.00     0.068 H 
ATOM     48  H30 7L6 d   1     -23.750 -12.235   6.078  0.00  0.00     0.068 H 
ENDBRANCH   6  35
BRANCH   9  49
ATOM     49  OAU 7L6 d   1     -19.354 -14.000  -0.658  0.00  0.00    -0.353 OA
BRANCH  49  50
ATOM     50  CAC 7L6 d   1     -19.829 -12.952  -1.499  0.00  0.00     0.010 C 
ATOM     51  H11 7L6 d   1     -19.248 -12.940  -2.433  0.00  0.00     0.066 H 
ATOM     52  H12 7L6 d   1     -19.714 -11.987  -0.983  0.00  0.00     0.066 H 
ATOM     53  H13 7L6 d   1     -20.891 -13.120  -1.730  0.00  0.00     0.066 H 
ENDBRANCH  49  50
ENDBRANCH   9  49
BRANCH   8  54
ATOM     54  OAT 7L6 d   1     -18.979 -16.379   0.572  0.00  0.00    -0.353 OA
BRANCH  54  55
ATOM     55  CAB 7L6 d   1     -18.839 -17.657   1.194  0.00  0.00     0.010 C 
ATOM     56  H8  7L6 d   1     -18.202 -18.301   0.570  0.00  0.00     0.066 H 
ATOM     57  H9  7L6 d   1     -19.830 -18.120   1.307  0.00  0.00     0.066 H 
ATOM     58  H10 7L6 d   1     -18.377 -17.534   2.185  0.00  0.00     0.066 H 
ENDBRANCH  54  55
ENDBRANCH   8  54
TORSDOF 8
