REMARK  1 active torsions:
REMARK  status: ('A' for Active; 'I' for Inactive)
REMARK    1  A    between atoms: C04_4  and  C07_7 
ROOT
ATOM      1  C01 7Q1 d   1      16.481   5.835  13.951  0.00  0.00    -0.083 A 
ATOM      2  C02 7Q1 d   1      17.705   5.225  13.914  0.00  0.00    -0.082 A 
ATOM      3  C03 7Q1 d   1      17.937   4.013  14.548  0.00  0.00    -0.074 A 
ATOM      4  C04 7Q1 d   1      16.893   3.342  15.195  0.00  0.00    -0.020 A 
ATOM      5  C05 7Q1 d   1      15.623   3.933  15.209  0.00  0.00    -0.074 A 
ATOM      6  C06 7Q1 d   1      15.452   5.157  14.551  0.00  0.00    -0.082 A 
ATOM      7  H1  7Q1 d   1      16.331   6.819  13.521  0.00  0.00     0.083 H 
ATOM      8  H2  7Q1 d   1      18.516   5.702  13.375  0.00  0.00     0.083 H 
ATOM      9  H3  7Q1 d   1      18.932   3.583  14.542  0.00  0.00     0.084 H 
ATOM     10  H4  7Q1 d   1      14.793   3.455  15.717  0.00  0.00     0.084 H 
ATOM     11  H5  7Q1 d   1      14.459   5.589  14.514  0.00  0.00     0.083 H 
ENDROOT
BRANCH   4  12
ATOM     12  C07 7Q1 d   1      17.158   1.994  15.832  0.00  0.00     0.152 A 
ATOM     13  C08 7Q1 d   1      16.479   0.936  15.043  0.00  0.00     0.260 A 
ATOM     14  O09 7Q1 d   1      16.737   0.626  13.880  0.00  0.00    -0.270 OA
ATOM     15  N10 7Q1 d   1      15.519   0.269  15.800  0.00  0.00    -0.270 N 
ATOM     16  C11 7Q1 d   1      15.544   0.931  17.039  0.00  0.00     0.368 A 
ATOM     17  H7  7Q1 d   1      14.945  -0.502  15.525  0.00  0.00     0.174 HD
ATOM     18  O12 7Q1 d   1      14.873   0.649  18.019  0.00  0.00    -0.238 OA
ATOM     19  O13 7Q1 d   1      16.562   1.906  17.112  0.00  0.00    -0.284 OA
ATOM     20  H6  7Q1 d   1      18.242   1.815  15.891  0.00  0.00     0.107 H 
ENDBRANCH   4  12
TORSDOF 1
