REMARK  5 active torsions:
REMARK  status: ('A' for Active; 'I' for Inactive)
REMARK    1  A    between atoms: C8_4  and  C7_9 
REMARK    2  A    between atoms: C13_5  and  O14_16 
REMARK    3  A    between atoms: C9_6  and  O10_17 
REMARK    4  A    between atoms: O14_16  and  C15_10 
REMARK    5  A    between atoms: O10_17  and  C11_11 
ROOT
ATOM      1  C17 7QV d   1      -3.009   3.886  14.727  0.00  0.00    -0.069 A 
ATOM      2  C16 7QV d   1      -3.101   5.138  14.150  0.00  0.00    -0.050 A 
ATOM      3  C12 7QV d   1      -5.456   5.077  14.471  0.00  0.00    -0.018 A 
ATOM      4  C8  7QV d   1      -4.117   3.210  15.176  0.00  0.00     0.014 A 
ATOM      5  C13 7QV d   1      -4.340   5.742  14.029  0.00  0.00     0.070 A 
ATOM      6  C9  7QV d   1      -5.362   3.823  15.025  0.00  0.00     0.080 A 
ATOM      7  H1  7QV d   1      -2.034   3.424  14.828  0.00  0.00     0.084 H 
ATOM      8  H2  7QV d   1      -2.210   5.643  13.795  0.00  0.00     0.087 H 
ATOM      9  H3  7QV d   1      -6.428   5.549  14.382  0.00  0.00     0.092 H 
ENDROOT
BRANCH   4  10
ATOM     10  C7  7QV d   1      -3.919   1.823  15.744  0.00  0.00     0.154 C 
ATOM     11  C2  7QV d   1      -4.649   0.773  14.965  0.00  0.00     0.260 C 
ATOM     12  N3  7QV d   1      -5.529   0.154  15.772  0.00  0.00    -0.270 N 
ATOM     13  O1  7QV d   1      -4.471   0.568  13.763  0.00  0.00    -0.270 OA
ATOM     14  C4  7QV d   1      -5.492   0.725  16.959  0.00  0.00     0.368 C 
ATOM     15  H11 7QV d   1      -6.115  -0.614  15.514  0.00  0.00     0.174 HD
ATOM     16  O6  7QV d   1      -6.127   0.511  17.957  0.00  0.00    -0.238 OA
ATOM     17  O5  7QV d   1      -4.493   1.643  17.044  0.00  0.00    -0.284 OA
ATOM     18  H4  7QV d   1      -2.840   1.611  15.767  0.00  0.00     0.107 H 
ENDBRANCH   4  10
BRANCH   6  19
ATOM     19  O10 7QV d   1      -6.494   3.110  15.426  0.00  0.00    -0.355 OA
BRANCH  19  20
ATOM     20  C11 7QV d   1      -7.043   3.609  16.683  0.00  0.00     0.010 C 
ATOM     21  H8  7QV d   1      -7.930   3.018  16.956  0.00  0.00     0.066 H 
ATOM     22  H9  7QV d   1      -7.328   4.665  16.565  0.00  0.00     0.066 H 
ATOM     23  H10 7QV d   1      -6.285   3.520  17.475  0.00  0.00     0.066 H 
ENDBRANCH  19  20
ENDBRANCH   6  19
BRANCH   5  24
ATOM     24  O14 7QV d   1      -4.567   7.013  13.475  0.00  0.00    -0.356 OA
BRANCH  24  25
ATOM     25  C15 7QV d   1      -3.384   7.573  12.835  0.00  0.00     0.010 C 
ATOM     26  H5  7QV d   1      -3.625   8.564  12.423  0.00  0.00     0.066 H 
ATOM     27  H6  7QV d   1      -3.057   6.907  12.023  0.00  0.00     0.066 H 
ATOM     28  H7  7QV d   1      -2.577   7.670  13.576  0.00  0.00     0.066 H 
ENDBRANCH  24  25
ENDBRANCH   5  24
TORSDOF 5
