REMARK  1 active torsions:
REMARK  status: ('A' for Active; 'I' for Inactive)
REMARK    1  A    between atoms: C4_6  and  C7_9 
ROOT
ATOM      1  C1  7QS d   1      -4.491   5.722  13.618  0.00  0.00    -0.083 A 
ATOM      2  C2  7QS d   1      -3.298   5.199  14.037  0.00  0.00    -0.082 A 
ATOM      3  C6  7QS d   1      -5.618   5.101  14.021  0.00  0.00    -0.082 A 
ATOM      4  C3  7QS d   1      -3.273   4.077  14.846  0.00  0.00    -0.075 A 
ATOM      5  C5  7QS d   1      -5.630   3.994  14.826  0.00  0.00    -0.075 A 
ATOM      6  C4  7QS d   1      -4.427   3.476  15.262  0.00  0.00    -0.035 A 
ATOM      7  H1  7QS d   1      -4.529   6.602  12.986  0.00  0.00     0.083 H 
ATOM      8  H2  7QS d   1      -2.368   5.666  13.734  0.00  0.00     0.083 H 
ATOM      9  H3  7QS d   1      -6.569   5.501  13.688  0.00  0.00     0.083 H 
ATOM     10  H4  7QS d   1      -2.319   3.667  15.156  0.00  0.00     0.084 H 
ATOM     11  H5  7QS d   1      -6.567   3.533  15.116  0.00  0.00     0.084 H 
ENDROOT
BRANCH   6  12
ATOM     12  C7  7QS d   1      -4.375   2.254  16.199  0.00  0.00     0.102 C 
ATOM     13  C8  7QS d   1      -4.833   1.004  15.467  0.00  0.00     0.243 C 
ATOM     14  N10 7QS d   1      -5.826   0.432  16.049  0.00  0.00    -0.287 N 
ATOM     15  O9  7QS d   1      -4.239   0.601  14.467  0.00  0.00    -0.271 OA
ATOM     16  C11 7QS d   1      -6.438   1.114  16.999  0.00  0.00     0.287 C 
ATOM     17  H7  7QS d   1      -6.122  -0.488  15.793  0.00  0.00     0.172 HD
ATOM     18  O12 7QS d   1      -7.567   0.966  17.452  0.00  0.00    -0.260 OA
ATOM     19  S13 7QS d   1      -5.585   2.500  17.584  0.00  0.00    -0.050 SA
ATOM     20  H6  7QS d   1      -3.355   2.123  16.588  0.00  0.00     0.080 H 
ENDBRANCH   6  12
TORSDOF 1
