REMARK  5 active torsions:
REMARK  status: ('A' for Active; 'I' for Inactive)
REMARK    1  A    between atoms: C8_4  and  C7_9 
REMARK    2  A    between atoms: C13_5  and  O14_15 
REMARK    3  A    between atoms: C9_6  and  O10_16 
REMARK    4  A    between atoms: O14_15  and  C15_10 
REMARK    5  A    between atoms: O10_16  and  C11_11 
ROOT
ATOM      1  C17 7R7 d   1      -2.654   4.006  14.425  0.00  0.00    -0.069 A 
ATOM      2  C16 7R7 d   1      -2.683   5.269  13.851  0.00  0.00    -0.050 A 
ATOM      3  C12 7R7 d   1      -5.044   5.311  14.140  0.00  0.00    -0.018 A 
ATOM      4  C8  7R7 d   1      -3.798   3.373  14.866  0.00  0.00     0.014 A 
ATOM      5  C13 7R7 d   1      -3.888   5.921  13.704  0.00  0.00     0.070 A 
ATOM      6  C9  7R7 d   1      -4.987   4.056  14.720  0.00  0.00     0.080 A 
ATOM      7  H1  7R7 d   1      -1.701   3.500  14.530  0.00  0.00     0.084 H 
ATOM      8  H2  7R7 d   1      -1.764   5.739  13.521  0.00  0.00     0.087 H 
ATOM      9  H3  7R7 d   1      -5.998   5.814  14.029  0.00  0.00     0.092 H 
ENDROOT
BRANCH   4  10
ATOM     10  C7  7R7 d   1      -3.728   1.989  15.490  0.00  0.00     0.152 C 
ATOM     11  C2  7R7 d   1      -4.532   0.913  14.807  0.00  0.00     0.258 C 
ATOM     12  N3  7R7 d   1      -5.435   0.398  15.664  0.00  0.00    -0.295 N 
ATOM     13  O1  7R7 d   1      -4.349   0.596  13.630  0.00  0.00    -0.270 OA
ATOM     14  C4  7R7 d   1      -5.314   1.085  16.758  0.00  0.00     0.218 C 
ATOM     15  H11 7R7 d   1      -6.067  -0.357  15.492  0.00  0.00     0.171 HD
ATOM     16  O5  7R7 d   1      -4.280   1.950  16.797  0.00  0.00    -0.307 OA
ATOM     17  S6  7R7 d   1      -6.196   0.991  18.136  0.00  0.00    -0.033 SA
ATOM     18  H4  7R7 d   1      -2.668   1.695  15.516  0.00  0.00     0.107 H 
ENDBRANCH   4  10
BRANCH   6  19
ATOM     19  O10 7R7 d   1      -6.124   3.431  15.130  0.00  0.00    -0.355 OA
BRANCH  19  20
ATOM     20  C11 7R7 d   1      -6.821   4.071  16.201  0.00  0.00     0.010 C 
ATOM     21  H8  7R7 d   1      -7.719   3.489  16.454  0.00  0.00     0.066 H 
ATOM     22  H9  7R7 d   1      -7.116   5.085  15.892  0.00  0.00     0.066 H 
ATOM     23  H10 7R7 d   1      -6.164   4.132  17.081  0.00  0.00     0.066 H 
ENDBRANCH  19  20
ENDBRANCH   6  19
BRANCH   5  24
ATOM     24  O14 7R7 d   1      -4.096   7.194  13.142  0.00  0.00    -0.356 OA
BRANCH  24  25
ATOM     25  C15 7R7 d   1      -2.924   7.743  12.519  0.00  0.00     0.010 C 
ATOM     26  H5  7R7 d   1      -3.160   8.734  12.104  0.00  0.00     0.066 H 
ATOM     27  H6  7R7 d   1      -2.592   7.076  11.710  0.00  0.00     0.066 H 
ATOM     28  H7  7R7 d   1      -2.123   7.840  13.266  0.00  0.00     0.066 H 
ENDBRANCH  24  25
ENDBRANCH   5  24
TORSDOF 5
