REMARK  2 active torsions:
REMARK  status: ('A' for Active; 'I' for Inactive)
REMARK    1  A    between atoms: C5_10  and  C6_6 
REMARK    2  A    between atoms: C3_9  and  C5_10 
ROOT
ATOM      1  C5  7R4 d   1      -4.440   2.829  13.671  0.00  0.00    -0.021 C 
ATOM      2  H7  7R4 d   1      -4.032   2.376  12.755  0.00  0.00     0.042 H 
ATOM      3  H8  7R4 d   1      -5.539   2.835  13.619  0.00  0.00     0.042 H 
ENDROOT
BRANCH   1   4
ATOM      4  C6  7R4 d   1      -3.943   4.233  13.791  0.00  0.00    -0.057 A 
ATOM      5  C7  7R4 d   1      -4.842   5.214  14.084  0.00  0.00    -0.077 A 
ATOM      6  C8  7R4 d   1      -4.422   6.518  14.212  0.00  0.00    -0.082 A 
ATOM      7  H4  7R4 d   1      -5.889   4.967  14.216  0.00  0.00     0.084 H 
ATOM      8  C9  7R4 d   1      -3.108   6.885  14.064  0.00  0.00    -0.083 A 
ATOM      9  H2  7R4 d   1      -5.156   7.283  14.438  0.00  0.00     0.083 H 
ATOM     10  C10 7R4 d   1      -2.194   5.919  13.764  0.00  0.00    -0.082 A 
ATOM     11  H1  7R4 d   1      -2.804   7.919  14.183  0.00  0.00     0.083 H 
ATOM     12  C11 7R4 d   1      -2.625   4.609  13.632  0.00  0.00    -0.077 A 
ATOM     13  H3  7R4 d   1      -1.148   6.171  13.631  0.00  0.00     0.083 H 
ATOM     14  H5  7R4 d   1      -1.894   3.845  13.393  0.00  0.00     0.084 H 
ENDBRANCH   1   4
BRANCH   1  15
ATOM     15  C3  7R4 d   1      -3.996   2.008  14.883  0.00  0.00     0.079 C 
ATOM     16  C2  7R4 d   1      -4.631   0.640  14.764  0.00  0.00     0.237 C 
ATOM     17  N12 7R4 d   1      -5.558   0.336  15.676  0.00  0.00    -0.311 N 
ATOM     18  O1  7R4 d   1      -4.318  -0.151  13.891  0.00  0.00    -0.272 OA
ATOM     19  C13 7R4 d   1      -5.722   1.298  16.598  0.00  0.00     0.141 C 
ATOM     20  H9  7R4 d   1      -6.076  -0.519  15.672  0.00  0.00     0.170 HD
ATOM     21  S14 7R4 d   1      -6.766   1.290  17.876  0.00  0.00    -0.052 SA
ATOM     22  S4  7R4 d   1      -4.659   2.650  16.418  0.00  0.00    -0.086 SA
ATOM     23  H6  7R4 d   1      -2.898   1.950  14.922  0.00  0.00     0.072 H 
ENDBRANCH   1  15
TORSDOF 2
