REMARK  6 active torsions:
REMARK  status: ('A' for Active; 'I' for Inactive)
REMARK    1  A    between atoms: C5_12  and  C6_4 
REMARK    2  A    between atoms: C9_5  and  O10_15 
REMARK    3  A    between atoms: C13_6  and  O14_16 
REMARK    4  A    between atoms: C3_9  and  C5_12 
REMARK    5  A    between atoms: O10_15  and  C11_10 
REMARK    6  A    between atoms: O14_16  and  C15_11 
ROOT
ATOM      1  C7  7R1 d   1      18.694   4.491  13.479  0.00  0.00    -0.071 A 
ATOM      2  C8  7R1 d   1      19.042   5.801  13.780  0.00  0.00    -0.050 A 
ATOM      3  C12 7R1 d   1      16.908   6.124  14.798  0.00  0.00    -0.018 A 
ATOM      4  C6  7R1 d   1      17.455   3.992  13.818  0.00  0.00    -0.023 A 
ATOM      5  C9  7R1 d   1      18.132   6.606  14.432  0.00  0.00     0.070 A 
ATOM      6  C13 7R1 d   1      16.615   4.834  14.485  0.00  0.00     0.077 A 
ATOM      7  H1  7R1 d   1      19.407   3.852  12.970  0.00  0.00     0.084 H 
ATOM      8  H2  7R1 d   1      20.017   6.186  13.506  0.00  0.00     0.087 H 
ATOM      9  H3  7R1 d   1      16.194   6.749  15.321  0.00  0.00     0.092 H 
ENDROOT
BRANCH   4  10
ATOM     10  C5  7R1 d   1      16.954   2.601  13.567  0.00  0.00    -0.018 C 
ATOM     11  H11 7R1 d   1      17.439   2.199  12.666  0.00  0.00     0.042 H 
ATOM     12  H12 7R1 d   1      15.865   2.631  13.415  0.00  0.00     0.042 H 
BRANCH  10  13
ATOM     13  C3  7R1 d   1      17.270   1.697  14.752  0.00  0.00     0.079 A 
ATOM     14  C2  7R1 d   1      16.528   0.400  14.628  0.00  0.00     0.237 A 
ATOM     15  N16 7R1 d   1      15.665   0.093  15.615  0.00  0.00    -0.311 N 
ATOM     16  O1  7R1 d   1      16.727  -0.331  13.678  0.00  0.00    -0.272 OA
ATOM     17  C17 7R1 d   1      15.634   1.034  16.569  0.00  0.00     0.141 A 
ATOM     18  H13 7R1 d   1      15.112  -0.740  15.634  0.00  0.00     0.170 HD
ATOM     19  S18 7R1 d   1      14.731   0.989  17.952  0.00  0.00    -0.052 SA
ATOM     20  S4  7R1 d   1      16.753   2.353  16.338  0.00  0.00    -0.086 SA
ATOM     21  H4  7R1 d   1      18.355   1.515  14.768  0.00  0.00     0.072 H 
ENDBRANCH  10  13
ENDBRANCH   4  10
BRANCH   6  22
ATOM     22  O14 7R1 d   1      15.422   4.323  14.802  0.00  0.00    -0.355 OA
BRANCH  22  23
ATOM     23  C15 7R1 d   1      15.080   4.520  13.455  0.00  0.00     0.010 C 
ATOM     24  H8  7R1 d   1      14.046   4.183  13.286  0.00  0.00     0.066 H 
ATOM     25  H9  7R1 d   1      15.763   3.942  12.815  0.00  0.00     0.066 H 
ATOM     26  H10 7R1 d   1      15.162   5.589  13.208  0.00  0.00     0.066 H 
ENDBRANCH  22  23
ENDBRANCH   6  22
BRANCH   5  27
ATOM     27  O10 7R1 d   1      18.356   7.925  14.776  0.00  0.00    -0.356 OA
BRANCH  27  28
ATOM     28  C11 7R1 d   1      19.729   8.277  14.574  0.00  0.00     0.010 C 
ATOM     29  H5  7R1 d   1      19.883   9.330  14.854  0.00  0.00     0.066 H 
ATOM     30  H6  7R1 d   1      19.991   8.137  13.515  0.00  0.00     0.066 H 
ATOM     31  H7  7R1 d   1      20.368   7.635  15.198  0.00  0.00     0.066 H 
ENDBRANCH  27  28
ENDBRANCH   5  27
TORSDOF 6
