REMARK  2 active torsions:
REMARK  status: ('A' for Active; 'I' for Inactive)
REMARK    1  A    between atoms: C1_1  and  N2_2 
REMARK    2  A    between atoms: C9_9  and  N10_10 
ROOT
ATOM      1  N2  9MG d   1       8.403  -3.559  26.367  0.00  0.00    -0.330 N 
ATOM      2  C3  9MG d   1       7.538  -3.770  25.331  0.00  0.00     0.068 A 
ATOM      3  N4  9MG d   1       7.885  -3.061  24.267  0.00  0.00    -0.234 NA
ATOM      4  C5  9MG d   1       9.012  -2.386  24.662  0.00  0.00     0.171 A 
ATOM      5  C6  9MG d   1       9.812  -1.468  23.924  0.00  0.00     0.292 A 
ATOM      6  O7  9MG d   1       9.592  -1.135  22.769  0.00  0.00    -0.265 OA
ATOM      7  N8  9MG d   1      10.859  -1.020  24.709  0.00  0.00    -0.154 N 
ATOM      8  C9  9MG d   1      11.121  -1.383  26.027  0.00  0.00     0.680 A 
ATOM      9  N11 9MG d   1      10.375  -2.221  26.685  0.00  0.00    -0.174 N 
ATOM     10  C12 9MG d   1       9.353  -2.674  25.952  0.00  0.00     0.158 A 
ATOM     11  H4  9MG d   1       6.676  -4.434  25.374  0.00  0.00     0.143 H 
ATOM     12  H5  9MG d   1      11.491  -0.370  24.287  0.00  0.00     0.187 HD
ATOM     13  H8  9MG d   1      10.552  -2.503  27.660  0.00  0.00     0.186 HD
ENDROOT
BRANCH   1  14
ATOM     14  C1  9MG d   1       8.326  -4.171  27.680  0.00  0.00    -0.012 C 
ATOM     15  H1  9MG d   1       7.454  -4.840  27.722  0.00  0.00     0.057 H 
ATOM     16  H2  9MG d   1       8.224  -3.387  28.445  0.00  0.00     0.057 H 
ATOM     17  H3  9MG d   1       9.242  -4.750  27.869  0.00  0.00     0.057 H 
ENDBRANCH   1  14
BRANCH   8  18
ATOM     18  N10 9MG d   1      12.233  -0.780  26.573  0.00  0.00    -0.234 N 
ATOM     19  H6  9MG d   1      12.507  -0.987  27.544  0.00  0.00     0.174 HD
ATOM     20  H7  9MG d   1      12.791  -0.122  26.010  0.00  0.00     0.174 HD
ENDBRANCH   8  18
TORSDOF 2
