REMARK  5 active torsions:
REMARK  status: ('A' for Active; 'I' for Inactive)
REMARK    1  A    between atoms: C13_13  and  C6_6 
REMARK    2  A    between atoms: S22_22  and  C9_9 
REMARK    3  A    between atoms: C11_11  and  N18_18 
REMARK    4  A    between atoms: C13_13  and  C12_12 
REMARK    5  A    between atoms: C13_13  and  S22_22 
ROOT
ATOM      1  S22 7PM d   1       6.417  -2.263  25.367  0.00  0.00    -0.071 SA
ENDROOT
BRANCH   1   2
ATOM      2  C9  7PM d   1       7.797  -1.190  25.179  0.00  0.00     0.170 A 
ATOM      3  N14 7PM d   1       8.158  -0.462  24.131  0.00  0.00    -0.328 N 
ATOM      4  C7  7PM d   1       9.290   0.171  24.557  0.00  0.00     0.150 A 
ATOM      5  H7  7PM d   1       7.695  -0.391  23.214  0.00  0.00     0.168 HD
ATOM      6  C8  7PM d   1       9.612  -0.177  25.835  0.00  0.00     0.178 A 
ATOM      7  C10 7PM d   1      10.127   1.104  23.848  0.00  0.00     0.290 A 
ATOM      8  N15 7PM d   1      10.634   0.227  26.583  0.00  0.00    -0.172 N 
ATOM      9  N16 7PM d   1       8.657  -1.054  26.228  0.00  0.00    -0.204 NA
ATOM     10  C11 7PM d   1      11.405   1.071  25.954  0.00  0.00     0.680 A 
ATOM     11  H8  7PM d   1      10.799  -0.090  27.549  0.00  0.00     0.186 HD
ATOM     12  N17 7PM d   1      11.189   1.505  24.642  0.00  0.00    -0.154 N 
ATOM     13  H9  7PM d   1      11.846   2.149  24.250  0.00  0.00     0.187 HD
ATOM     14  O20 7PM d   1       9.936   1.496  22.708  0.00  0.00    -0.265 OA
BRANCH  10  15
ATOM     15  N18 7PM d   1      12.508   1.623  26.538  0.00  0.00    -0.234 N 
ATOM     16  H10 7PM d   1      12.759   1.371  27.505  0.00  0.00     0.174 HD
ATOM     17  H11 7PM d   1      13.089   2.291  26.012  0.00  0.00     0.174 HD
ENDBRANCH  10  15
ENDBRANCH   1   2
BRANCH   1  18
ATOM     18  C13 7PM d   1       5.568  -2.011  23.780  0.00  0.00     0.107 C 
ATOM     19  H6  7PM d   1       5.727  -0.975  23.447  0.00  0.00     0.081 H 
BRANCH  18  20
ATOM     20  C6  7PM d   1       4.093  -2.291  23.860  0.00  0.00    -0.034 A 
ATOM     21  C4  7PM d   1       3.199  -1.304  23.489  0.00  0.00    -0.075 A 
ATOM     22  C2  7PM d   1       1.840  -1.542  23.553  0.00  0.00    -0.082 A 
ATOM     23  H4  7PM d   1       3.565  -0.342  23.148  0.00  0.00     0.084 H 
ATOM     24  C1  7PM d   1       1.361  -2.768  23.985  0.00  0.00    -0.083 A 
ATOM     25  H2  7PM d   1       1.143  -0.764  23.263  0.00  0.00     0.083 H 
ATOM     26  C3  7PM d   1       2.243  -3.763  24.355  0.00  0.00    -0.082 A 
ATOM     27  H1  7PM d   1       0.293  -2.946  24.032  0.00  0.00     0.083 H 
ATOM     28  C5  7PM d   1       3.603  -3.519  24.289  0.00  0.00    -0.075 A 
ATOM     29  H3  7PM d   1       1.874  -4.725  24.693  0.00  0.00     0.083 H 
ATOM     30  H5  7PM d   1       4.299  -4.299  24.577  0.00  0.00     0.084 H 
ENDBRANCH  18  20
BRANCH  18  31
ATOM     31  C12 7PM d   1       6.148  -2.998  22.751  0.00  0.00     0.192 C 
ATOM     32  O19 7PM d   1       5.760  -2.761  21.580  0.00  0.00    -0.647 OA
ATOM     33  O21 7PM d   1       6.905  -3.939  23.129  0.00  0.00    -0.647 OA
ENDBRANCH  18  31
ENDBRANCH   1  18
TORSDOF 5
