REMARK  5 active torsions:
REMARK  status: ('A' for Active; 'I' for Inactive)
REMARK    1  A    between atoms: C4_4  and  N13_13 
REMARK    2  A    between atoms: S17_17  and  C5_5 
REMARK    3  A    between atoms: C8_8  and  C6_6 
REMARK       I    between atoms: C6_6  and  N14_14 
REMARK    4  A    between atoms: N14_14  and  C7_7 
REMARK    5  A    between atoms: C8_8  and  S17_17 
ROOT
ATOM      1  C1  7PS d   1       9.511   0.578  24.448  0.00  0.00     0.160 A 
ATOM      2  C2  7PS d   1       9.828   0.163  25.724  0.00  0.00     0.182 A 
ATOM      3  C3  7PS d   1      10.304   1.491  23.795  0.00  0.00     0.226 A 
ATOM      4  C4  7PS d   1      11.633   1.497  25.687  0.00  0.00     0.702 A 
ATOM      5  C5  7PS d   1       8.058  -0.879  25.202  0.00  0.00     0.169 A 
ATOM      6  N9  7PS d   1      10.905   0.609  26.383  0.00  0.00    -0.044 NA
ATOM      7  N10 7PS d   1       8.914  -0.739  26.191  0.00  0.00    -0.317 N 
ATOM      8  N11 7PS d   1      11.381   1.947  24.442  0.00  0.00    -0.164 N 
ATOM      9  N12 7PS d   1       8.374  -0.097  24.127  0.00  0.00    -0.216 NA
ATOM     10  O16 7PS d   1      10.038   1.941  22.524  0.00  0.00    -0.169 OA
ATOM     11  H6  7PS d   1       8.899  -1.204  27.110  0.00  0.00     0.169 HD
ATOM     12  H7  7PS d   1      11.990   2.611  24.009  0.00  0.00     0.186 HD
ENDROOT
BRANCH   5  13
ATOM     13  S17 7PS d   1       6.666  -1.934  25.241  0.00  0.00    -0.083 SA
BRANCH  13  14
ATOM     14  C8  7PS d   1       5.793  -1.794  23.656  0.00  0.00     0.058 C 
ATOM     15  H4  7PS d   1       4.719  -1.944  23.839  0.00  0.00     0.064 H 
ATOM     16  H5  7PS d   1       5.959  -0.782  23.259  0.00  0.00     0.064 H 
BRANCH  14  17
ATOM     17  C6  7PS d   1       6.246  -2.803  22.603  0.00  0.00     0.226 C 
ATOM     18  N14 7PS d   1       5.430  -2.700  21.478  0.00  0.00    -0.365 N 
ATOM     19  H10 7PS d   1       5.079  -1.797  21.230  0.00  0.00     0.161 HD
ATOM     20  O15 7PS d   1       7.188  -3.589  22.716  0.00  0.00    -0.273 OA
BRANCH  18  21
ATOM     21  C7  7PS d   1       5.063  -3.824  20.650  0.00  0.00    -0.018 C 
ATOM     22  H1  7PS d   1       4.416  -3.479  19.830  0.00  0.00     0.056 H 
ATOM     23  H2  7PS d   1       4.523  -4.566  21.257  0.00  0.00     0.056 H 
ATOM     24  H3  7PS d   1       5.971  -4.284  20.232  0.00  0.00     0.056 H 
ENDBRANCH  18  21
ENDBRANCH  14  17
ENDBRANCH  13  14
ENDBRANCH   5  13
BRANCH   4  25
ATOM     25  N13 7PS d   1      12.754   2.004  26.332  0.00  0.00    -0.233 N 
ATOM     26  H8  7PS d   1      12.986   1.689  27.285  0.00  0.00     0.174 HD
ATOM     27  H9  7PS d   1      13.353   2.695  25.858  0.00  0.00     0.174 HD
ENDBRANCH   4  25
TORSDOF 5
