REMARK  4 active torsions:
REMARK  status: ('A' for Active; 'I' for Inactive)
REMARK    1  A    between atoms: C8_12  and  C9_5 
REMARK    2  A    between atoms: C18_10  and  N19_17 
REMARK    3  A    between atoms: S7_20  and  C6_11 
REMARK    4  A    between atoms: C8_12  and  S7_20 
ROOT
ATOM      1  C3  5RU d   1      -3.451  -5.678  68.780  0.00  0.00     0.160 A 
ATOM      2  C4  5RU d   1      -3.950  -5.787  67.496  0.00  0.00     0.182 A 
ATOM      3  C2  5RU d   1      -3.262  -4.418  69.314  0.00  0.00     0.226 A 
ATOM      4  C18 5RU d   1      -4.050  -3.515  67.317  0.00  0.00     0.702 A 
ATOM      5  C6  5RU d   1      -3.651  -7.780  68.177  0.00  0.00     0.169 A 
ATOM      6  N17 5RU d   1      -4.261  -4.714  66.739  0.00  0.00    -0.044 NA
ATOM      7  N5  5RU d   1      -4.076  -7.104  67.130  0.00  0.00    -0.317 N 
ATOM      8  N20 5RU d   1      -3.568  -3.340  68.574  0.00  0.00    -0.164 N 
ATOM      9  N16 5RU d   1      -3.259  -6.973  69.208  0.00  0.00    -0.216 NA
ATOM     10  O1  5RU d   1      -2.758  -4.190  70.572  0.00  0.00    -0.169 OA
ATOM     11  H7  5RU d   1      -4.425  -7.479  66.237  0.00  0.00     0.169 HD
ATOM     12  H8  5RU d   1      -3.442  -2.420  68.944  0.00  0.00     0.186 HD
ENDROOT
BRANCH   5  13
ATOM     13  S7  5RU d   1      -3.596  -9.518  68.336  0.00  0.00    -0.087 SA
BRANCH  13  14
ATOM     14  C8  5RU d   1      -1.933  -9.937  68.845  0.00  0.00     0.011 C 
ATOM     15  H5  5RU d   1      -1.505 -10.552  68.040  0.00  0.00     0.057 H 
ATOM     16  H6  5RU d   1      -1.379  -8.989  68.917  0.00  0.00     0.057 H 
BRANCH  14  17
ATOM     17  C9  5RU d   1      -1.686 -10.665  70.107  0.00  0.00    -0.010 A 
ATOM     18  C10 5RU d   1      -2.628 -11.500  70.676  0.00  0.00    -0.073 A 
ATOM     19  C11 5RU d   1      -2.342 -12.161  71.853  0.00  0.00    -0.082 A 
ATOM     20  H3  5RU d   1      -3.591 -11.636  70.198  0.00  0.00     0.084 H 
ATOM     21  C12 5RU d   1      -1.108 -11.992  72.448  0.00  0.00    -0.080 A 
ATOM     22  H1  5RU d   1      -3.082 -12.809  72.308  0.00  0.00     0.083 H 
ATOM     23  C13 5RU d   1      -0.161 -11.163  71.874  0.00  0.00    -0.045 A 
ATOM     24  H2  5RU d   1      -0.879 -12.512  73.371  0.00  0.00     0.083 H 
ATOM     25  C14 5RU d   1      -0.448 -10.499  70.703  0.00  0.00     0.123 A 
ATOM     26  H4  5RU d   1       0.806 -11.036  72.346  0.00  0.00     0.088 H 
ATOM     27  F15 5RU d   1       0.497  -9.692  70.160  0.00  0.00    -0.206 F 
ENDBRANCH  14  17
ENDBRANCH  13  14
ENDBRANCH   5  13
BRANCH   4  28
ATOM     28  N19 5RU d   1      -4.345  -2.352  66.552  0.00  0.00    -0.233 N 
ATOM     29  H9  5RU d   1      -4.712  -2.445  65.594  0.00  0.00     0.174 HD
ATOM     30  H10 5RU d   1      -4.191  -1.417  66.956  0.00  0.00     0.174 HD
ENDBRANCH   4  28
TORSDOF 4
