REMARK  7 active torsions:
REMARK  status: ('A' for Active; 'I' for Inactive)
REMARK    1  A    between atoms: S1_4  and  C3_14 
REMARK    2  A    between atoms: C6_20  and  S1_4 
REMARK    3  A    between atoms: C11_6  and  O3_15 
REMARK    4  A    between atoms: O3_15  and  C14_9 
REMARK    5  A    between atoms: C5_18  and  N5_19 
REMARK    6  A    between atoms: C7_21  and  C6_20 
REMARK    7  A    between atoms: C7_21  and  C8_22 
ROOT
ATOM      1  C6  YH5 d   1       6.001  -1.862  23.600  0.00  0.00     0.043 C 
ATOM      2  H12 YH5 d   1       6.334  -0.949  23.085  0.00  0.00     0.061 H 
ATOM      3  H13 YH5 d   1       4.912  -1.823  23.747  0.00  0.00     0.061 H 
ENDROOT
BRANCH   1   4
ATOM      4  S1  YH5 d   1       6.791  -1.930  25.208  0.00  0.00    -0.084 SA
BRANCH   4   5
ATOM      5  C3  YH5 d   1       8.122  -0.813  24.981  0.00  0.00     0.169 A 
ATOM      6  N1  YH5 d   1       8.450  -0.062  23.933  0.00  0.00    -0.328 N 
ATOM      7  C2  YH5 d   1       9.571   0.592  24.388  0.00  0.00     0.150 A 
ATOM      8  H1  YH5 d   1       7.984   0.011  23.017  0.00  0.00     0.168 HD
ATOM      9  C1  YH5 d   1      10.386   1.570  23.710  0.00  0.00     0.290 A 
ATOM     10  C4  YH5 d   1       9.909   0.230  25.670  0.00  0.00     0.178 A 
ATOM     11  O1  YH5 d   1      10.181   1.989  22.584  0.00  0.00    -0.265 OA
ATOM     12  N4  YH5 d   1      11.431   1.967  24.530  0.00  0.00    -0.154 N 
ATOM     13  C5  YH5 d   1      11.673   1.513  25.851  0.00  0.00     0.680 A 
ATOM     14  H9  YH5 d   1      12.073   2.635  24.155  0.00  0.00     0.187 HD
ATOM     15  N3  YH5 d   1      10.921   0.633  26.448  0.00  0.00    -0.172 N 
ATOM     16  H8  YH5 d   1      11.085   0.288  27.405  0.00  0.00     0.186 HD
ATOM     17  N2  YH5 d   1       8.973  -0.675  26.052  0.00  0.00    -0.204 NA
BRANCH  13  18
ATOM     18  N5  YH5 d   1      12.767   2.091  26.469  0.00  0.00    -0.234 N 
ATOM     19  H10 YH5 d   1      13.018   1.821  27.431  0.00  0.00     0.174 HD
ATOM     20  H11 YH5 d   1      13.331   2.792  25.968  0.00  0.00     0.174 HD
ENDBRANCH  13  18
ENDBRANCH   4   5
ENDBRANCH   1   4
BRANCH   1  21
ATOM     21  C7  YH5 d   1       6.327  -3.054  22.726  0.00  0.00     0.169 C 
ATOM     22  O2  YH5 d   1       7.258  -3.849  22.865  0.00  0.00    -0.291 OA
BRANCH  21  23
ATOM     23  C8  YH5 d   1       5.386  -3.218  21.606  0.00  0.00     0.011 A 
ATOM     24  C13 YH5 d   1       4.339  -2.336  21.397  0.00  0.00    -0.067 A 
ATOM     25  C12 YH5 d   1       3.492  -2.525  20.343  0.00  0.00    -0.050 A 
ATOM     26  H4  YH5 d   1       4.192  -1.498  22.069  0.00  0.00     0.085 H 
ATOM     27  C11 YH5 d   1       3.693  -3.593  19.499  0.00  0.00     0.068 A 
ATOM     28  H3  YH5 d   1       2.669  -1.840  20.173  0.00  0.00     0.087 H 
ATOM     29  C10 YH5 d   1       4.739  -4.478  19.703  0.00  0.00    -0.050 A 
ATOM     30  C9  YH5 d   1       5.585  -4.283  20.764  0.00  0.00    -0.067 A 
ATOM     31  H2  YH5 d   1       4.887  -5.316  19.031  0.00  0.00     0.087 H 
ATOM     32  H14 YH5 d   1       6.408  -4.967  20.937  0.00  0.00     0.085 H 
BRANCH  27  33
ATOM     33  O3  YH5 d   1       2.787  -3.714  18.448  0.00  0.00    -0.356 OA
BRANCH  33  34
ATOM     34  C14 YH5 d   1       2.441  -5.087  18.220  0.00  0.00     0.010 C 
ATOM     35  H5  YH5 d   1       1.726  -5.151  17.387  0.00  0.00     0.066 H 
ATOM     36  H6  YH5 d   1       1.984  -5.506  19.129  0.00  0.00     0.066 H 
ATOM     37  H7  YH5 d   1       3.348  -5.657  17.970  0.00  0.00     0.066 H 
ENDBRANCH  33  34
ENDBRANCH  27  33
ENDBRANCH  21  23
ENDBRANCH   1  21
TORSDOF 7
