REMARK  7 active torsions:
REMARK  status: ('A' for Active; 'I' for Inactive)
REMARK    1  A    between atoms: C10_1  and  C09_13 
REMARK    2  A    between atoms: C13_2  and  S14_16 
REMARK    3  A    between atoms: C02_6  and  N01_5 
REMARK    4  A    between atoms: S07_11  and  C06_10 
REMARK    5  A    between atoms: C08_12  and  S07_11 
REMARK    6  A    between atoms: C09_13  and  C08_12 
REMARK    7  A    between atoms: S14_16  and  N15_17 
ROOT
ATOM      1  C08 7PV d   1      70.087  -1.830 102.532  0.00  0.00    -0.012 C 
ATOM      2  H4  7PV d   1      70.112  -2.723 101.890  0.00  0.00     0.050 H 
ATOM      3  H5  7PV d   1      70.560  -0.987 102.007  0.00  0.00     0.050 H 
ENDROOT
BRANCH   1   4
ATOM      4  S07 7PV d   1      71.005  -2.168 104.032  0.00  0.00    -0.092 SA
BRANCH   4   5
ATOM      5  C06 7PV d   1      72.466  -1.134 103.849  0.00  0.00     0.169 A 
ATOM      6  N05 7PV d   1      73.376  -0.998 104.773  0.00  0.00    -0.204 NA
ATOM      7  C04 7PV d   1      74.319  -0.155 104.319  0.00  0.00     0.178 A 
ATOM      8  C21 7PV d   1      73.933   0.250 103.054  0.00  0.00     0.150 A 
ATOM      9  N03 7PV d   1      75.464   0.322 104.883  0.00  0.00    -0.172 N 
ATOM     10  C22 7PV d   1      74.749   1.173 102.349  0.00  0.00     0.290 A 
ATOM     11  N20 7PV d   1      72.765  -0.393 102.795  0.00  0.00    -0.328 N 
ATOM     12  O23 7PV d   1      74.487   1.562 101.246  0.00  0.00    -0.265 OA
ATOM     13  N24 7PV d   1      75.835   1.591 102.943  0.00  0.00    -0.154 N 
ATOM     14  C02 7PV d   1      76.189   1.189 104.182  0.00  0.00     0.680 A 
ATOM     15  H15 7PV d   1      76.428   2.235 102.460  0.00  0.00     0.187 HD
ATOM     16  H14 7PV d   1      72.210  -0.317 101.931  0.00  0.00     0.168 HD
ATOM     17  H3  7PV d   1      75.759   0.021 105.823  0.00  0.00     0.186 HD
BRANCH  14  18
ATOM     18  N01 7PV d   1      77.381   1.706 104.792  0.00  0.00    -0.234 N 
ATOM     19  H1  7PV d   1      77.650   1.399 105.737  0.00  0.00     0.174 HD
ATOM     20  H2  7PV d   1      77.967   2.384 104.284  0.00  0.00     0.174 HD
ENDBRANCH  14  18
ENDBRANCH   4   5
ENDBRANCH   1   4
BRANCH   1  21
ATOM     21  C09 7PV d   1      68.637  -1.475 102.828  0.00  0.00    -0.033 C 
ATOM     22  H6  7PV d   1      68.101  -2.333 103.259  0.00  0.00     0.041 H 
ATOM     23  H7  7PV d   1      68.573  -0.619 103.516  0.00  0.00     0.041 H 
BRANCH  21  24
ATOM     24  C10 7PV d   1      68.086  -1.120 101.470  0.00  0.00    -0.057 A 
ATOM     25  C11 7PV d   1      67.799  -2.118 100.541  0.00  0.00    -0.075 A 
ATOM     26  C12 7PV d   1      67.328  -1.756  99.289  0.00  0.00    -0.060 A 
ATOM     27  H8  7PV d   1      67.942  -3.162 100.794  0.00  0.00     0.084 H 
ATOM     28  C13 7PV d   1      67.157  -0.394  98.979  0.00  0.00     0.079 A 
ATOM     29  H9  7PV d   1      67.093  -2.517  98.553  0.00  0.00     0.085 H 
ATOM     30  C18 7PV d   1      67.472   0.596  99.895  0.00  0.00    -0.060 A 
ATOM     31  C19 7PV d   1      67.946   0.230 101.135  0.00  0.00    -0.075 A 
ATOM     32  H12 7PV d   1      67.347   1.642  99.640  0.00  0.00     0.085 H 
ATOM     33  H13 7PV d   1      68.212   0.994 101.856  0.00  0.00     0.084 H 
BRANCH  28  34
ATOM     34  S14 7PV d   1      66.564   0.117  97.353  0.00  0.00     0.256 S 
ATOM     35  O16 7PV d   1      67.432   1.133  96.766  0.00  0.00    -0.201 OA
ATOM     36  O17 7PV d   1      66.834  -1.066  96.505  0.00  0.00    -0.201 OA
BRANCH  34  37
ATOM     37  N15 7PV d   1      64.971   0.648  97.293  0.00  0.00    -0.324 N 
ATOM     38  H10 7PV d   1      64.576   0.947  96.424  0.00  0.00     0.169 HD
ATOM     39  H11 7PV d   1      64.418   0.665  98.126  0.00  0.00     0.169 HD
ENDBRANCH  34  37
ENDBRANCH  28  34
ENDBRANCH  21  24
ENDBRANCH   1  21
TORSDOF 7
