REMARK  2 active torsions:
REMARK  status: ('A' for Active; 'I' for Inactive)
REMARK    1  A    between atoms: C16_20  and  C17_4 
REMARK    2  A    between atoms: C04_11  and  N05_12 
ROOT
ATOM      1  C13 82V d   1     -17.546   2.814   3.997  0.00  0.00     0.089 A 
ATOM      2  C15 82V d   1     -16.428   1.239   2.506  0.00  0.00    -0.031 A 
ATOM      3  O01 82V d   1     -19.337   4.452   4.100  0.00  0.00    -0.287 OA
ATOM      4  C02 82V d   1     -18.404   3.834   4.612  0.00  0.00     0.196 C 
ATOM      5  C03 82V d   1     -17.991   4.038   6.035  0.00  0.00     0.016 C 
ATOM      6  C04 82V d   1     -16.906   3.474   6.554  0.00  0.00     0.150 C 
ATOM      7  O11 82V d   1     -16.325   2.387   5.923  0.00  0.00    -0.291 OA
ATOM      8  C12 82V d   1     -16.579   2.140   4.623  0.00  0.00     0.110 A 
ATOM      9  S14 82V d   1     -17.696   2.362   2.333  0.00  0.00    -0.094 SA
ATOM     10  C16 82V d   1     -15.876   1.172   3.738  0.00  0.00     0.016 A 
ATOM     11  H3  82V d   1     -16.085   0.617   1.680  0.00  0.00     0.096 H 
ATOM     12  H7  82V d   1     -18.604   4.674   6.671  0.00  0.00     0.096 H 
ENDROOT
BRANCH  10  13
ATOM     13  C17 82V d   1     -14.769   0.255   4.118  0.00  0.00    -0.020 A 
ATOM     14  C26 82V d   1     -14.667  -1.056   3.665  0.00  0.00    -0.037 A 
ATOM     15  C25 82V d   1     -13.644  -1.954   3.980  0.00  0.00     0.102 A 
ATOM     16  H6  82V d   1     -15.452  -1.413   3.008  0.00  0.00     0.089 H 
ATOM     17  C20 82V d   1     -12.632  -1.528   4.844  0.00  0.00     0.102 A 
ATOM     18  O24 82V d   1     -13.659  -3.203   3.455  0.00  0.00    -0.346 OA
ATOM     19  C19 82V d   1     -12.688  -0.229   5.350  0.00  0.00    -0.047 A 
ATOM     20  O21 82V d   1     -11.609  -2.363   5.178  0.00  0.00    -0.346 OA
ATOM     21  C18 82V d   1     -13.741   0.644   4.994  0.00  0.00    -0.069 A 
ATOM     22  H15 82V d   1     -11.913   0.115   6.025  0.00  0.00     0.087 H 
ATOM     23  H14 82V d   1     -13.756   1.645   5.410  0.00  0.00     0.085 H 
ATOM     24  C22 82V d   1     -11.844  -3.752   4.948  0.00  0.00     0.046 C 
ATOM     25  C23 82V d   1     -12.526  -4.023   3.650  0.00  0.00     0.046 C 
ATOM     26  H4  82V d   1     -12.474  -4.140   5.762  0.00  0.00     0.078 H 
ATOM     27  H5  82V d   1     -10.877  -4.276   4.951  0.00  0.00     0.078 H 
ATOM     28  H16 82V d   1     -12.845  -5.076   3.631  0.00  0.00     0.078 H 
ATOM     29  H17 82V d   1     -11.813  -3.841   2.832  0.00  0.00     0.078 H 
ENDBRANCH  10  13
BRANCH   6  30
ATOM     30  N05 82V d   1     -16.454   3.581   7.904  0.00  0.00    -0.357 N 
ATOM     31  C10 82V d   1     -16.826   4.704   8.805  0.00  0.00     0.017 C 
ATOM     32  C09 82V d   1     -16.219   4.684  10.210  0.00  0.00     0.034 C 
ATOM     33  H1  82V d   1     -17.921   4.696   8.914  0.00  0.00     0.067 H 
ATOM     34  H2  82V d   1     -16.513   5.640   8.319  0.00  0.00     0.067 H 
ATOM     35  O08 82V d   1     -14.942   4.191  10.219  0.00  0.00    -0.388 OA
ATOM     36  H12 82V d   1     -16.846   4.053  10.857  0.00  0.00     0.076 H 
ATOM     37  H13 82V d   1     -16.204   5.711  10.603  0.00  0.00     0.076 H 
ATOM     38  C07 82V d   1     -14.955   2.841   9.935  0.00  0.00     0.034 C 
ATOM     39  C06 82V d   1     -15.571   2.522   8.546  0.00  0.00     0.017 C 
ATOM     40  H10 82V d   1     -13.920   2.468   9.954  0.00  0.00     0.076 H 
ATOM     41  H11 82V d   1     -15.545   2.325  10.707  0.00  0.00     0.076 H 
ATOM     42  H8  82V d   1     -14.738   2.325   7.855  0.00  0.00     0.067 H 
ATOM     43  H9  82V d   1     -16.178   1.611   8.657  0.00  0.00     0.067 H 
ENDBRANCH   6  30
TORSDOF 2
