REMARK  5 active torsions:
REMARK  status: ('A' for Active; 'I' for Inactive)
REMARK    1  A    between atoms: C02_2  and  O03_18 
REMARK    2  A    between atoms: C04_4  and  C07_8 
REMARK    3  A    between atoms: C06_6  and  O01_7 
REMARK    4  A    between atoms: C08_9  and  C09_10 
REMARK    5  A    between atoms: C12_13  and  O02_17 
ROOT
ATOM      1  C07 S2L d   1      44.824  75.434  42.704  0.00  0.00    -0.072 C 
ATOM      2  C08 S2L d   1      44.044  74.495  42.145  0.00  0.00    -0.071 C 
ATOM      3  H5  S2L d   1      45.661  75.090  43.310  0.00  0.00     0.084 H 
ATOM      4  H6  S2L d   1      43.203  74.847  41.549  0.00  0.00     0.084 H 
ENDROOT
BRANCH   1   5
ATOM      5  C04 S2L d   1      44.640  76.935  42.564  0.00  0.00    -0.031 A 
ATOM      6  C03 S2L d   1      43.716  77.641  41.799  0.00  0.00    -0.041 A 
ATOM      7  C02 S2L d   1      43.656  79.027  41.757  0.00  0.00     0.069 A 
ATOM      8  H2  S2L d   1      43.005  77.078  41.204  0.00  0.00     0.089 H 
ATOM      9  C01 S2L d   1      44.583  79.723  42.519  0.00  0.00    -0.019 A 
ATOM     10  C06 S2L d   1      45.538  79.090  43.304  0.00  0.00     0.069 A 
ATOM     11  H1  S2L d   1      44.561  80.807  42.501  0.00  0.00     0.092 H 
ATOM     12  C05 S2L d   1      45.535  77.704  43.300  0.00  0.00    -0.041 A 
ATOM     13  H3  S2L d   1      46.273  77.190  43.905  0.00  0.00     0.089 H 
BRANCH   7  14
ATOM     14  O03 S2L d   1      42.688  79.659  40.957  0.00  0.00    -0.361 OA
ATOM     15  H11 S2L d   1      42.779  80.601  41.037  0.00  0.00     0.217 HD
ENDBRANCH   7  14
BRANCH  10  16
ATOM     16  O01 S2L d   1      46.470  79.807  44.078  0.00  0.00    -0.361 OA
ATOM     17  H4  S2L d   1      46.327  80.739  43.961  0.00  0.00     0.217 HD
ENDBRANCH  10  16
ENDBRANCH   1   5
BRANCH   2  18
ATOM     18  C09 S2L d   1      44.217  72.989  42.261  0.00  0.00    -0.014 A 
ATOM     19  C10 S2L d   1      44.199  72.313  41.050  0.00  0.00    -0.069 A 
ATOM     20  C11 S2L d   1      44.328  70.943  40.901  0.00  0.00    -0.050 A 
ATOM     21  H7  S2L d   1      44.074  72.904  40.150  0.00  0.00     0.085 H 
ATOM     22  C12 S2L d   1      44.498  70.121  42.000  0.00  0.00     0.067 A 
ATOM     23  H8  S2L d   1      44.295  70.508  39.909  0.00  0.00     0.087 H 
ATOM     24  C13 S2L d   1      44.523  70.762  43.216  0.00  0.00    -0.029 A 
ATOM     25  C14 S2L d   1      44.385  72.128  43.339  0.00  0.00     0.046 A 
ATOM     26  H9  S2L d   1      44.657  70.169  44.114  0.00  0.00     0.090 H 
ATOM     27 CL1  S2L d   1      44.424  72.775  45.022  0.00  0.00    -0.083 Cl
BRANCH  22  28
ATOM     28  O02 S2L d   1      44.635  68.746  41.870  0.00  0.00    -0.361 OA
ATOM     29  H10 S2L d   1      44.590  68.510  40.951  0.00  0.00     0.217 HD
ENDBRANCH  22  28
ENDBRANCH   2  18
TORSDOF 5
