REMARK  4 active torsions:
REMARK  status: ('A' for Active; 'I' for Inactive)
REMARK    1  A    between atoms: C02_2  and  C15_15 
REMARK    2  A    between atoms: C04_4  and  C07_7 
REMARK    3  A    between atoms: C08_8  and  C09_9 
REMARK    4  A    between atoms: C12_12  and  O01_16 
ROOT
ATOM      1  C07 XOS d   1     -20.754   0.509 -26.293  0.00  0.00    -0.072 C 
ATOM      2  C08 XOS d   1     -21.639  -0.139 -25.522  0.00  0.00    -0.072 C 
ATOM      3  H5  XOS d   1     -19.992   1.085 -25.770  0.00  0.00     0.084 H 
ATOM      4  H6  XOS d   1     -22.416  -0.724 -26.012  0.00  0.00     0.084 H 
ENDROOT
BRANCH   1   5
ATOM      5  C04 XOS d   1     -20.689   0.535 -27.807  0.00  0.00    -0.035 A 
ATOM      6  C03 XOS d   1     -21.647  -0.095 -28.590  0.00  0.00    -0.057 A 
ATOM      7  C02 XOS d   1     -21.549  -0.046 -29.974  0.00  0.00     0.041 A 
ATOM      8  H2  XOS d   1     -22.469  -0.624 -28.122  0.00  0.00     0.086 H 
ATOM      9  C01 XOS d   1     -20.497   0.632 -30.572  0.00  0.00    -0.066 A 
ATOM     10  C06 XOS d   1     -19.541   1.259 -29.790  0.00  0.00    -0.081 A 
ATOM     11  H1  XOS d   1     -20.423   0.671 -31.653  0.00  0.00     0.085 H 
ATOM     12  C05 XOS d   1     -19.640   1.210 -28.410  0.00  0.00    -0.073 A 
ATOM     13  H4  XOS d   1     -18.718   1.787 -30.257  0.00  0.00     0.083 H 
ATOM     14  H3  XOS d   1     -18.893   1.702 -27.798  0.00  0.00     0.084 H 
BRANCH   7  15
ATOM     15  C15 XOS d   1     -22.584  -0.726 -30.845  0.00  0.00     0.209 C 
ATOM     16  O02 XOS d   1     -22.323  -0.962 -32.054  0.00  0.00    -0.644 OA
ATOM     17  O03 XOS d   1     -23.701  -1.058 -30.366  0.00  0.00    -0.644 OA
ENDBRANCH   7  15
ENDBRANCH   1   5
BRANCH   2  18
ATOM     18  C09 XOS d   1     -21.619  -0.104 -24.007  0.00  0.00    -0.036 A 
ATOM     19  C10 XOS d   1     -21.497   1.110 -23.349  0.00  0.00    -0.070 A 
ATOM     20  C11 XOS d   1     -21.467   1.150 -21.964  0.00  0.00    -0.050 A 
ATOM     21  H7  XOS d   1     -21.425   2.030 -23.919  0.00  0.00     0.084 H 
ATOM     22  C12 XOS d   1     -21.556  -0.023 -21.234  0.00  0.00     0.065 A 
ATOM     23  H8  XOS d   1     -21.374   2.101 -21.452  0.00  0.00     0.087 H 
ATOM     24  C13 XOS d   1     -21.673  -1.238 -21.890  0.00  0.00    -0.050 A 
ATOM     25  C14 XOS d   1     -21.700  -1.281 -23.276  0.00  0.00    -0.070 A 
ATOM     26  H9  XOS d   1     -21.744  -2.157 -21.319  0.00  0.00     0.087 H 
ATOM     27  H10 XOS d   1     -21.784  -2.233 -23.788  0.00  0.00     0.084 H 
BRANCH  22  28
ATOM     28  O01 XOS d   1     -21.527   0.022 -19.828  0.00  0.00    -0.361 OA
ATOM     29  H11 XOS d   1     -21.444   0.924 -19.543  0.00  0.00     0.217 HD
ENDBRANCH  22  28
ENDBRANCH   2  18
TORSDOF 4
