REMARK  4 active torsions:
REMARK  status: ('A' for Active; 'I' for Inactive)
REMARK    1  A    between atoms: C04_4  and  C08_8 
REMARK    2  A    between atoms: C06_6  and  C07_7 
REMARK    3  A    between atoms: C09_9  and  C10_10 
REMARK    4  A    between atoms: C13_13  and  O03_18 
ROOT
ATOM      1  C08 XLO d   1     -21.285  -0.063 -26.043  0.00  0.00    -0.072 C 
ATOM      2  C09 XLO d   1     -20.781   0.165 -24.820  0.00  0.00    -0.071 C 
ATOM      3  H5  XLO d   1     -22.147  -0.726 -26.106  0.00  0.00     0.084 H 
ATOM      4  H6  XLO d   1     -19.943   0.854 -24.728  0.00  0.00     0.084 H 
ENDROOT
BRANCH   1   5
ATOM      5  C04 XLO d   1     -20.770   0.513 -27.339  0.00  0.00    -0.035 A 
ATOM      6  C03 XLO d   1     -19.735   1.429 -27.321  0.00  0.00    -0.073 A 
ATOM      7  C02 XLO d   1     -19.239   1.938 -28.508  0.00  0.00    -0.081 A 
ATOM      8  H3  XLO d   1     -19.311   1.749 -26.376  0.00  0.00     0.084 H 
ATOM      9  C01 XLO d   1     -19.788   1.532 -29.714  0.00  0.00    -0.066 A 
ATOM     10  H2  XLO d   1     -18.424   2.652 -28.495  0.00  0.00     0.083 H 
ATOM     11  C06 XLO d   1     -20.824   0.615 -29.732  0.00  0.00     0.041 A 
ATOM     12  H1  XLO d   1     -19.405   1.934 -30.645  0.00  0.00     0.085 H 
ATOM     13  C05 XLO d   1     -21.312   0.098 -28.544  0.00  0.00    -0.057 A 
ATOM     14  H4  XLO d   1     -22.116  -0.629 -28.557  0.00  0.00     0.086 H 
BRANCH  11  15
ATOM     15  C07 XLO d   1     -21.414   0.178 -31.057  0.00  0.00     0.209 C 
ATOM     16  O01 XLO d   1     -22.536  -0.396 -31.097  0.00  0.00    -0.644 OA
ATOM     17  O02 XLO d   1     -20.775   0.391 -32.122  0.00  0.00    -0.644 OA
ENDBRANCH  11  15
ENDBRANCH   1   5
BRANCH   2  18
ATOM     18  C10 XLO d   1     -21.316  -0.484 -23.565  0.00  0.00    -0.014 A 
ATOM     19  C11 XLO d   1     -21.490  -1.868 -23.603  0.00  0.00    -0.069 A 
ATOM     20  C12 XLO d   1     -21.973  -2.539 -22.501  0.00  0.00    -0.050 A 
ATOM     21  H7  XLO d   1     -21.244  -2.418 -24.504  0.00  0.00     0.085 H 
ATOM     22  C13 XLO d   1     -22.263  -1.824 -21.351  0.00  0.00     0.067 A 
ATOM     23  H8  XLO d   1     -22.124  -3.612 -22.534  0.00  0.00     0.087 H 
ATOM     24  C14 XLO d   1     -22.083  -0.448 -21.303  0.00  0.00    -0.029 A 
ATOM     25  C15 XLO d   1     -21.605   0.238 -22.416  0.00  0.00     0.046 A 
ATOM     26  H9  XLO d   1     -22.316   0.095 -20.394  0.00  0.00     0.090 H 
ATOM     27 CL1  XLO d   1     -21.381   1.974 -22.325  0.00  0.00    -0.083 Cl
BRANCH  22  28
ATOM     28  O03 XLO d   1     -22.762  -2.513 -20.230  0.00  0.00    -0.361 OA
ATOM     29  H10 XLO d   1     -22.175  -2.385 -19.494  0.00  0.00     0.217 HD
ENDBRANCH  22  28
ENDBRANCH   2  18
TORSDOF 4
