REMARK  10 active torsions:
REMARK  status: ('A' for Active; 'I' for Inactive)
REMARK    1  A    between atoms: C13_1  and  C30_31 
REMARK    2  A    between atoms: C19_4  and  S36_36 
REMARK    3  A    between atoms: C30_31  and  C34_11 
REMARK    4  A    between atoms: C2_13  and  C31_32 
REMARK    5  A    between atoms: N7_18  and  C4_15 
REMARK    6  A    between atoms: C8_19  and  N7_18 
REMARK    7  A    between atoms: N16_24  and  C35_35 
REMARK       I    between atoms: C31_32  and  N32_33 
REMARK    8  A    between atoms: S36_36  and  C38_38 
REMARK    9  A    between atoms: C38_38  and  C39_39 
REMARK   10  A    between atoms: C38_38  and  C40_40 
ROOT
ATOM      1  C13 82J d   1       3.601  35.710  24.347  0.00  0.00    -0.051 A 
ATOM      2  C18 82J d   1       5.692  39.832  22.198  0.00  0.00    -0.017 A 
ATOM      3  C17 82J d   1       6.720  40.232  23.234  0.00  0.00     0.022 C 
ATOM      4  C19 82J d   1       5.832  40.061  20.815  0.00  0.00     0.067 A 
ATOM      5  C20 82J d   1       4.837  39.666  19.926  0.00  0.00    -0.059 A 
ATOM      6  C21 82J d   1       3.689  39.040  20.387  0.00  0.00    -0.056 A 
ATOM      7  C22 82J d   1       3.518  38.807  21.745  0.00  0.00     0.037 A 
ATOM      8  C23 82J d   1       4.522  39.195  22.628  0.00  0.00    -0.048 A 
ATOM      9  C11 82J d   1       3.255  36.641  26.548  0.00  0.00    -0.076 A 
ATOM     10  C12 82J d   1       2.729  36.025  25.412  0.00  0.00    -0.050 A 
ATOM     11  C8  82J d   1       6.899  37.185  25.575  0.00  0.00     0.113 C 
ATOM     12  C9  82J d   1       7.086  38.149  24.390  0.00  0.00     0.247 C 
ATOM     13  C10 82J d   1       4.598  36.961  26.629  0.00  0.00    -0.074 A 
ATOM     14  C14 82J d   1       4.952  36.043  24.456  0.00  0.00    -0.068 A 
ATOM     15  O15 82J d   1       7.584  37.724  23.366  0.00  0.00    -0.271 OA
ATOM     16  N16 82J d   1       6.653  39.428  24.469  0.00  0.00    -0.350 N 
ATOM     17  N24 82J d   1       2.331  38.171  22.206  0.00  0.00    -0.303 N 
ATOM     18  C25 82J d   1       1.227  35.769  25.361  0.00  0.00    -0.020 C 
ATOM     19  C26 82J d   1       1.787  38.240  23.453  0.00  0.00     0.365 C 
ATOM     20  O27 82J d   1       0.781  37.345  23.557  0.00  0.00    -0.303 OA
ATOM     21  O28 82J d   1       2.178  38.928  24.367  0.00  0.00    -0.238 OA
ATOM     22  C29 82J d   1       0.399  36.972  24.911  0.00  0.00     0.034 C 
ATOM     23  C42 82J d   1       5.459  36.687  25.578  0.00  0.00    -0.026 A 
ATOM     24  H1  82J d   1       6.558  41.288  23.497  0.00  0.00     0.071 H 
ATOM     25  H2  82J d   1       7.721  40.113  22.795  0.00  0.00     0.071 H 
ATOM     26  H3  82J d   1       4.960  39.849  18.865  0.00  0.00     0.085 H 
ATOM     27  H4  82J d   1       2.923  38.732  19.685  0.00  0.00     0.087 H 
ATOM     28  H5  82J d   1       4.393  38.997  23.686  0.00  0.00     0.087 H 
ATOM     29  H6  82J d   1       2.600  36.873  27.381  0.00  0.00     0.084 H 
ATOM     30  H15 82J d   1       7.095  37.715  26.519  0.00  0.00     0.095 H 
ATOM     31  H16 82J d   1       4.982  37.432  27.526  0.00  0.00     0.084 H 
ATOM     32  H17 82J d   1       5.624  35.792  23.643  0.00  0.00     0.085 H 
ATOM     33  H18 82J d   1       1.841  37.610  21.539  0.00  0.00     0.171 HD
ATOM     34  H19 82J d   1       0.893  35.478  26.368  0.00  0.00     0.043 H 
ATOM     35  H20 82J d   1       1.042  34.942  24.660  0.00  0.00     0.043 H 
ATOM     36  H21 82J d   1       0.582  37.818  25.590  0.00  0.00     0.075 H 
ATOM     37  H22 82J d   1      -0.669  36.710  24.932  0.00  0.00     0.075 H 
ENDROOT
BRANCH  11  38
ATOM     38  N7  82J d   1       7.859  36.101  25.432  0.00  0.00    -0.373 N 
ATOM     39  H14 82J d   1       8.176  35.884  24.476  0.00  0.00     0.161 HD
BRANCH  38  40
ATOM     40  C4  82J d   1       8.393  35.325  26.465  0.00  0.00     0.029 A 
ATOM     41  C3  82J d   1       8.204  35.646  27.814  0.00  0.00    -0.042 A 
ATOM     42  C2  82J d   1       8.782  34.865  28.813  0.00  0.00     0.034 A 
ATOM     43  H11 82J d   1       7.604  36.508  28.084  0.00  0.00     0.088 H 
ATOM     44  C1  82J d   1       9.547  33.759  28.453  0.00  0.00    -0.068 A 
ATOM     45  C6  82J d   1       9.732  33.441  27.118  0.00  0.00    -0.080 A 
ATOM     46  H10 82J d   1      10.000  33.144  29.222  0.00  0.00     0.085 H 
ATOM     47  C5  82J d   1       9.163  34.216  26.124  0.00  0.00    -0.058 A 
ATOM     48  H13 82J d   1      10.328  32.577  26.850  0.00  0.00     0.083 H 
ATOM     49  H12 82J d   1       9.316  33.961  25.082  0.00  0.00     0.086 H 
BRANCH  42  50
ATOM     50  C31 82J d   1       8.540  35.258  30.251  0.00  0.00     0.249 C 
ATOM     51  N32 82J d   1       9.139  34.537  31.225  0.00  0.00    -0.366 N 
ATOM     52  H25 82J d   1       8.995  34.777  32.185  0.00  0.00     0.159 HD
ATOM     53  H26 82J d   1       9.726  33.764  30.985  0.00  0.00     0.159 HD
ATOM     54  O33 82J d   1       7.777  36.208  30.500  0.00  0.00    -0.268 OA
ENDBRANCH  42  50
ENDBRANCH  38  40
ENDBRANCH  11  38
BRANCH  16  55
ATOM     55  C35 82J d   1       6.144  40.102  25.664  0.00  0.00    -0.016 C 
ATOM     56  H27 82J d   1       6.145  39.399  26.510  0.00  0.00     0.056 H 
ATOM     57  H28 82J d   1       5.118  40.452  25.479  0.00  0.00     0.056 H 
ATOM     58  H29 82J d   1       6.787  40.962  25.902  0.00  0.00     0.056 H 
ENDBRANCH  16  55
BRANCH   1  59
ATOM     59  C30 82J d   1       3.161  35.005  23.090  0.00  0.00    -0.044 C 
ATOM     60  H23 82J d   1       3.775  35.360  22.249  0.00  0.00     0.039 H 
ATOM     61  H24 82J d   1       2.104  35.244  22.899  0.00  0.00     0.039 H 
BRANCH  59  62
ATOM     62  C34 82J d   1       3.306  33.549  23.202  0.00  0.00    -0.073 C 
ATOM     63  H7  82J d   1       2.975  33.075  22.266  0.00  0.00     0.028 H 
ATOM     64  H8  82J d   1       2.691  33.182  24.037  0.00  0.00     0.028 H 
ATOM     65  H9  82J d   1       4.361  33.299  23.387  0.00  0.00     0.028 H 
ENDBRANCH  59  62
ENDBRANCH   1  59
BRANCH   4  66
ATOM     66  S36 82J d   1       7.247  40.866  20.058  0.00  0.00     0.179 S 
ATOM     67  O37 82J d   1       7.962  41.613  21.058  0.00  0.00    -0.222 OA
ATOM     68  O41 82J d   1       6.776  41.565  18.893  0.00  0.00    -0.222 OA
BRANCH  66  69
ATOM     69  C38 82J d   1       8.348  39.495  19.477  0.00  0.00     0.042 C 
ATOM     70  H30 82J d   1       7.705  38.769  18.959  0.00  0.00     0.063 H 
BRANCH  69  71
ATOM     71  C39 82J d   1       9.047  38.725  20.584  0.00  0.00    -0.060 C 
ATOM     72  H31 82J d   1       9.674  37.937  20.142  0.00  0.00     0.029 H 
ATOM     73  H32 82J d   1       8.295  38.269  21.244  0.00  0.00     0.029 H 
ATOM     74  H33 82J d   1       9.678  39.412  21.167  0.00  0.00     0.029 H 
ENDBRANCH  69  71
BRANCH  69  75
ATOM     75  C40 82J d   1       9.322  40.045  18.453  0.00  0.00    -0.060 C 
ATOM     76  H34 82J d   1       9.980  39.237  18.102  0.00  0.00     0.029 H 
ATOM     77  H35 82J d   1       9.929  40.839  18.913  0.00  0.00     0.029 H 
ATOM     78  H36 82J d   1       8.763  40.459  17.601  0.00  0.00     0.029 H 
ENDBRANCH  69  75
ENDBRANCH  66  69
ENDBRANCH   4  66
TORSDOF 10
