REMARK  6 active torsions:
REMARK  status: ('A' for Active; 'I' for Inactive)
REMARK    1  A    between atoms: CAY_1  and  CAA_2 
REMARK    2  A    between atoms: CAY_1  and  NAQ_3 
REMARK    3  A    between atoms: CAU_27  and  CAY_1 
REMARK    4  A    between atoms: NAQ_3  and  CAZ_4 
REMARK    5  A    between atoms: CAZ_4  and  PBA_5 
REMARK    6  A    between atoms: CAZ_4  and  CAV_9 
ROOT
ATOM      1  CAZ 84J d   1      -9.579  19.371 -50.887  0.00  0.00     0.236 C 
ATOM      2  H7  84J d   1      -9.095  20.230 -50.399  0.00  0.00     0.114 H 
ENDROOT
BRANCH   1   3
ATOM      3  NAQ 84J d   1     -10.968  19.346 -50.463  0.00  0.00    -0.046 N 
ATOM      4  H5  84J d   1     -11.361  20.250 -50.675  0.00  0.00     0.279 HD
ATOM      5  H6  84J d   1     -11.435  18.640 -51.011  0.00  0.00     0.279 HD
BRANCH   3   6
ATOM      6  CAY 84J d   1     -11.253  19.071 -49.082  0.00  0.00     0.125 C 
ATOM      7  H1  84J d   1     -10.641  18.218 -48.752  0.00  0.00     0.091 H 
BRANCH   6   8
ATOM      8  CAA 84J d   1     -10.917  20.250 -48.183  0.00  0.00    -0.046 C 
ATOM      9  H2  84J d   1     -11.151  19.994 -47.139  0.00  0.00     0.030 H 
ATOM     10  H3  84J d   1     -11.511  21.124 -48.488  0.00  0.00     0.030 H 
ATOM     11  H4  84J d   1      -9.846  20.485 -48.272  0.00  0.00     0.030 H 
ENDBRANCH   6   8
BRANCH   6  12
ATOM     12  CAU 84J d   1     -12.727  18.665 -49.034  0.00  0.00    -0.028 A 
ATOM     13  CAL 84J d   1     -13.746  19.602 -48.889  0.00  0.00    -0.074 A 
ATOM     14  CAI 84J d   1     -15.081  19.200 -48.878  0.00  0.00    -0.066 A 
ATOM     15  H13 84J d   1     -13.500  20.652 -48.784  0.00  0.00     0.084 H 
ATOM     16  CAR 84J d   1     -15.384  17.841 -49.025  0.00  0.00     0.011 A 
ATOM     17  H14 84J d   1     -15.873  19.930 -48.757  0.00  0.00     0.085 H 
ATOM     18 BRAG 84J d   1     -17.210  17.248 -49.029  0.00  0.00    -0.051 Br
ATOM     19  CAJ 84J d   1     -14.371  16.907 -49.188  0.00  0.00    -0.066 A 
ATOM     20  CAM 84J d   1     -13.054  17.323 -49.196  0.00  0.00    -0.074 A 
ATOM     21  H15 84J d   1     -14.612  15.857 -49.308  0.00  0.00     0.085 H 
ATOM     22  H16 84J d   1     -12.264  16.593 -49.331  0.00  0.00     0.084 H 
ENDBRANCH   6  12
ENDBRANCH   3   6
ENDBRANCH   1   3
BRANCH   1  23
ATOM     23  PBA 84J d   1      -9.618  19.738 -52.640  0.00  0.00     0.296 P 
ATOM     24  OAE 84J d   1     -10.387  18.617 -53.309  0.00  0.00    -0.638 OA
ATOM     25  OAF 84J d   1      -8.198  19.855 -53.160  0.00  0.00    -0.638 OA
ATOM     26  OAB 84J d   1     -10.336  21.051 -52.798  0.00  0.00    -0.638 OA
ENDBRANCH   1  23
BRANCH   1  27
ATOM     27  CAV 84J d   1      -8.807  18.161 -50.416  0.00  0.00     0.015 A 
ATOM     28  CAX 84J d   1      -9.333  16.877 -50.547  0.00  0.00     0.070 A 
ATOM     29  NAP 84J d   1     -10.508  16.644 -51.193  0.00  0.00    -0.329 N 
ATOM     30  CAW 84J d   1      -8.607  15.784 -50.001  0.00  0.00     0.061 A 
ATOM     31  CAT 84J d   1     -10.975  15.428 -51.321  0.00  0.00     0.233 A 
ATOM     32  H8  84J d   1     -11.022  17.412 -51.575  0.00  0.00     0.168 HD
ATOM     33  OAD 84J d   1     -12.162  15.260 -51.997  0.00  0.00    -0.167 OA
ATOM     34  CAS 84J d   1     -10.304  14.381 -50.784  0.00  0.00     0.233 A 
ATOM     35  OAC 84J d   1     -10.805  13.105 -50.874  0.00  0.00    -0.167 OA
ATOM     36  NAO 84J d   1      -9.150  14.558 -50.163  0.00  0.00    -0.329 N 
ATOM     37  H9  84J d   1      -8.665  13.761 -49.803  0.00  0.00     0.168 HD
ATOM     38  CAN 84J d   1      -7.395  16.030 -49.367  0.00  0.00    -0.055 A 
ATOM     39  CAH 84J d   1      -6.910  17.322 -49.232  0.00  0.00    -0.080 A 
ATOM     40  H10 84J d   1      -6.821  15.200 -48.972  0.00  0.00     0.087 H 
ATOM     41  CAK 84J d   1      -7.607  18.401 -49.773  0.00  0.00    -0.072 A 
ATOM     42  H11 84J d   1      -5.981  17.494 -48.701  0.00  0.00     0.083 H 
ATOM     43  H12 84J d   1      -7.216  19.409 -49.691  0.00  0.00     0.084 H 
ENDBRANCH   1  27
TORSDOF 6
