REMARK  6 active torsions:
REMARK  status: ('A' for Active; 'I' for Inactive)
REMARK    1  A    between atoms: C10_17  and  C11_4 
REMARK    2  A    between atoms: C02_9  and  C01_8 
REMARK    3  A    between atoms: C02_9  and  C03_10 
REMARK    4  A    between atoms: C04_11  and  C02_9 
REMARK    5  A    between atoms: C13_19  and  C06_13 
REMARK    6  A    between atoms: C07_14  and  O08_15 
REMARK       I    between atoms: C13_19  and  N15_21 
ROOT
ATOM      1  C04 83S d   1      33.117  81.920  -3.689  0.00  0.00    -0.040 A 
ATOM      2  C05 83S d   1      33.622  83.169  -3.980  0.00  0.00    -0.058 A 
ATOM      3  C06 83S d   1      35.020  83.427  -3.809  0.00  0.00     0.066 A 
ATOM      4  C07 83S d   1      35.890  82.437  -3.313  0.00  0.00     0.082 A 
ATOM      5  C09 83S d   1      35.370  81.182  -3.003  0.00  0.00    -0.037 A 
ATOM      6  C10 83S d   1      33.997  80.911  -3.173  0.00  0.00     0.011 A 
ATOM      7  H14 83S d   1      32.964  83.953  -4.337  0.00  0.00     0.086 H 
ATOM      8  H16 83S d   1      36.028  80.406  -2.627  0.00  0.00     0.089 H 
ENDROOT
BRANCH   3   9
ATOM      9  C13 83S d   1      35.574  84.782  -4.156  0.00  0.00     0.264 C 
ATOM     10  O14 83S d   1      35.859  85.620  -3.270  0.00  0.00    -0.267 OA
ATOM     11  N15 83S d   1      35.685  85.097  -5.491  0.00  0.00    -0.298 N 
ATOM     12  C23 83S d   1      35.492  84.151  -6.572  0.00  0.00    -0.002 C 
ATOM     13  C16 83S d   1      36.221  86.324  -5.990  0.00  0.00    -0.002 C 
ATOM     14  C22 83S d   1      36.116  84.773  -7.770  0.00  0.00    -0.009 A 
ATOM     15  H1  83S d   1      34.993  83.184  -6.518  0.00  0.00     0.113 H 
ATOM     16  C17 83S d   1      36.545  86.077  -7.421  0.00  0.00    -0.009 A 
ATOM     17  C21 83S d   1      36.283  84.310  -9.049  0.00  0.00    -0.071 A 
ATOM     18  C18 83S d   1      37.150  86.872  -8.350  0.00  0.00    -0.071 A 
ATOM     19  C19 83S d   1      37.326  86.389  -9.671  0.00  0.00    -0.082 A 
ATOM     20  H4  83S d   1      37.493  87.864  -8.080  0.00  0.00     0.084 H 
ATOM     21  C20 83S d   1      36.900  85.130 -10.019  0.00  0.00    -0.082 A 
ATOM     22  H5  83S d   1      37.801  87.019 -10.414  0.00  0.00     0.083 H 
ATOM     23  H2  83S d   1      37.037  84.769 -11.032  0.00  0.00     0.083 H 
ATOM     24  H6  83S d   1      35.942  83.316  -9.316  0.00  0.00     0.084 H 
ATOM     25  H17 83S d   1      36.363  87.251  -5.436  0.00  0.00     0.113 H 
ENDBRANCH   3   9
BRANCH   4  26
ATOM     26  O08 83S d   1      37.216  82.731  -3.107  0.00  0.00    -0.360 OA
ATOM     27  H15 83S d   1      37.662  81.961  -2.773  0.00  0.00     0.217 HD
ENDBRANCH   4  26
BRANCH   1  28
ATOM     28  C02 83S d   1      31.620  81.707  -3.850  0.00  0.00    -0.035 C 
ATOM     29  H10 83S d   1      31.429  80.624  -3.836  0.00  0.00     0.046 H 
BRANCH  28  30
ATOM     30  C01 83S d   1      31.121  82.225  -5.137  0.00  0.00    -0.069 C 
ATOM     31  H7  83S d   1      30.038  82.049  -5.208  0.00  0.00     0.028 H 
ATOM     32  H8  83S d   1      31.631  81.708  -5.963  0.00  0.00     0.028 H 
ATOM     33  H9  83S d   1      31.322  83.305  -5.200  0.00  0.00     0.028 H 
ENDBRANCH  28  30
BRANCH  28  34
ATOM     34  C03 83S d   1      30.846  82.368  -2.581  0.00  0.00    -0.069 C 
ATOM     35  H11 83S d   1      31.252  81.952  -1.647  0.00  0.00     0.028 H 
ATOM     36  H12 83S d   1      29.772  82.141  -2.648  0.00  0.00     0.028 H 
ATOM     37  H13 83S d   1      30.991  83.458  -2.590  0.00  0.00     0.028 H 
ENDBRANCH  28  34
ENDBRANCH   1  28
BRANCH   6  38
ATOM     38  C11 83S d   1      33.498  79.518  -2.815  0.00  0.00     0.119 C 
ATOM     39  O12 83S d   1      32.692  78.914  -3.591  0.00  0.00    -0.301 OA
ATOM     40  H3  83S d   1      33.831  79.039  -1.895  0.00  0.00     0.151 H 
ENDBRANCH   6  38
TORSDOF 6
