REMARK  5 active torsions:
REMARK  status: ('A' for Active; 'I' for Inactive)
REMARK    1  A    between atoms: C01_1  and  C02_2 
REMARK    2  A    between atoms: C02_2  and  C03_3 
REMARK    3  A    between atoms: C02_2  and  C04_4 
REMARK    4  A    between atoms: C06_6  and  C14_14 
REMARK    5  A    between atoms: C07_7  and  O08_8 
REMARK       I    between atoms: C14_14  and  N16_16 
ROOT
ATOM      1  C04 KU3 d   1     -22.396 101.384   0.879  0.00  0.00    -0.017 A 
ATOM      2  C05 KU3 d   1     -23.546 102.125   1.128  0.00  0.00    -0.056 A 
ATOM      3  C06 KU3 d   1     -24.799 101.565   0.842  0.00  0.00     0.067 A 
ATOM      4  C07 KU3 d   1     -24.923 100.286   0.319  0.00  0.00     0.096 A 
ATOM      5  C09 KU3 d   1     -23.768  99.542   0.054  0.00  0.00     0.054 A 
ATOM      6  C10 KU3 d   1     -22.520 100.090   0.331  0.00  0.00     0.122 A 
ATOM      7  O11 KU3 d   1     -21.596  99.199  -0.011  0.00  0.00    -0.212 OA
ATOM      8  N12 KU3 d   1     -22.184  98.096  -0.486  0.00  0.00    -0.139 NA
ATOM      9  C13 KU3 d   1     -23.518  98.198  -0.494  0.00  0.00     0.044 A 
ATOM     10  H8  KU3 d   1     -23.474 103.126   1.539  0.00  0.00     0.086 H 
ATOM     11  H10 KU3 d   1     -24.247  97.461  -0.827  0.00  0.00     0.119 H 
ENDROOT
BRANCH   3  12
ATOM     12  C14 KU3 d   1     -26.030 102.388   1.138  0.00  0.00     0.264 C 
ATOM     13  O15 KU3 d   1     -26.694 102.941   0.328  0.00  0.00    -0.267 OA
ATOM     14  N16 KU3 d   1     -26.335 102.542   2.515  0.00  0.00    -0.298 N 
ATOM     15  C17 KU3 d   1     -25.653 101.903   3.621  0.00  0.00    -0.002 C 
ATOM     16  C20 KU3 d   1     -27.481 103.326   2.946  0.00  0.00    -0.002 C 
ATOM     17  C18 KU3 d   1     -26.584 102.139   4.810  0.00  0.00    -0.008 A 
ATOM     18  H11 KU3 d   1     -24.700 101.377   3.609  0.00  0.00     0.113 H 
ATOM     19  C19 KU3 d   1     -27.616 102.960   4.429  0.00  0.00    -0.006 A 
ATOM     20  C25 KU3 d   1     -26.491 101.667   6.134  0.00  0.00    -0.068 A 
ATOM     21  C21 KU3 d   1     -28.613 103.337   5.346  0.00  0.00    -0.034 A 
ATOM     22  C22 KU3 d   1     -28.517 102.870   6.644  0.00  0.00     0.117 A 
ATOM     23  H13 KU3 d   1     -29.434 103.976   5.044  0.00  0.00     0.089 H 
ATOM     24  F23 KU3 d   1     -29.474 103.231   7.542  0.00  0.00    -0.206 F 
ATOM     25  C24 KU3 d   1     -27.477 102.039   7.038  0.00  0.00    -0.045 A 
ATOM     26  H14 KU3 d   1     -27.434 101.678   8.059  0.00  0.00     0.088 H 
ATOM     27  H15 KU3 d   1     -25.670 101.029   6.440  0.00  0.00     0.085 H 
ATOM     28  H12 KU3 d   1     -28.094 104.007   2.358  0.00  0.00     0.113 H 
ENDBRANCH   3  12
BRANCH   4  29
ATOM     29  O08 KU3 d   1     -26.189  99.763   0.059  0.00  0.00    -0.359 OA
ATOM     30  H9  KU3 d   1     -26.102  98.885  -0.293  0.00  0.00     0.217 HD
ENDBRANCH   4  29
BRANCH   1  31
ATOM     31  C02 KU3 d   1     -21.010 101.967   1.123  0.00  0.00    -0.033 C 
ATOM     32  H4  KU3 d   1     -20.280 101.144   1.152  0.00  0.00     0.046 H 
BRANCH  31  33
ATOM     33  C01 KU3 d   1     -20.892 102.741   2.422  0.00  0.00    -0.069 C 
ATOM     34  H1  KU3 d   1     -19.868 103.129   2.526  0.00  0.00     0.028 H 
ATOM     35  H2  KU3 d   1     -21.120 102.075   3.268  0.00  0.00     0.028 H 
ATOM     36  H3  KU3 d   1     -21.603 103.581   2.414  0.00  0.00     0.028 H 
ENDBRANCH  31  33
BRANCH  31  37
ATOM     37  C03 KU3 d   1     -20.706 102.879  -0.080  0.00  0.00    -0.069 C 
ATOM     38  H5  KU3 d   1     -20.797 102.300  -1.011  0.00  0.00     0.028 H 
ATOM     39  H6  KU3 d   1     -19.683 103.274   0.008  0.00  0.00     0.028 H 
ATOM     40  H7  KU3 d   1     -21.421 103.715  -0.097  0.00  0.00     0.028 H 
ENDBRANCH  31  37
ENDBRANCH   1  31
TORSDOF 5
