REMARK  8 active torsions:
REMARK  status: ('A' for Active; 'I' for Inactive)
REMARK    1  A    between atoms: C12_7  and  C8_8 
REMARK    2  A    between atoms: C4_10  and  C7_11 
REMARK    3  A    between atoms: C2_12  and  C6_13 
REMARK    4  A    between atoms: C11_17  and  C28_18 
REMARK    5  A    between atoms: C20_23  and  C22_24 
REMARK    6  A    between atoms: C22_24  and  C23_25 
REMARK    7  A    between atoms: C23_25  and  O25_27 
REMARK    8  A    between atoms: O25_27  and  C26_28 
ROOT
ATOM      1  C8  0S6 d   1      24.631  11.738 -12.483  0.00  0.00     0.075 C 
ATOM      2  C5  0S6 d   1      24.436  12.108 -11.091  0.00  0.00     0.035 A 
ATOM      3  C4  0S6 d   1      25.228  13.022 -10.337  0.00  0.00    -0.034 A 
ATOM      4  C2  0S6 d   1      24.794  13.162  -9.032  0.00  0.00    -0.012 A 
ATOM      5  S1  0S6 d   1      23.409  12.201  -8.710  0.00  0.00    -0.075 SA
ATOM      6  C3  0S6 d   1      23.413  11.588 -10.318  0.00  0.00     0.097 A 
ATOM      7  N9  0S6 d   1      22.428  10.722 -10.791  0.00  0.00    -0.275 N 
ATOM      8  C11 0S6 d   1      21.770   9.644 -10.255  0.00  0.00     0.131 A 
ATOM      9  N27 0S6 d   1      20.833   9.219 -11.070  0.00  0.00    -0.135 NA
ATOM     10  N21 0S6 d   1      20.856  10.012 -12.176  0.00  0.00    -0.132 NA
ATOM     11  C19 0S6 d   1      21.804  10.906 -12.000  0.00  0.00     0.161 A 
ATOM     12  N10 0S6 d   1      23.631  11.668 -13.313  0.00  0.00    -0.275 NA
ATOM     13  C20 0S6 d   1      22.243  11.974 -12.923  0.00  0.00     0.101 C 
ATOM     14  H14 0S6 d   1      22.210  12.941 -12.399  0.00  0.00     0.089 H 
ENDROOT
BRANCH   1  15
ATOM     15  C12 0S6 d   1      25.978  11.343 -12.967  0.00  0.00    -0.007 A 
ATOM     16  C17 0S6 d   1      26.370  11.523 -14.280  0.00  0.00    -0.069 A 
ATOM     17  C16 0S6 d   1      27.626  11.133 -14.700  0.00  0.00    -0.061 A 
ATOM     18  H2  0S6 d   1      25.684  11.975 -14.987  0.00  0.00     0.085 H 
ATOM     19  C15 0S6 d   1      28.517  10.553 -13.827  0.00  0.00     0.034 A 
ATOM     20  H1  0S6 d   1      27.915  11.286 -15.734  0.00  0.00     0.086 H 
ATOM     21 CL1  0S6 d   1      30.093  10.065 -14.361  0.00  0.00    -0.084 Cl
ATOM     22  C13 0S6 d   1      28.145  10.369 -12.517  0.00  0.00    -0.061 A 
ATOM     23  C14 0S6 d   1      26.888  10.760 -12.105  0.00  0.00    -0.069 A 
ATOM     24  H3  0S6 d   1      28.835   9.919 -11.812  0.00  0.00     0.086 H 
ATOM     25  H4  0S6 d   1      26.604  10.605 -11.070  0.00  0.00     0.085 H 
ENDBRANCH   1  15
BRANCH   3  26
ATOM     26  C7  0S6 d   1      26.382  13.763 -10.873  0.00  0.00    -0.049 C 
ATOM     27  H5  0S6 d   1      26.536  13.489 -11.927  0.00  0.00     0.033 H 
ATOM     28  H6  0S6 d   1      27.282  13.510 -10.293  0.00  0.00     0.033 H 
ATOM     29  H7  0S6 d   1      26.190  14.844 -10.799  0.00  0.00     0.033 H 
ENDBRANCH   3  26
BRANCH  13  30
ATOM     30  C22 0S6 d   1      21.369  12.061 -14.157  0.00  0.00     0.043 C 
ATOM     31  H15 0S6 d   1      20.316  12.133 -13.847  0.00  0.00     0.051 H 
ATOM     32  H16 0S6 d   1      21.512  11.154 -14.763  0.00  0.00     0.051 H 
BRANCH  30  33
ATOM     33  C23 0S6 d   1      21.721  13.266 -14.986  0.00  0.00     0.260 C 
ATOM     34  O24 0S6 d   1      22.460  14.177 -14.639  0.00  0.00    -0.265 OA
BRANCH  33  35
ATOM     35  O25 0S6 d   1      21.079  13.184 -16.182  0.00  0.00    -0.326 OA
BRANCH  35  36
ATOM     36  C26 0S6 d   1      21.436  14.228 -17.091  0.00  0.00     0.013 C 
ATOM     37  H17 0S6 d   1      20.882  14.100 -18.033  0.00  0.00     0.067 H 
ATOM     38  H18 0S6 d   1      22.517  14.185 -17.293  0.00  0.00     0.067 H 
ATOM     39  H19 0S6 d   1      21.184  15.203 -16.647  0.00  0.00     0.067 H 
ENDBRANCH  35  36
ENDBRANCH  33  35
ENDBRANCH  30  33
ENDBRANCH  13  30
BRANCH   4  40
ATOM     40  C6  0S6 d   1      25.353  14.002  -7.958  0.00  0.00    -0.045 C 
ATOM     41  H8  0S6 d   1      24.758  13.870  -7.042  0.00  0.00     0.034 H 
ATOM     42  H9  0S6 d   1      25.324  15.058  -8.265  0.00  0.00     0.034 H 
ATOM     43  H10 0S6 d   1      26.394  13.705  -7.764  0.00  0.00     0.034 H 
ENDBRANCH   4  40
BRANCH   8  44
ATOM     44  C28 0S6 d   1      22.064   9.037  -8.945  0.00  0.00    -0.019 C 
ATOM     45  H11 0S6 d   1      21.384   8.190  -8.772  0.00  0.00     0.037 H 
ATOM     46  H12 0S6 d   1      21.924   9.788  -8.153  0.00  0.00     0.037 H 
ATOM     47  H13 0S6 d   1      23.104   8.680  -8.931  0.00  0.00     0.037 H 
ENDBRANCH   8  44
TORSDOF 8
