REMARK  6 active torsions:
REMARK  status: ('A' for Active; 'I' for Inactive)
REMARK    1  A    between atoms: C14_16  and  C10_6 
REMARK    2  A    between atoms: C15_8  and  O23_23 
REMARK    3  A    between atoms: N20_20  and  C17_9 
REMARK    4  A    between atoms: O22_22  and  C11_14 
REMARK    5  A    between atoms: C12_15  and  O22_22 
REMARK    6  A    between atoms: O23_23  and  C18_18 
ROOT
ATOM      1  C5  89G d   1      17.358  12.315  -3.374  0.00  0.00    -0.080 A 
ATOM      2  C6  89G d   1      16.013  12.599  -1.403  0.00  0.00    -0.068 A 
ATOM      3  C10 89G d   1      14.964  12.002  -2.072  0.00  0.00     0.031 A 
ATOM      4  C2  89G d   1      17.214  12.767  -2.075  0.00  0.00    -0.082 A 
ATOM      5  C9  89G d   1      16.314  11.700  -4.037  0.00  0.00    -0.049 A 
ATOM      6  C12 89G d   1      15.103  11.559  -3.374  0.00  0.00     0.088 A 
ATOM      7  H2  89G d   1      18.307  12.446  -3.881  0.00  0.00     0.083 H 
ATOM      8  H3  89G d   1      15.901  12.929  -0.377  0.00  0.00     0.085 H 
ATOM      9  H11 89G d   1      18.045  13.255  -1.579  0.00  0.00     0.083 H 
ATOM     10  H13 89G d   1      16.438  11.336  -5.051  0.00  0.00     0.087 H 
ENDROOT
BRANCH   3  11
ATOM     11  C14 89G d   1      13.681  11.809  -1.353  0.00  0.00     0.123 A 
ATOM     12  C15 89G d   1      12.627  12.806  -1.608  0.00  0.00     0.104 A 
ATOM     13  C13 89G d   1      11.485  12.686  -0.893  0.00  0.00     0.019 A 
ATOM     14  C16 89G d   1      11.332  11.529   0.041  0.00  0.00     0.265 A 
ATOM     15  H6  89G d   1      10.689  13.422  -0.996  0.00  0.00     0.096 H 
ATOM     16  N20 89G d   1      12.386  10.651   0.095  0.00  0.00    -0.239 N 
ATOM     17  O21 89G d   1      10.294  11.390   0.693  0.00  0.00    -0.267 OA
ATOM     18  N19 89G d   1      13.568  10.799  -0.555  0.00  0.00    -0.166 NA
BRANCH  12  19
ATOM     19  O23 89G d   1      12.928  13.812  -2.525  0.00  0.00    -0.353 OA
BRANCH  19  20
ATOM     20  C18 89G d   1      11.733  14.512  -2.875  0.00  0.00     0.010 C 
ATOM     21  H14 89G d   1      11.972  15.306  -3.599  0.00  0.00     0.066 H 
ATOM     22  H15 89G d   1      11.292  14.960  -1.972  0.00  0.00     0.066 H 
ATOM     23  H16 89G d   1      11.015  13.810  -3.324  0.00  0.00     0.066 H 
ENDBRANCH  19  20
ENDBRANCH  12  19
BRANCH  16  24
ATOM     24  C17 89G d   1      12.290   9.493   0.962  0.00  0.00     0.006 C 
ATOM     25  H7  89G d   1      13.213   8.900   0.885  0.00  0.00     0.059 H 
ATOM     26  H8  89G d   1      11.432   8.876   0.657  0.00  0.00     0.059 H 
ATOM     27  H9  89G d   1      12.152   9.824   2.002  0.00  0.00     0.059 H 
ENDBRANCH  16  24
ENDBRANCH   3  11
BRANCH   6  28
ATOM     28  O22 89G d   1      14.002  10.942  -3.955  0.00  0.00    -0.310 OA
BRANCH  28  29
ATOM     29  C11 89G d   1      13.689  11.116  -5.294  0.00  0.00     0.076 A 
ATOM     30  C7  89G d   1      13.294   9.982  -5.976  0.00  0.00    -0.050 A 
ATOM     31  C3  89G d   1      12.913  10.074  -7.297  0.00  0.00    -0.080 A 
ATOM     32  H4  89G d   1      13.284   9.022  -5.473  0.00  0.00     0.087 H 
ATOM     33  C1  89G d   1      12.951  11.300  -7.931  0.00  0.00    -0.083 A 
ATOM     34  H12 89G d   1      12.586   9.191  -7.834  0.00  0.00     0.083 H 
ATOM     35  C4  89G d   1      13.343  12.434  -7.247  0.00  0.00    -0.080 A 
ATOM     36  H10 89G d   1      12.671  11.373  -8.976  0.00  0.00     0.083 H 
ATOM     37  C8  89G d   1      13.697  12.351  -5.916  0.00  0.00    -0.050 A 
ATOM     38  H1  89G d   1      13.373  13.390  -7.756  0.00  0.00     0.083 H 
ATOM     39  H5  89G d   1      13.977  13.242  -5.365  0.00  0.00     0.087 H 
ENDBRANCH  28  29
ENDBRANCH   6  28
TORSDOF 6
