REMARK  4 active torsions:
REMARK  status: ('A' for Active; 'I' for Inactive)
REMARK    1  A    between atoms: C8_5  and  C6_3 
REMARK    2  A    between atoms: C9_10  and  N15_15 
REMARK    3  A    between atoms: N14_14  and  C11_11 
REMARK    4  A    between atoms: N15_15  and  C12_12 
ROOT
ATOM      1  C7  89J d   1     -11.461  12.705   0.841  0.00  0.00     0.012 C 
ATOM      2  C8  89J d   1     -13.709  11.932   1.241  0.00  0.00     0.114 C 
ATOM      3  C10 89J d   1     -11.299  11.500   0.001  0.00  0.00     0.265 C 
ATOM      4  C9  89J d   1     -12.623  12.904   1.491  0.00  0.00     0.064 C 
ATOM      5  N13 89J d   1     -13.577  10.877   0.518  0.00  0.00    -0.167 NA
ATOM      6  N14 89J d   1     -12.358  10.637  -0.021  0.00  0.00    -0.239 N 
ATOM      7  O16 89J d   1     -10.218  11.295  -0.556  0.00  0.00    -0.267 OA
ATOM      8  H3  89J d   1     -10.649  13.425   0.933  0.00  0.00     0.095 H 
ENDROOT
BRANCH   2   9
ATOM      9  C6  89J d   1     -15.071  12.198   1.731  0.00  0.00    -0.003 A 
ATOM     10  C4  89J d   1     -15.634  11.361   2.674  0.00  0.00    -0.071 A 
ATOM     11  C2  89J d   1     -16.928  11.609   3.106  0.00  0.00    -0.082 A 
ATOM     12  H1  89J d   1     -15.073  10.523   3.071  0.00  0.00     0.084 H 
ATOM     13  C1  89J d   1     -17.641  12.671   2.578  0.00  0.00    -0.083 A 
ATOM     14  H5  89J d   1     -17.381  10.972   3.857  0.00  0.00     0.083 H 
ATOM     15  C3  89J d   1     -17.080  13.498   1.625  0.00  0.00    -0.082 A 
ATOM     16  H4  89J d   1     -18.654  12.856   2.917  0.00  0.00     0.083 H 
ATOM     17  C5  89J d   1     -15.786  13.259   1.194  0.00  0.00    -0.071 A 
ATOM     18  H6  89J d   1     -17.648  14.327   1.218  0.00  0.00     0.083 H 
ATOM     19  H2  89J d   1     -15.335  13.896   0.442  0.00  0.00     0.084 H 
ENDBRANCH   2   9
BRANCH   4  20
ATOM     20  N15 89J d   1     -12.892  13.965   2.332  0.00  0.00    -0.392 N 
ATOM     21  H13 89J d   1     -13.847  14.114   2.688  0.00  0.00     0.159 HD
BRANCH  20  22
ATOM     22  C12 89J d   1     -11.829  14.863   2.709  0.00  0.00    -0.021 C 
ATOM     23  H10 89J d   1     -12.226  15.641   3.378  0.00  0.00     0.056 H 
ATOM     24  H11 89J d   1     -11.409  15.333   1.808  0.00  0.00     0.056 H 
ATOM     25  H12 89J d   1     -11.040  14.300   3.230  0.00  0.00     0.056 H 
ENDBRANCH  20  22
ENDBRANCH   4  20
BRANCH   6  26
ATOM     26  C11 89J d   1     -12.247   9.405  -0.768  0.00  0.00     0.006 C 
ATOM     27  H7  89J d   1     -13.184   8.836  -0.677  0.00  0.00     0.059 H 
ATOM     28  H8  89J d   1     -11.415   8.807  -0.368  0.00  0.00     0.059 H 
ATOM     29  H9  89J d   1     -12.058   9.634  -1.827  0.00  0.00     0.059 H 
ENDBRANCH   6  26
TORSDOF 4
