REMARK  18 active torsions:
REMARK  status: ('A' for Active; 'I' for Inactive)
REMARK    1  A    between atoms: OAZ_1  and  CBV_2 
REMARK    2  A    between atoms: CBS_3  and  NAX_4 
REMARK       I    between atoms: NAX_4  and  CBF_5 
REMARK    3  A    between atoms: CBF_5  and  CAB_6 
REMARK    4  A    between atoms: CBI_8  and  OAH_9 
REMARK    5  A    between atoms: CBK_11  and  CAV_12 
REMARK    6  A    between atoms: CAV_12  and  OAG_13 
REMARK    7  A    between atoms: CBU_14  and  O1'_15 
REMARK    8  A    between atoms: O1'_15  and  C1'_16 
REMARK    9  A    between atoms: C5'_18  and  C6'_19 
REMARK   10  A    between atoms: C6'_19  and  O6'_20 
REMARK   11  A    between atoms: C4'_21  and  O4'_22 
REMARK   12  A    between atoms: C3'_23  and  O3'_24 
REMARK   13  A    between atoms: C2'_25  and  O2'_26 
REMARK   14  A    between atoms: O2'_26  and  CBQ_27 
REMARK   15  A    between atoms: CBH_29  and  CAC_30 
REMARK   16  A    between atoms: CBL_31  and  OAI_32 
REMARK   17  A    between atoms: CBN_33  and  OAK_34 
REMARK   18  A    between atoms: CBO_35  and  OAL_36 
ROOT
ATOM      1  C1' DR2 d   1      34.037  13.458 -27.586  0.00  0.00     0.159 C 
ATOM      2  O5' DR2 d   1      33.936  14.716 -26.851  0.00  0.00    -0.348 OA
ATOM      3  C5' DR2 d   1      34.708  15.808 -27.468  0.00  0.00     0.089 C 
ATOM      4  C4' DR2 d   1      34.254  16.028 -28.894  0.00  0.00     0.090 C 
ATOM      5  C3' DR2 d   1      34.312  14.754 -29.657  0.00  0.00     0.092 C 
ATOM      6  C2' DR2 d   1      33.565  13.636 -29.013  0.00  0.00     0.116 C 
ATOM      7  H15 DR2 d   1      35.083  13.116 -27.590  0.00  0.00     0.133 H 
ATOM      8  H16 DR2 d   1      35.777  15.551 -27.468  0.00  0.00     0.090 H 
ATOM      9  H20 DR2 d   1      34.906  16.771 -29.377  0.00  0.00     0.091 H 
ATOM     10  H22 DR2 d   1      35.370  14.454 -29.669  0.00  0.00     0.091 H 
ATOM     11  H24 DR2 d   1      32.487  13.856 -29.024  0.00  0.00     0.095 H 
ENDROOT
BRANCH   1  12
ATOM     12  O1' DR2 d   1      33.223  12.503 -26.930  0.00  0.00    -0.348 OA
BRANCH  12  13
ATOM     13  CBU DR2 d   1      33.865  12.018 -25.709  0.00  0.00     0.095 C 
ATOM     14  CBV DR2 d   1      32.865  12.059 -24.613  0.00  0.00     0.087 C 
ATOM     15  CBS DR2 d   1      33.328  11.309 -23.401  0.00  0.00     0.086 C 
ATOM     16  H2  DR2 d   1      31.939  11.589 -24.976  0.00  0.00     0.090 H 
ATOM     17  CBI DR2 d   1      33.731   9.893 -23.737  0.00  0.00     0.151 C 
ATOM     18  H3  DR2 d   1      34.200  11.835 -22.986  0.00  0.00     0.084 H 
ATOM     19  OBA DR2 d   1      34.797   9.946 -24.740  0.00  0.00    -0.349 OA
ATOM     20  H8  DR2 d   1      32.861   9.339 -24.120  0.00  0.00     0.132 H 
ATOM     21  CBK DR2 d   1      34.316  10.587 -25.967  0.00  0.00     0.089 C 
ATOM     22  H10 DR2 d   1      33.468  10.020 -26.377  0.00  0.00     0.090 H 
ATOM     23  H14 DR2 d   1      34.730  12.646 -25.451  0.00  0.00     0.091 H 
BRANCH  14  24
ATOM     24  OAZ DR2 d   1      32.574  13.455 -24.250  0.00  0.00    -0.391 OA
ATOM     25  H1  DR2 d   1      33.361  13.863 -23.908  0.00  0.00     0.210 HD
ENDBRANCH  14  24
BRANCH  15  26
ATOM     26  NAX DR2 d   1      32.267  11.255 -22.370  0.00  0.00    -0.349 N 
ATOM     27  CBF DR2 d   1      32.563  11.643 -21.001  0.00  0.00     0.214 C 
ATOM     28  OAD DR2 d   1      33.684  12.032 -20.691  0.00  0.00    -0.274 OA
ATOM     29  H4  DR2 d   1      31.346  10.951 -22.616  0.00  0.00     0.163 HD
BRANCH  27  30
ATOM     30  CAB DR2 d   1      31.423  11.573 -19.946  0.00  0.00    -0.003 C 
ATOM     31  H5  DR2 d   1      31.808  11.897 -18.968  0.00  0.00     0.040 H 
ATOM     32  H6  DR2 d   1      31.056  10.539 -19.871  0.00  0.00     0.040 H 
ATOM     33  H7  DR2 d   1      30.599  12.234 -20.253  0.00  0.00     0.040 H 
ENDBRANCH  27  30
ENDBRANCH  15  26
BRANCH  17  34
ATOM     34  OAH DR2 d   1      34.263   9.243 -22.630  0.00  0.00    -0.369 OA
ATOM     35  H9  DR2 d   1      35.011   9.732 -22.306  0.00  0.00     0.212 HD
ENDBRANCH  17  34
BRANCH  21  36
ATOM     36  CAV DR2 d   1      35.469  10.537 -26.921  0.00  0.00     0.043 C 
ATOM     37  H11 DR2 d   1      36.364  10.982 -26.462  0.00  0.00     0.078 H 
ATOM     38  H12 DR2 d   1      35.224  11.079 -27.846  0.00  0.00     0.078 H 
BRANCH  36  39
ATOM     39  OAG DR2 d   1      35.688   9.156 -27.198  0.00  0.00    -0.398 OA
ATOM     40  H13 DR2 d   1      36.415   9.067 -27.803  0.00  0.00     0.209 HD
ENDBRANCH  36  39
ENDBRANCH  21  36
ENDBRANCH  12  13
ENDBRANCH   1  12
BRANCH   6  41
ATOM     41  O2' DR2 d   1      33.827  12.413 -29.741  0.00  0.00    -0.346 OA
BRANCH  41  42
ATOM     42  CBQ DR2 d   1      32.692  11.979 -30.453  0.00  0.00     0.159 C 
ATOM     43  OBB DR2 d   1      32.077  10.905 -29.688  0.00  0.00    -0.351 OA
ATOM     44  CBH DR2 d   1      32.958   9.731 -29.512  0.00  0.00     0.065 C 
ATOM     45  CBL DR2 d   1      33.409   9.204 -30.850  0.00  0.00     0.087 C 
ATOM     46  H26 DR2 d   1      33.837  10.009 -28.912  0.00  0.00     0.086 H 
ATOM     47  CBN DR2 d   1      34.058  10.290 -31.612  0.00  0.00     0.092 C 
ATOM     48  H30 DR2 d   1      34.124   8.380 -30.708  0.00  0.00     0.091 H 
ATOM     49  CBO DR2 d   1      33.132  11.469 -31.791  0.00  0.00     0.110 C 
ATOM     50  H32 DR2 d   1      34.934  10.629 -31.040  0.00  0.00     0.091 H 
ATOM     51  H34 DR2 d   1      32.256  11.160 -32.380  0.00  0.00     0.094 H 
ATOM     52  H25 DR2 d   1      31.980  12.807 -30.583  0.00  0.00     0.133 H 
BRANCH  44  53
ATOM     53  CAC DR2 d   1      32.159   8.678 -28.800  0.00  0.00    -0.050 C 
ATOM     54  H27 DR2 d   1      32.782   7.784 -28.649  0.00  0.00     0.031 H 
ATOM     55  H28 DR2 d   1      31.279   8.414 -29.405  0.00  0.00     0.031 H 
ATOM     56  H29 DR2 d   1      31.830   9.065 -27.824  0.00  0.00     0.031 H 
ENDBRANCH  44  53
BRANCH  45  57
ATOM     57  OAI DR2 d   1      32.242   8.721 -31.542  0.00  0.00    -0.390 OA
ATOM     58  H31 DR2 d   1      31.625   9.434 -31.657  0.00  0.00     0.210 HD
ENDBRANCH  45  57
BRANCH  47  59
ATOM     59  OAK DR2 d   1      34.511   9.819 -32.885  0.00  0.00    -0.390 OA
ATOM     60  H33 DR2 d   1      34.924  10.533 -33.357  0.00  0.00     0.210 HD
ENDBRANCH  47  59
BRANCH  49  61
ATOM     61  OAL DR2 d   1      33.823  12.543 -32.467  0.00  0.00    -0.388 OA
ATOM     62  H35 DR2 d   1      34.116  12.243 -33.319  0.00  0.00     0.210 HD
ENDBRANCH  49  61
ENDBRANCH  41  42
ENDBRANCH   6  41
BRANCH   3  63
ATOM     63  C6' DR2 d   1      34.491  17.033 -26.647  0.00  0.00     0.043 C 
ATOM     64  H17 DR2 d   1      33.411  17.213 -26.543  0.00  0.00     0.078 H 
ATOM     65  H18 DR2 d   1      34.959  17.893 -27.148  0.00  0.00     0.078 H 
BRANCH  63  66
ATOM     66  O6' DR2 d   1      35.052  16.878 -25.385  0.00  0.00    -0.398 OA
ATOM     67  H19 DR2 d   1      34.648  16.137 -24.949  0.00  0.00     0.209 HD
ENDBRANCH  63  66
ENDBRANCH   3  63
BRANCH   5  68
ATOM     68  O3' DR2 d   1      33.914  14.918 -31.033  0.00  0.00    -0.390 OA
ATOM     69  H23 DR2 d   1      33.967  14.081 -31.479  0.00  0.00     0.210 HD
ENDBRANCH   5  68
BRANCH   4  70
ATOM     70  O4' DR2 d   1      32.884  16.520 -28.869  0.00  0.00    -0.390 OA
ATOM     71  H21 DR2 d   1      32.584  16.663 -29.759  0.00  0.00     0.210 HD
ENDBRANCH   4  70
TORSDOF 18
