REMARK  17 active torsions:
REMARK  status: ('A' for Active; 'I' for Inactive)
REMARK    1  A    between atoms: OA1_2  and  CA1_1 
REMARK    2  A    between atoms: CB2_14  and  OA1_2 
REMARK    3  A    between atoms: CA2_3  and  OA2_4 
REMARK    4  A    between atoms: CA3_5  and  OA3_6 
REMARK    5  A    between atoms: CA4_7  and  OA4_8 
REMARK    6  A    between atoms: CA5_9  and  CA6_11 
REMARK    7  A    between atoms: OB1_13  and  CB1_12 
REMARK    8  A    between atoms: CC4_29  and  OB1_13 
REMARK    9  A    between atoms: CB3_15  and  OB3_16 
REMARK   10  A    between atoms: CB4_17  and  OB4_18 
REMARK   11  A    between atoms: CB5_19  and  CB6_21 
REMARK   12  A    between atoms: CB6_21  and  OB6_22 
REMARK   13  A    between atoms: CC1_23  and  OC1_24 
REMARK   14  A    between atoms: CC2_25  and  OC2_26 
REMARK   15  A    between atoms: CC3_27  and  OC3_28 
REMARK   16  A    between atoms: CC5_30  and  CC6_32 
REMARK   17  A    between atoms: CC6_32  and  OC6_33 
ROOT
ATOM      1  CB1 8B7 d   1       6.154   7.493  24.468  0.00  0.00     0.159 C 
ATOM      2  CB2 8B7 d   1       7.549   7.906  24.716  0.00  0.00     0.116 C 
ATOM      3  CB3 8B7 d   1       7.626   9.224  25.312  0.00  0.00     0.092 C 
ATOM      4  CB4 8B7 d   1       6.920  10.248  24.512  0.00  0.00     0.090 C 
ATOM      5  CB5 8B7 d   1       5.468   9.875  24.188  0.00  0.00     0.089 C 
ATOM      6  OB5 8B7 d   1       5.450   8.457  23.613  0.00  0.00    -0.348 OA
ATOM      7  H12 8B7 d   1       5.617   7.373  25.421  0.00  0.00     0.133 H 
ATOM      8  H13 8B7 d   1       8.113   7.887  23.772  0.00  0.00     0.095 H 
ATOM      9  H14 8B7 d   1       7.138   9.176  26.297  0.00  0.00     0.091 H 
ATOM     10  H16 8B7 d   1       6.872  11.150  25.140  0.00  0.00     0.091 H 
ATOM     11  H18 8B7 d   1       4.869   9.912  25.110  0.00  0.00     0.090 H 
ENDROOT
BRANCH   1  12
ATOM     12  OB1 8B7 d   1       6.221   6.278  23.772  0.00  0.00    -0.348 OA
BRANCH  12  13
ATOM     13  CC4 8B7 d   1       4.960   5.582  23.703  0.00  0.00     0.096 C 
ATOM     14  CC3 8B7 d   1       4.884   5.092  22.291  0.00  0.00     0.092 C 
ATOM     15  CC2 8B7 d   1       3.865   4.071  22.138  0.00  0.00     0.110 C 
ATOM     16  H26 8B7 d   1       5.857   4.655  22.020  0.00  0.00     0.091 H 
ATOM     17  CC1 8B7 d   1       4.218   2.922  22.925  0.00  0.00     0.156 C 
ATOM     18  H24 8B7 d   1       2.906   4.475  22.496  0.00  0.00     0.094 H 
ATOM     19  OC5 8B7 d   1       4.091   3.311  24.339  0.00  0.00    -0.349 OA
ATOM     20  H22 8B7 d   1       5.251   2.614  22.704  0.00  0.00     0.133 H 
ATOM     21  CC5 8B7 d   1       5.053   4.435  24.701  0.00  0.00     0.089 C 
ATOM     22  H29 8B7 d   1       6.083   4.049  24.693  0.00  0.00     0.090 H 
ATOM     23  H28 8B7 d   1       4.109   6.237  23.941  0.00  0.00     0.091 H 
BRANCH  14  24
ATOM     24  OC3 8B7 d   1       4.603   6.233  21.384  0.00  0.00    -0.390 OA
ATOM     25  H27 8B7 d   1       5.276   6.895  21.492  0.00  0.00     0.210 HD
ENDBRANCH  14  24
BRANCH  15  26
ATOM     26  OC2 8B7 d   1       3.707   3.652  20.715  0.00  0.00    -0.388 OA
ATOM     27  H25 8B7 d   1       3.473   4.407  20.188  0.00  0.00     0.210 HD
ENDBRANCH  15  26
BRANCH  17  28
ATOM     28  OC1 8B7 d   1       3.328   1.849  22.651  0.00  0.00    -0.369 OA
ATOM     29  H23 8B7 d   1       3.409   1.597  21.739  0.00  0.00     0.212 HD
ENDBRANCH  17  28
BRANCH  21  30
ATOM     30  CC6 8B7 d   1       4.723   4.859  26.011  0.00  0.00     0.043 C 
ATOM     31  H30 8B7 d   1       3.697   4.548  26.260  0.00  0.00     0.078 H 
ATOM     32  H31 8B7 d   1       4.802   5.954  26.083  0.00  0.00     0.078 H 
BRANCH  30  33
ATOM     33  OC6 8B7 d   1       5.642   4.248  26.898  0.00  0.00    -0.398 OA
ATOM     34  H32 8B7 d   1       5.446   4.514  27.788  0.00  0.00     0.209 HD
ENDBRANCH  30  33
ENDBRANCH  21  30
ENDBRANCH  12  13
ENDBRANCH   1  12
BRANCH   2  35
ATOM     35  OA1 8B7 d   1       8.140   6.970  25.701  0.00  0.00    -0.346 OA
BRANCH  35  36
ATOM     36  CA1 8B7 d   1       9.458   6.664  25.396  0.00  0.00     0.159 C 
ATOM     37  CA2 8B7 d   1      10.181   6.493  26.702  0.00  0.00     0.110 C 
ATOM     38  CA3 8B7 d   1       9.579   5.391  27.521  0.00  0.00     0.092 C 
ATOM     39  H2  8B7 d   1      11.232   6.246  26.493  0.00  0.00     0.094 H 
ATOM     40  CA4 8B7 d   1       9.449   4.114  26.765  0.00  0.00     0.087 C 
ATOM     41  H4  8B7 d   1       8.570   5.708  27.824  0.00  0.00     0.091 H 
ATOM     42  CA5 8B7 d   1       8.826   4.258  25.387  0.00  0.00     0.065 C 
ATOM     43  H6  8B7 d   1       8.816   3.430  27.349  0.00  0.00     0.091 H 
ATOM     44  OA5 8B7 d   1       9.345   5.403  24.609  0.00  0.00    -0.351 OA
ATOM     45  H8  8B7 d   1       7.747   4.415  25.535  0.00  0.00     0.086 H 
ATOM     46  H1  8B7 d   1       9.939   7.453  24.800  0.00  0.00     0.133 H 
BRANCH  37  47
ATOM     47  OA2 8B7 d   1      10.124   7.726  27.454  0.00  0.00    -0.388 OA
ATOM     48  H3  8B7 d   1      10.536   8.420  26.953  0.00  0.00     0.210 HD
ENDBRANCH  37  47
BRANCH  38  49
ATOM     49  OA3 8B7 d   1      10.378   5.173  28.726  0.00  0.00    -0.390 OA
ATOM     50  H5  8B7 d   1       9.991   4.474  29.239  0.00  0.00     0.210 HD
ENDBRANCH  38  49
BRANCH  40  51
ATOM     51  OA4 8B7 d   1      10.778   3.552  26.649  0.00  0.00    -0.390 OA
ATOM     52  H7  8B7 d   1      11.131   3.394  27.517  0.00  0.00     0.210 HD
ENDBRANCH  40  51
BRANCH  42  53
ATOM     53  CA6 8B7 d   1       9.008   3.030  24.579  0.00  0.00    -0.050 C 
ATOM     54  H9  8B7 d   1       8.546   3.170  23.591  0.00  0.00     0.031 H 
ATOM     55  H10 8B7 d   1       8.531   2.181  25.090  0.00  0.00     0.031 H 
ATOM     56  H11 8B7 d   1      10.082   2.828  24.456  0.00  0.00     0.031 H 
ENDBRANCH  42  53
ENDBRANCH  35  36
ENDBRANCH   2  35
BRANCH   3  57
ATOM     57  OB3 8B7 d   1       9.033   9.605  25.516  0.00  0.00    -0.390 OA
ATOM     58  H15 8B7 d   1       9.450   8.976  26.093  0.00  0.00     0.210 HD
ENDBRANCH   3  57
BRANCH   5  59
ATOM     59  CB6 8B7 d   1       4.917  10.748  23.245  0.00  0.00     0.043 C 
ATOM     60  H19 8B7 d   1       5.544  10.791  22.342  0.00  0.00     0.078 H 
ATOM     61  H20 8B7 d   1       4.811  11.758  23.666  0.00  0.00     0.078 H 
BRANCH  59  62
ATOM     62  OB6 8B7 d   1       3.668  10.203  22.951  0.00  0.00    -0.398 OA
ATOM     63  H21 8B7 d   1       3.780   9.327  22.600  0.00  0.00     0.209 HD
ENDBRANCH  59  62
ENDBRANCH   5  59
BRANCH   4  64
ATOM     64  OB4 8B7 d   1       7.660  10.607  23.340  0.00  0.00    -0.390 OA
ATOM     65  H17 8B7 d   1       7.785   9.837  22.798  0.00  0.00     0.210 HD
ENDBRANCH   4  64
TORSDOF 17
