REMARK  5 active torsions:
REMARK  status: ('A' for Active; 'I' for Inactive)
REMARK    1  A    between atoms: C8_5  and  O1_10 
REMARK    2  A    between atoms: O1_10  and  C1_11 
REMARK    3  A    between atoms: C12_18  and  O4_19 
REMARK    4  A    between atoms: C4_20  and  S1_23 
REMARK    5  A    between atoms: S1_23  and  C16_26 
ROOT
ATOM      1  N1  86D d   1      18.310   1.941  -8.716  0.00  0.00    -0.191 NA
ATOM      2  C17 86D d   1      18.912   1.127  -9.315  0.00  0.00     0.099 C 
ATOM      3  C6  86D d   1      19.583   0.213  -9.963  0.00  0.00     0.050 A 
ATOM      4  C7  86D d   1      20.885   0.509 -10.428  0.00  0.00    -0.030 A 
ATOM      5  C8  86D d   1      21.591  -0.477 -11.089  0.00  0.00     0.080 A 
ATOM      6  C9  86D d   1      21.029  -1.737 -11.284  0.00  0.00    -0.013 A 
ATOM      7  C10 86D d   1      19.745  -2.033 -10.831  0.00  0.00     0.120 A 
ATOM      8  F1  86D d   1      19.198  -3.270 -11.021  0.00  0.00    -0.206 F 
ATOM      9  C5  86D d   1      19.013  -1.052 -10.141  0.00  0.00    -0.025 A 
ATOM     10  H1  86D d   1      21.320   1.489 -10.269  0.00  0.00     0.090 H 
ATOM     11  H2  86D d   1      21.601  -2.501 -11.798  0.00  0.00     0.092 H 
ATOM     12  H3  86D d   1      18.025  -1.271  -9.754  0.00  0.00     0.090 H 
ENDROOT
BRANCH   5  13
ATOM     13  O1  86D d   1      22.826  -0.118 -11.584  0.00  0.00    -0.310 OA
BRANCH  13  14
ATOM     14  C1  86D d   1      23.921  -0.267 -10.808  0.00  0.00     0.083 A 
ATOM     15  C14 86D d   1      25.095   0.102 -11.412  0.00  0.00    -0.008 A 
ATOM     16  C15 86D d   1      25.260   0.610 -12.859  0.00  0.00     0.026 C 
ATOM     17  C13 86D d   1      26.259  -0.105 -10.728  0.00  0.00     0.007 A 
ATOM     18  C11 86D d   1      26.787   0.391 -13.028  0.00  0.00     0.277 C 
ATOM     19  H4  86D d   1      24.983   1.670 -12.957  0.00  0.00     0.049 H 
ATOM     20  H5  86D d   1      24.677   0.011 -13.574  0.00  0.00     0.049 H 
ATOM     21  F5  86D d   1      27.224   1.338 -13.845  0.00  0.00    -0.203 F 
ATOM     22  F2  86D d   1      27.103  -0.790 -13.550  0.00  0.00    -0.203 F 
ATOM     23  C12 86D d   1      27.398   0.341 -11.627  0.00  0.00     0.126 C 
ATOM     24  H6  86D d   1      28.260  -0.340 -11.578  0.00  0.00     0.100 H 
ATOM     25  C4  86D d   1      26.254  -0.639  -9.405  0.00  0.00     0.074 A 
ATOM     26  C3  86D d   1      25.039  -0.940  -8.766  0.00  0.00    -0.059 A 
ATOM     27  C2  86D d   1      23.831  -0.723  -9.499  0.00  0.00    -0.048 A 
ATOM     28  H8  86D d   1      25.019  -1.323  -7.752  0.00  0.00     0.086 H 
ATOM     29  H9  86D d   1      22.866  -0.910  -9.043  0.00  0.00     0.087 H 
BRANCH  23  30
ATOM     30  O4  86D d   1      27.761   1.684 -11.224  0.00  0.00    -0.385 OA
ATOM     31  H7  86D d   1      28.474   1.995 -11.769  0.00  0.00     0.210 HD
ENDBRANCH  23  30
BRANCH  25  32
ATOM     32  S1  86D d   1      27.645  -0.897  -8.524  0.00  0.00     0.236 S 
ATOM     33  O2  86D d   1      28.541  -1.407  -9.462  0.00  0.00    -0.217 OA
ATOM     34  O3  86D d   1      27.424  -1.918  -7.508  0.00  0.00    -0.217 OA
BRANCH  32  35
ATOM     35  C16 86D d   1      28.107   0.537  -7.865  0.00  0.00     0.307 C 
ATOM     36  F3  86D d   1      27.365   0.572  -6.743  0.00  0.00    -0.197 F 
ATOM     37  F4  86D d   1      27.591   1.530  -8.596  0.00  0.00    -0.197 F 
ATOM     38  H10 86D d   1      29.192   0.625  -7.708  0.00  0.00     0.171 H 
ENDBRANCH  32  35
ENDBRANCH  25  32
ENDBRANCH  13  14
ENDBRANCH   5  13
TORSDOF 5
