REMARK  9 active torsions:
REMARK  status: ('A' for Active; 'I' for Inactive)
REMARK    1  A    between atoms: C14_17  and  C15_16 
REMARK    2  A    between atoms: C21_27  and  C9_18 
REMARK    3  A    between atoms: C21_27  and  C29_19 
REMARK    4  A    between atoms: C23_22  and  C21_27 
REMARK    5  A    between atoms: C4_23  and  N2_32 
REMARK    6  A    between atoms: N27_31  and  C28_24 
REMARK    7  A    between atoms: N2_32  and  C1_25 
REMARK    8  A    between atoms: N2_32  and  C3_26 
REMARK    9  A    between atoms: C21_27  and  O22_33 
ROOT
ATOM      1  C8  88J d   1      16.885  20.673 -15.895  0.00  0.00    -0.071 A 
ATOM      2  C7  88J d   1      16.601  19.333 -15.760  0.00  0.00    -0.054 A 
ATOM      3  C10 88J d   1      17.522  20.295 -18.141  0.00  0.00    -0.059 A 
ATOM      4  C11 88J d   1      17.234  18.955 -17.994  0.00  0.00     0.016 A 
ATOM      5  C14 88J d   1      17.123  16.722 -18.865  0.00  0.00     0.037 A 
ATOM      6  C9  88J d   1      17.345  21.168 -17.091  0.00  0.00    -0.012 A 
ATOM      7  C6  88J d   1      16.770  18.451 -16.802  0.00  0.00     0.070 A 
ATOM      8  C12 88J d   1      17.399  18.058 -19.018  0.00  0.00     0.061 A 
ATOM      9  C4  88J d   1      16.649  16.287 -17.649  0.00  0.00     0.118 A 
ATOM     10  N5  88J d   1      16.473  17.155 -16.646  0.00  0.00    -0.235 NA
ATOM     11 CL13 88J d   1      17.968  18.613 -20.545  0.00  0.00    -0.082 Cl
ATOM     12  H6  88J d   1      16.745  21.341 -15.053  0.00  0.00     0.084 H 
ATOM     13  H7  88J d   1      16.235  18.963 -14.809  0.00  0.00     0.087 H 
ATOM     14  H10 88J d   1      17.891  20.665 -19.091  0.00  0.00     0.086 H 
ENDROOT
BRANCH   6  15
ATOM     15  C21 88J d   1      17.677  22.618 -17.227  0.00  0.00     0.156 C 
BRANCH  15  16
ATOM     16  C29 88J d   1      18.775  22.940 -16.261  0.00  0.00    -0.011 A 
ATOM     17  C30 88J d   1      20.079  22.600 -16.550  0.00  0.00    -0.056 A 
ATOM     18  C31 88J d   1      21.061  22.905 -15.636  0.00  0.00     0.002 A 
ATOM     19  H8  88J d   1      20.326  22.102 -17.480  0.00  0.00     0.086 H 
ATOM     20  N32 88J d   1      20.827  23.518 -14.475  0.00  0.00    -0.273 NA
ATOM     21  H11 88J d   1      22.083  22.632 -15.873  0.00  0.00     0.114 H 
ATOM     22  C33 88J d   1      19.556  23.834 -14.220  0.00  0.00     0.002 A 
ATOM     23  C34 88J d   1      18.506  23.568 -15.073  0.00  0.00    -0.056 A 
ATOM     24  H12 88J d   1      19.335  24.331 -13.283  0.00  0.00     0.114 H 
ATOM     25  H9  88J d   1      17.492  23.849 -14.810  0.00  0.00     0.086 H 
ENDBRANCH  15  16
BRANCH  15  26
ATOM     26  C23 88J d   1      16.544  23.547 -17.126  0.00  0.00     0.074 A 
ATOM     27  C24 88J d   1      15.215  23.380 -16.812  0.00  0.00     0.029 A 
ATOM     28  N25 88J d   1      14.530  24.567 -16.853  0.00  0.00    -0.254 NA
ATOM     29  H13 88J d   1      14.762  22.422 -16.561  0.00  0.00     0.118 H 
ATOM     30  C26 88J d   1      15.438  25.453 -17.192  0.00  0.00     0.065 A 
ATOM     31  N27 88J d   1      16.665  24.884 -17.363  0.00  0.00    -0.345 N 
ATOM     32  H14 88J d   1      15.235  26.515 -17.321  0.00  0.00     0.143 H 
BRANCH  31  33
ATOM     33  C28 88J d   1      17.868  25.592 -17.754  0.00  0.00    -0.013 C 
ATOM     34  H15 88J d   1      17.642  26.663 -17.869  0.00  0.00     0.057 H 
ATOM     35  H16 88J d   1      18.236  25.190 -18.710  0.00  0.00     0.057 H 
ATOM     36  H17 88J d   1      18.639  25.460 -16.980  0.00  0.00     0.057 H 
ENDBRANCH  31  33
ENDBRANCH  15  26
BRANCH  15  37
ATOM     37  O22 88J d   1      18.238  22.822 -18.509  0.00  0.00    -0.374 OA
ATOM     38  H24 88J d   1      17.585  22.633 -19.173  0.00  0.00     0.212 HD
ENDBRANCH  15  37
ENDBRANCH   6  15
BRANCH   5  39
ATOM     39  C15 88J d   1      17.410  15.839 -19.961  0.00  0.00    -0.021 A 
ATOM     40  C16 88J d   1      16.793  15.983 -21.181  0.00  0.00    -0.072 A 
ATOM     41  C17 88J d   1      17.124  15.135 -22.213  0.00  0.00    -0.082 A 
ATOM     42  H4  88J d   1      16.051  16.759 -21.329  0.00  0.00     0.084 H 
ATOM     43  C18 88J d   1      18.071  14.153 -22.034  0.00  0.00    -0.083 A 
ATOM     44  H2  88J d   1      16.635  15.242 -23.174  0.00  0.00     0.083 H 
ATOM     45  C19 88J d   1      18.689  14.011 -20.815  0.00  0.00    -0.082 A 
ATOM     46  H1  88J d   1      18.329  13.492 -22.854  0.00  0.00     0.083 H 
ATOM     47  C20 88J d   1      18.359  14.859 -19.785  0.00  0.00    -0.072 A 
ATOM     48  H3  88J d   1      19.432  13.236 -20.667  0.00  0.00     0.083 H 
ATOM     49  H5  88J d   1      18.851  14.755 -18.825  0.00  0.00     0.084 H 
ENDBRANCH   5  39
BRANCH   9  50
ATOM     50  N2  88J d   1      16.386  14.919 -17.450  0.00  0.00    -0.275 NA
BRANCH  50  51
ATOM     51  C1  88J d   1      15.413  14.327 -18.332  0.00  0.00    -0.028 C 
ATOM     52  H18 88J d   1      15.292  13.262 -18.083  0.00  0.00     0.049 H 
ATOM     53  H19 88J d   1      15.755  14.423 -19.373  0.00  0.00     0.049 H 
ATOM     54  H20 88J d   1      14.449  14.843 -18.214  0.00  0.00     0.049 H 
ENDBRANCH  50  51
BRANCH  50  55
ATOM     55  C3  88J d   1      16.249  14.628 -16.037  0.00  0.00    -0.028 C 
ATOM     56  H21 88J d   1      17.049  15.137 -15.479  0.00  0.00     0.049 H 
ATOM     57  H22 88J d   1      16.324  13.542 -15.877  0.00  0.00     0.049 H 
ATOM     58  H23 88J d   1      15.270  14.984 -15.682  0.00  0.00     0.049 H 
ENDBRANCH  50  55
ENDBRANCH   9  50
TORSDOF 9
