REMARK  8 active torsions:
REMARK  status: ('A' for Active; 'I' for Inactive)
REMARK    1  A    between atoms: C05_4  and  C06_5 
REMARK    2  A    between atoms: C13_11  and  O14_27 
REMARK    3  A    between atoms: C16_13  and  C17_14 
REMARK    4  A    between atoms: C21_18  and  C27_22 
REMARK    5  A    between atoms: C23_19  and  C24_20 
REMARK    6  A    between atoms: C23_19  and  C25_21 
REMARK    7  A    between atoms: C27_22  and  C28_23 
REMARK    8  A    between atoms: C28_23  and  O29_30 
ROOT
ATOM      1  C02 1TA d   1      21.732  36.553  19.827  0.00  0.00     0.172 C 
ATOM      2  C03 1TA d   1      21.742  37.721  20.754  0.00  0.00    -0.037 C 
ATOM      3  C04 1TA d   1      22.301  38.860  20.394  0.00  0.00    -0.084 C 
ATOM      4  C05 1TA d   1      22.919  39.196  19.018  0.00  0.00     0.036 C 
ATOM      5  C07 1TA d   1      23.065  37.938  18.149  0.00  0.00    -0.061 C 
ATOM      6  C08 1TA d   1      23.549  38.368  16.726  0.00  0.00    -0.043 C 
ATOM      7  C09 1TA d   1      22.955  39.635  15.978  0.00  0.00    -0.055 C 
ATOM      8  C10 1TA d   1      22.818  40.907  16.839  0.00  0.00    -0.011 C 
ATOM      9  C11 1TA d   1      22.160  40.443  18.217  0.00  0.00     0.147 C 
ATOM     10  C13 1TA d   1      21.948  41.756  19.124  0.00  0.00     0.072 C 
ATOM     11  C15 1TA d   1      21.220  42.952  18.367  0.00  0.00    -0.028 C 
ATOM     12  C16 1TA d   1      21.802  43.357  16.993  0.00  0.00     0.004 C 
ATOM     13  C18 1TA d   1      21.984  42.085  16.118  0.00  0.00    -0.035 C 
ATOM     14  C19 1TA d   1      22.381  42.768  14.774  0.00  0.00    -0.033 C 
ATOM     15  C20 1TA d   1      21.407  43.976  14.579  0.00  0.00     0.080 C 
ATOM     16  C21 1TA d   1      20.972  44.401  16.033  0.00  0.00     0.160 C 
ATOM     17  C23 1TA d   1      19.066  43.986  14.638  0.00  0.00     0.159 C 
ATOM     18  C31 1TA d   1      22.498  36.763  18.543  0.00  0.00    -0.031 C 
ATOM     19  F12 1TA d   1      20.923  39.979  17.978  0.00  0.00    -0.238 F 
ATOM     20  O01 1TA d   1      21.145  35.513  20.097  0.00  0.00    -0.289 OA
ATOM     21  O22 1TA d   1      19.569  44.250  15.958  0.00  0.00    -0.334 OA
ATOM     22  O26 1TA d   1      20.211  43.673  13.882  0.00  0.00    -0.347 OA
ATOM     23  H1  1TA d   1      21.283  37.633  21.738  0.00  0.00     0.089 H 
ATOM     24  H2  1TA d   1      22.330  39.647  21.146  0.00  0.00     0.078 H 
ATOM     25  H6  1TA d   1      23.364  37.508  16.066  0.00  0.00     0.039 H 
ATOM     26  H7  1TA d   1      24.632  38.541  16.809  0.00  0.00     0.039 H 
ATOM     27  H8  1TA d   1      21.956  39.370  15.603  0.00  0.00     0.034 H 
ATOM     28  H9  1TA d   1      23.615  39.869  15.130  0.00  0.00     0.034 H 
ATOM     29  H10 1TA d   1      23.825  41.299  17.044  0.00  0.00     0.045 H 
ATOM     30  H11 1TA d   1      21.331  41.477  19.991  0.00  0.00     0.088 H 
ATOM     31  H12 1TA d   1      21.262  43.836  19.021  0.00  0.00     0.038 H 
ATOM     32  H13 1TA d   1      20.171  42.660  18.212  0.00  0.00     0.038 H 
ATOM     33  H17 1TA d   1      20.995  41.633  15.950  0.00  0.00     0.042 H 
ATOM     34  H18 1TA d   1      22.274  42.057  13.941  0.00  0.00     0.037 H 
ATOM     35  H19 1TA d   1      23.421  43.123  14.822  0.00  0.00     0.037 H 
ATOM     36  H20 1TA d   1      21.933  44.793  14.063  0.00  0.00     0.088 H 
ATOM     37  H29 1TA d   1      22.606  35.907  17.878  0.00  0.00     0.090 H 
ENDROOT
BRANCH  17  38
ATOM     38  C24 1TA d   1      18.291  45.205  14.071  0.00  0.00    -0.025 C 
ATOM     39  H21 1TA d   1      17.410  45.403  14.699  0.00  0.00     0.035 H 
ATOM     40  H22 1TA d   1      17.967  44.988  13.043  0.00  0.00     0.035 H 
ATOM     41  H23 1TA d   1      18.947  46.088  14.070  0.00  0.00     0.035 H 
ENDBRANCH  17  38
BRANCH  17  42
ATOM     42  C25 1TA d   1      18.122  42.755  14.574  0.00  0.00    -0.025 C 
ATOM     43  H24 1TA d   1      18.644  41.872  14.970  0.00  0.00     0.035 H 
ATOM     44  H25 1TA d   1      17.830  42.571  13.530  0.00  0.00     0.035 H 
ATOM     45  H26 1TA d   1      17.223  42.951  15.177  0.00  0.00     0.035 H 
ENDBRANCH  17  42
BRANCH  16  46
ATOM     46  C27 1TA d   1      21.297  45.906  16.351  0.00  0.00     0.188 C 
ATOM     47  O30 1TA d   1      22.158  46.475  15.702  0.00  0.00    -0.292 OA
BRANCH  46  48
ATOM     48  C28 1TA d   1      20.575  46.687  17.461  0.00  0.00     0.074 C 
ATOM     49  H27 1TA d   1      20.410  46.023  18.323  0.00  0.00     0.086 H 
ATOM     50  H28 1TA d   1      19.606  47.044  17.082  0.00  0.00     0.086 H 
BRANCH  48  51
ATOM     51  O29 1TA d   1      21.344  47.784  17.865  0.00  0.00    -0.393 OA
ATOM     52  H31 1TA d   1      21.486  48.360  17.123  0.00  0.00     0.209 HD
ENDBRANCH  48  51
ENDBRANCH  46  48
ENDBRANCH  16  46
BRANCH  12  53
ATOM     53  C17 1TA d   1      23.176  44.004  17.255  0.00  0.00    -0.065 C 
ATOM     54  H14 1TA d   1      23.776  43.343  17.897  0.00  0.00     0.028 H 
ATOM     55  H15 1TA d   1      23.035  44.973  17.756  0.00  0.00     0.028 H 
ATOM     56  H16 1TA d   1      23.697  44.158  16.299  0.00  0.00     0.028 H 
ENDBRANCH  12  53
BRANCH  10  57
ATOM     57  O14 1TA d   1      23.192  42.192  19.572  0.00  0.00    -0.392 OA
ATOM     58  H30 1TA d   1      23.075  42.923  20.167  0.00  0.00     0.210 HD
ENDBRANCH  10  57
BRANCH   4  59
ATOM     59  C06 1TA d   1      24.373  39.641  19.296  0.00  0.00    -0.059 C 
ATOM     60  H3  1TA d   1      24.907  38.839  19.826  0.00  0.00     0.029 H 
ATOM     61  H4  1TA d   1      24.366  40.549  19.916  0.00  0.00     0.029 H 
ATOM     62  H5  1TA d   1      24.881  39.852  18.343  0.00  0.00     0.029 H 
ENDBRANCH   4  59
TORSDOF 8
