REMARK  6 active torsions:
REMARK  status: ('A' for Active; 'I' for Inactive)
REMARK    1  A    between atoms: C1_1  and  C_29 
REMARK    2  A    between atoms: C17_12  and  S_18 
REMARK    3  A    between atoms: C7_19  and  C17_12 
REMARK    4  A    between atoms: S_18  and  C20_15 
REMARK    5  A    between atoms: C8_22  and  C9_23 
REMARK    6  A    between atoms: C5_27  and  N_28 
ROOT
ATOM      1  C7  8DV d   1      -2.347  -7.552  19.775  0.00  0.00     0.064 A 
ATOM      2  C6  8DV d   1      -2.236  -8.288  18.590  0.00  0.00    -0.013 A 
ATOM      3  N1  8DV d   1      -2.905  -8.024  20.904  0.00  0.00    -0.231 NA
ATOM      4  C8  8DV d   1      -3.405  -9.266  20.837  0.00  0.00     0.163 A 
ATOM      5  N2  8DV d   1      -3.398 -10.042  19.744  0.00  0.00    -0.211 NA
ATOM      6  C5  8DV d   1      -2.816  -9.569  18.629  0.00  0.00     0.130 A 
ATOM      7  H17 8DV d   1      -1.740  -7.900  17.708  0.00  0.00     0.092 H 
ENDROOT
BRANCH   6   8
ATOM      8  N   8DV d   1      -2.801 -10.406  17.546  0.00  0.00    -0.357 N 
ATOM      9  C1  8DV d   1      -3.154 -11.831  17.712  0.00  0.00     0.030 C 
ATOM     10  C2  8DV d   1      -3.836 -12.278  16.429  0.00  0.00     0.038 C 
ATOM     11  H1  8DV d   1      -3.888 -11.911  18.528  0.00  0.00     0.075 H 
ATOM     12  O   8DV d   1      -3.012 -12.005  15.269  0.00  0.00    -0.388 OA
ATOM     13  H2  8DV d   1      -4.790 -11.740  16.325  0.00  0.00     0.077 H 
ATOM     14  H3  8DV d   1      -4.029 -13.360  16.484  0.00  0.00     0.077 H 
ATOM     15  C3  8DV d   1      -2.782 -10.606  15.121  0.00  0.00     0.034 C 
ATOM     16  C4  8DV d   1      -2.083 -10.023  16.324  0.00  0.00     0.017 C 
ATOM     17  H4  8DV d   1      -2.157 -10.440  14.231  0.00  0.00     0.076 H 
ATOM     18  H5  8DV d   1      -3.749 -10.098  14.990  0.00  0.00     0.076 H 
ATOM     19  H23 8DV d   1      -2.063  -8.926  16.240  0.00  0.00     0.067 H 
ATOM     20  H24 8DV d   1      -1.053 -10.406  16.370  0.00  0.00     0.067 H 
BRANCH   9  21
ATOM     21  C   8DV d   1      -1.948 -12.678  18.117  0.00  0.00    -0.055 C 
ATOM     22  H20 8DV d   1      -1.520 -12.284  19.051  0.00  0.00     0.030 H 
ATOM     23  H21 8DV d   1      -1.189 -12.640  17.322  0.00  0.00     0.030 H 
ATOM     24  H22 8DV d   1      -2.266 -13.720  18.270  0.00  0.00     0.030 H 
ENDBRANCH   9  21
ENDBRANCH   6   8
BRANCH   1  25
ATOM     25  C17 8DV d   1      -1.899  -6.127  19.757  0.00  0.00     0.109 A 
ATOM     26  C18 8DV d   1      -2.833  -5.023  20.236  0.00  0.00    -0.037 A 
ATOM     27  C19 8DV d   1      -2.531  -5.154  18.769  0.00  0.00    -0.037 A 
ATOM     28  H10 8DV d   1      -2.430  -4.172  20.805  0.00  0.00     0.036 H 
ATOM     29  H11 8DV d   1      -3.834  -5.277  20.615  0.00  0.00     0.036 H 
ATOM     30  H12 8DV d   1      -3.311  -5.504  18.077  0.00  0.00     0.036 H 
ATOM     31  H13 8DV d   1      -1.908  -4.399  18.267  0.00  0.00     0.036 H 
BRANCH  25  32
ATOM     32  S   8DV d   1      -0.135  -5.919  20.192  0.00  0.00     0.169 S 
ATOM     33  O1  8DV d   1       0.594  -6.969  19.547  0.00  0.00    -0.226 OA
ATOM     34  O2  8DV d   1       0.194  -4.545  19.967  0.00  0.00    -0.226 OA
BRANCH  32  35
ATOM     35  C20 8DV d   1      -0.089  -6.217  21.970  0.00  0.00     0.078 A 
ATOM     36  C21 8DV d   1       0.001  -7.595  22.539  0.00  0.00    -0.084 A 
ATOM     37  C22 8DV d   1       1.174  -6.687  22.608  0.00  0.00    -0.084 A 
ATOM     38  H15 8DV d   1      -0.458  -8.560  22.749  0.00  0.00     0.079 H 
ATOM     39  H16 8DV d   1       2.204  -6.500  22.907  0.00  0.00     0.079 H 
ATOM     40  H14 8DV d   1      -0.714  -5.466  22.475  0.00  0.00     0.076 H 
ENDBRANCH  32  35
ENDBRANCH  25  32
ENDBRANCH   1  25
BRANCH   4  41
ATOM     41  C9  8DV d   1      -4.015  -9.839  22.083  0.00  0.00     0.024 A 
ATOM     42  C16 8DV d   1      -4.936 -10.910  22.032  0.00  0.00     0.006 A 
ATOM     43  C13 8DV d   1      -5.534 -11.352  23.219  0.00  0.00     0.043 A 
ATOM     44  C15 8DV d   1      -5.542 -11.650  20.948  0.00  0.00    -0.055 A 
ATOM     45  C12 8DV d   1      -5.239 -10.774  24.453  0.00  0.00    -0.056 A 
ATOM     46  N3  8DV d   1      -6.450 -12.330  22.883  0.00  0.00    -0.365 N 
ATOM     47  C11 8DV d   1      -4.333  -9.722  24.490  0.00  0.00    -0.080 A 
ATOM     48  H7  8DV d   1      -5.705 -11.137  25.362  0.00  0.00     0.086 H 
ATOM     49  C10 8DV d   1      -3.724  -9.268  23.327  0.00  0.00    -0.068 A 
ATOM     50  H6  8DV d   1      -4.098  -9.250  25.437  0.00  0.00     0.083 H 
ATOM     51  H19 8DV d   1      -3.009  -8.455  23.384  0.00  0.00     0.085 H 
ATOM     52  C14 8DV d   1      -6.440 -12.487  21.522  0.00  0.00    -0.022 A 
ATOM     53  H18 8DV d   1      -7.041 -12.853  23.544  0.00  0.00     0.165 HD
ATOM     54  H8  8DV d   1      -7.068 -13.189  20.976  0.00  0.00     0.111 H 
ATOM     55  H9  8DV d   1      -5.322 -11.554  19.886  0.00  0.00     0.087 H 
ENDBRANCH   4  41
TORSDOF 6
