REMARK  7 active torsions:
REMARK  status: ('A' for Active; 'I' for Inactive)
REMARK    1  A    between atoms: N7_24  and  C3_1 
REMARK    2  A    between atoms: C4_2  and  O16_25 
REMARK    3  A    between atoms: N18_14  and  C22_11 
REMARK    4  A    between atoms: C20_12  and  C25_13 
REMARK    5  A    between atoms: C15_15  and  N18_14 
REMARK    6  A    between atoms: C8_22  and  C10_21 
REMARK       I    between atoms: C8_22  and  N7_24 
REMARK    7  A    between atoms: O16_25  and  C17_26 
ROOT
ATOM      1  C15 5MJ d   1       9.322  -8.092  -4.218  0.00  0.00     0.054 C 
ATOM      2  C13 5MJ d   1      10.362  -8.085  -5.151  0.00  0.00    -0.054 C 
ATOM      3  C11 5MJ d   1      10.312  -8.963  -6.232  0.00  0.00    -0.065 C 
ATOM      4  C14 5MJ d   1       8.256  -8.918  -4.428  0.00  0.00     0.061 C 
ATOM      5 CL   5MJ d   1       6.973  -9.024  -3.204  0.00  0.00    -0.082 Cl
ATOM      6  C12 5MJ d   1       8.204  -9.904  -5.475  0.00  0.00    -0.044 C 
ATOM      7  C10 5MJ d   1       9.227  -9.830  -6.444  0.00  0.00     0.034 C 
ATOM      8  H13 5MJ d   1      11.198  -7.405  -5.035  0.00  0.00     0.087 H 
ATOM      9  H14 5MJ d   1      11.139  -8.977  -6.933  0.00  0.00     0.085 H 
ATOM     10  H15 5MJ d   1       7.426 -10.658  -5.517  0.00  0.00     0.087 H 
ENDROOT
BRANCH   7  11
ATOM     11  C8  5MJ d   1       9.209 -10.766  -7.639  0.00  0.00     0.256 C 
ATOM     12  O9  5MJ d   1      10.271 -10.965  -8.252  0.00  0.00    -0.267 OA
ATOM     13  N7  5MJ d   1       8.014 -11.245  -8.000  0.00  0.00    -0.323 N 
ATOM     14  H16 5MJ d   1       7.222 -10.956  -7.462  0.00  0.00     0.169 HD
BRANCH  13  15
ATOM     15  C3  5MJ d   1       7.780 -12.114  -9.064  0.00  0.00     0.035 A 
ATOM     16  C5  5MJ d   1       6.454 -12.349  -9.443  0.00  0.00    -0.054 A 
ATOM     17  C6  5MJ d   1       6.079 -13.183 -10.484  0.00  0.00    -0.049 A 
ATOM     18  H1  5MJ d   1       5.670 -11.847  -8.887  0.00  0.00     0.087 H 
ATOM     19  C4  5MJ d   1       7.049 -13.827 -11.183  0.00  0.00     0.068 A 
ATOM     20  H2  5MJ d   1       5.033 -13.319 -10.735  0.00  0.00     0.087 H 
ATOM     21  C2  5MJ d   1       8.335 -13.618 -10.818  0.00  0.00    -0.049 A 
ATOM     22  C1  5MJ d   1       8.754 -12.772  -9.763  0.00  0.00    -0.054 A 
ATOM     23  H3  5MJ d   1       9.104 -14.139 -11.377  0.00  0.00     0.087 H 
ATOM     24  H4  5MJ d   1       9.803 -12.651  -9.519  0.00  0.00     0.087 H 
BRANCH  19  25
ATOM     25  O16 5MJ d   1       6.741 -14.677 -12.241  0.00  0.00    -0.356 OA
BRANCH  25  26
ATOM     26  C17 5MJ d   1       5.392 -14.992 -12.513  0.00  0.00     0.010 C 
ATOM     27  H17 5MJ d   1       5.341 -15.671 -13.377  0.00  0.00     0.066 H 
ATOM     28  H18 5MJ d   1       4.838 -14.069 -12.739  0.00  0.00     0.066 H 
ATOM     29  H19 5MJ d   1       4.946 -15.482 -11.635  0.00  0.00     0.066 H 
ENDBRANCH  25  26
ENDBRANCH  19  25
ENDBRANCH  13  15
ENDBRANCH   7  11
BRANCH   1  30
ATOM     30  N18 5MJ d   1       9.307  -7.201  -3.120  0.00  0.00    -0.358 N 
ATOM     31  H12 5MJ d   1       8.427  -6.693  -2.955  0.00  0.00     0.166 HD
BRANCH  30  32
ATOM     32  C22 5MJ d   1      10.314  -6.944  -2.268  0.00  0.00     0.019 A 
ATOM     33  C23 5MJ d   1      11.595  -7.672  -2.218  0.00  0.00    -0.020 A 
ATOM     34  C21 5MJ d   1      12.330  -7.087  -0.998  0.00  0.00    -0.000 A 
ATOM     35  H7  5MJ d   1      11.423  -8.751  -2.087  0.00  0.00     0.042 H 
ATOM     36  H8  5MJ d   1      12.174  -7.502  -3.138  0.00  0.00     0.042 H 
ATOM     37  C19 5MJ d   1      11.454  -5.976  -0.537  0.00  0.00     0.157 A 
ATOM     38  H5  5MJ d   1      12.443  -7.846  -0.210  0.00  0.00     0.045 H 
ATOM     39  H6  5MJ d   1      13.321  -6.707  -1.286  0.00  0.00     0.045 H 
ATOM     40  O26 5MJ d   1      11.752  -5.109   0.327  0.00  0.00    -0.293 OA
ATOM     41  C20 5MJ d   1      10.230  -5.946  -1.365  0.00  0.00     0.006 A 
BRANCH  41  42
ATOM     42  C25 5MJ d   1       9.159  -4.941  -1.131  0.00  0.00    -0.046 C 
ATOM     43  H9  5MJ d   1       9.449  -4.283  -0.299  0.00  0.00     0.033 H 
ATOM     44  H10 5MJ d   1       8.220  -5.457  -0.880  0.00  0.00     0.033 H 
ATOM     45  H11 5MJ d   1       9.015  -4.340  -2.041  0.00  0.00     0.033 H 
ENDBRANCH  41  42
ENDBRANCH  30  32
ENDBRANCH   1  30
TORSDOF 7
