REMARK  6 active torsions:
REMARK  status: ('A' for Active; 'I' for Inactive)
REMARK    1  A    between atoms: N14_15  and  C15_9 
REMARK    2  A    between atoms: N3_16  and  C4_10 
REMARK    3  A    between atoms: C7_12  and  S8_21 
REMARK    4  A    between atoms: C2_13  and  N14_15 
REMARK    5  A    between atoms: C2_13  and  N3_16 
REMARK    6  A    between atoms: S8_21  and  N10_14 
ROOT
ATOM      1  N3  8JS d   1      -0.580   5.774  83.657  0.00  0.00    -0.333 N 
ATOM      2  H12 8JS d   1       0.394   5.916  83.835  0.00  0.00     0.168 HD
ENDROOT
BRANCH   1   3
ATOM      3  C4  8JS d   1      -1.198   4.731  84.372  0.00  0.00     0.034 A 
ATOM      4  C5  8JS d   1      -0.336   3.688  84.667  0.00  0.00    -0.056 A 
ATOM      5  C6  8JS d   1      -0.837   2.601  85.381  0.00  0.00    -0.058 A 
ATOM      6  H3  8JS d   1       0.701   3.716  84.351  0.00  0.00     0.087 H 
ATOM      7  C7  8JS d   1      -2.174   2.569  85.790  0.00  0.00     0.079 A 
ATOM      8  H7  8JS d   1      -0.183   1.771  85.622  0.00  0.00     0.086 H 
ATOM      9  C12 8JS d   1      -2.998   3.650  85.491  0.00  0.00    -0.058 A 
ATOM     10  C13 8JS d   1      -2.502   4.722  84.807  0.00  0.00    -0.056 A 
ATOM     11  H8  8JS d   1      -4.036   3.641  85.802  0.00  0.00     0.086 H 
ATOM     12  H4  8JS d   1      -3.142   5.574  84.605  0.00  0.00     0.087 H 
BRANCH   7  13
ATOM     13  S8  8JS d   1      -2.798   1.233  86.748  0.00  0.00     0.256 S 
ATOM     14  O9  8JS d   1      -2.223   1.384  88.071  0.00  0.00    -0.201 OA
ATOM     15  O11 8JS d   1      -4.256   1.321  86.626  0.00  0.00    -0.201 OA
BRANCH  13  16
ATOM     16  N10 8JS d   1      -2.243  -0.112  86.061  0.00  0.00    -0.324 N 
ATOM     17  H9  8JS d   1      -2.478  -1.004  86.447  0.00  0.00     0.169 HD
ATOM     18  H10 8JS d   1      -1.663  -0.056  85.248  0.00  0.00     0.169 HD
ENDBRANCH  13  16
ENDBRANCH   7  13
ENDBRANCH   1   3
BRANCH   1  19
ATOM     19  C2  8JS d   1      -1.139   6.591  82.774  0.00  0.00     0.176 C 
ATOM     20  S1  8JS d   1      -2.650   6.374  82.136  0.00  0.00    -0.041 SA
BRANCH  19  21
ATOM     21  N14 8JS d   1      -0.300   7.648  82.362  0.00  0.00    -0.333 N 
ATOM     22  H11 8JS d   1      -0.480   8.002  81.444  0.00  0.00     0.168 HD
BRANCH  21  23
ATOM     23  C15 8JS d   1       0.772   8.290  83.063  0.00  0.00     0.034 A 
ATOM     24  C16 8JS d   1       1.726   8.967  82.318  0.00  0.00    -0.054 A 
ATOM     25  C17 8JS d   1       2.777   9.638  82.924  0.00  0.00    -0.044 A 
ATOM     26  H1  8JS d   1       1.648   8.972  81.237  0.00  0.00     0.087 H 
ATOM     27  C18 8JS d   1       2.908   9.678  84.298  0.00  0.00     0.116 A 
ATOM     28  H5  8JS d   1       3.511  10.142  82.306  0.00  0.00     0.088 H 
ATOM     29  C20 8JS d   1       1.947   9.015  85.038  0.00  0.00    -0.044 A 
ATOM     30  F19 8JS d   1       3.958  10.364  84.907  0.00  0.00    -0.206 F 
ATOM     31  C21 8JS d   1       0.902   8.310  84.446  0.00  0.00    -0.054 A 
ATOM     32  H6  8JS d   1       2.009   9.045  86.120  0.00  0.00     0.088 H 
ATOM     33  H2  8JS d   1       0.190   7.777  85.065  0.00  0.00     0.087 H 
ENDBRANCH  21  23
ENDBRANCH  19  21
ENDBRANCH   1  19
TORSDOF 6
