REMARK  13 active torsions:
REMARK  status: ('A' for Active; 'I' for Inactive)
REMARK    1  A    between atoms: N6_1  and  C6_2 
REMARK    2  A    between atoms: N9_10  and  CBF_11 
REMARK    3  A    between atoms: CBE_13  and  CAQ_14 
REMARK    4  A    between atoms: CAQ_14  and  NBG_15 
REMARK    5  A    between atoms: NBG_15  and  CAO_16 
REMARK    6  A    between atoms: NBG_15  and  CAP_23 
REMARK    7  A    between atoms: CAO_16  and  CB_17 
REMARK    8  A    between atoms: CB_17  and  CA_18 
REMARK    9  A    between atoms: CA_18  and  N_19 
REMARK   10  A    between atoms: CA_18  and  C_20 
REMARK   11  A    between atoms: CAP_23  and  CAY_24 
REMARK   12  A    between atoms: CBC_31  and  OAE_32 
REMARK   13  A    between atoms: CBD_33  and  OAF_34 
ROOT
ATOM      1  NBG KB1 d   1      -2.008   0.898  26.199  0.00  0.00    -0.065 N 
ATOM      2  H9  KB1 d   1      -2.784   1.411  25.811  0.00  0.00     0.280 HD
ENDROOT
BRANCH   1   3
ATOM      3  CAQ KB1 d   1      -2.505  -0.300  26.917  0.00  0.00     0.110 C 
ATOM      4  H7  KB1 d   1      -1.673  -1.012  27.015  0.00  0.00     0.080 H 
ATOM      5  H8  KB1 d   1      -2.840   0.012  27.917  0.00  0.00     0.080 H 
BRANCH   3   6
ATOM      6  CBE KB1 d   1      -3.676  -1.019  26.219  0.00  0.00     0.091 C 
ATOM      7  OAU KB1 d   1      -3.904  -2.267  26.850  0.00  0.00    -0.354 OA
ATOM      8  CBF KB1 d   1      -5.290  -2.564  26.849  0.00  0.00     0.139 C 
ATOM      9  CBD KB1 d   1      -5.951  -1.219  27.199  0.00  0.00     0.105 C 
ATOM     10  H5  KB1 d   1      -5.626  -2.931  25.868  0.00  0.00     0.122 H 
ATOM     11  CBC KB1 d   1      -5.051  -0.263  26.370  0.00  0.00     0.091 C 
ATOM     12  H26 KB1 d   1      -5.910  -0.999  28.276  0.00  0.00     0.093 H 
ATOM     13  H24 KB1 d   1      -4.911   0.690  26.901  0.00  0.00     0.091 H 
ATOM     14  H6  KB1 d   1      -3.432  -1.154  25.155  0.00  0.00     0.090 H 
BRANCH   8  15
ATOM     15  N9  KB1 d   1      -5.559  -3.545  27.867  0.00  0.00    -0.294 N 
ATOM     16  C4  KB1 d   1      -5.774  -4.882  27.634  0.00  0.00     0.167 A 
ATOM     17  N3  KB1 d   1      -5.786  -5.539  26.464  0.00  0.00    -0.222 NA
ATOM     18  C5  KB1 d   1      -5.984  -5.483  28.917  0.00  0.00     0.149 A 
ATOM     19  C2  KB1 d   1      -6.049  -6.844  26.611  0.00  0.00     0.091 A 
ATOM     20  N1  KB1 d   1      -6.271  -7.536  27.768  0.00  0.00    -0.222 NA
ATOM     21  H3  KB1 d   1      -6.091  -7.425  25.697  0.00  0.00     0.146 H 
ATOM     22  C6  KB1 d   1      -6.253  -6.857  28.938  0.00  0.00     0.155 A 
ATOM     23  N7  KB1 d   1      -5.892  -4.504  29.910  0.00  0.00    -0.236 NA
ATOM     24  C8  KB1 d   1      -5.624  -3.370  29.254  0.00  0.00     0.071 A 
ATOM     25  H4  KB1 d   1      -5.472  -2.411  29.747  0.00  0.00     0.144 H 
BRANCH  22  26
ATOM     26  N6  KB1 d   1      -6.494  -7.552  30.130  0.00  0.00    -0.382 N 
ATOM     27  H1  KB1 d   1      -6.484  -7.051  31.030  0.00  0.00     0.157 HD
ATOM     28  H2  KB1 d   1      -6.681  -8.565  30.107  0.00  0.00     0.157 HD
ENDBRANCH  22  26
ENDBRANCH   8  15
BRANCH   9  29
ATOM     29  OAF KB1 d   1      -7.285  -1.195  26.753  0.00  0.00    -0.388 OA
ATOM     30  H27 KB1 d   1      -7.318  -1.466  25.843  0.00  0.00     0.210 HD
ENDBRANCH   9  29
BRANCH  11  31
ATOM     31  OAE KB1 d   1      -5.619  -0.015  25.101  0.00  0.00    -0.390 OA
ATOM     32  H25 KB1 d   1      -6.446   0.440  25.209  0.00  0.00     0.210 HD
ENDBRANCH  11  31
ENDBRANCH   3   6
ENDBRANCH   1   3
BRANCH   1  33
ATOM     33  CAO KB1 d   1      -1.119   0.406  25.082  0.00  0.00     0.086 C 
ATOM     34  H10 KB1 d   1      -1.687  -0.320  24.482  0.00  0.00     0.076 H 
ATOM     35  H11 KB1 d   1      -0.246  -0.091  25.529  0.00  0.00     0.076 H 
BRANCH  33  36
ATOM     36  CB  KB1 d   1      -0.615   1.518  24.145  0.00  0.00    -0.006 C 
ATOM     37  H12 KB1 d   1       0.073   2.173  24.700  0.00  0.00     0.039 H 
ATOM     38  H13 KB1 d   1      -1.474   2.106  23.788  0.00  0.00     0.039 H 
BRANCH  36  39
ATOM     39  CA  KB1 d   1       0.111   0.929  22.957  0.00  0.00     0.184 C 
ATOM     40  H14 KB1 d   1      -0.500   0.106  22.557  0.00  0.00     0.101 H 
BRANCH  39  41
ATOM     41  N   KB1 d   1       1.428   0.387  23.401  0.00  0.00    -0.065 N 
ATOM     42  H15 KB1 d   1       1.913  -0.006  22.610  0.00  0.00     0.275 HD
ATOM     43  H16 KB1 d   1       1.280  -0.330  24.094  0.00  0.00     0.275 HD
ATOM     44  H17 KB1 d   1       1.980   1.130  23.799  0.00  0.00     0.275 HD
ENDBRANCH  39  41
BRANCH  39  45
ATOM     45  C   KB1 d   1       0.355   1.947  21.821  0.00  0.00     0.204 C 
ATOM     46  O   KB1 d   1       1.521   2.166  21.500  0.00  0.00    -0.646 OA
ATOM     47  OXT KB1 d   1      -0.668   2.460  21.276  0.00  0.00    -0.646 OA
ENDBRANCH  39  45
ENDBRANCH  36  39
ENDBRANCH  33  36
ENDBRANCH   1  33
BRANCH   1  48
ATOM     48  CAP KB1 d   1      -1.259   1.792  27.153  0.00  0.00     0.107 C 
ATOM     49  H18 KB1 d   1      -0.872   2.662  26.602  0.00  0.00     0.083 H 
ATOM     50  H19 KB1 d   1      -0.419   1.230  27.588  0.00  0.00     0.083 H 
BRANCH  48  51
ATOM     51  CAY KB1 d   1      -2.166   2.278  28.274  0.00  0.00    -0.032 A 
ATOM     52  CAK KB1 d   1      -3.185   3.188  28.009  0.00  0.00    -0.072 A 
ATOM     53  CAI KB1 d   1      -4.045   3.638  29.009  0.00  0.00    -0.045 A 
ATOM     54  H20 KB1 d   1      -3.313   3.557  26.998  0.00  0.00     0.084 H 
ATOM     55  CAW KB1 d   1      -3.891   3.155  30.303  0.00  0.00     0.116 A 
ATOM     56  H21 KB1 d   1      -4.824   4.356  28.780  0.00  0.00     0.088 H 
ATOM     57  FAG KB1 d   1      -4.709   3.578  31.278  0.00  0.00    -0.206 F 
ATOM     58  CAJ KB1 d   1      -2.891   2.235  30.608  0.00  0.00    -0.045 A 
ATOM     59  CAL KB1 d   1      -2.049   1.800  29.584  0.00  0.00    -0.072 A 
ATOM     60  H22 KB1 d   1      -2.769   1.865  31.619  0.00  0.00     0.088 H 
ATOM     61  H23 KB1 d   1      -1.281   1.069  29.810  0.00  0.00     0.084 H 
ENDBRANCH  48  51
ENDBRANCH   1  48
TORSDOF 13
