REMARK  17 active torsions:
REMARK  status: ('A' for Active; 'I' for Inactive)
REMARK    1  A    between atoms: S8_18  and  C5_2 
REMARK    2  A    between atoms: C13_5  and  C15_6 
REMARK    3  A    between atoms: C12_11  and  C13_5 
REMARK    4  A    between atoms: C13_5  and  C14_12 
REMARK    5  A    between atoms: C19_10  and  C17_7 
REMARK    6  A    between atoms: C17_7  and  C16_13 
REMARK    7  A    between atoms: C17_7  and  O18_22 
REMARK       I    between atoms: N20_23  and  C21_8 
REMARK    8  A    between atoms: C21_8  and  O23_25 
REMARK    9  A    between atoms: O23_25  and  C24_9 
REMARK   10  A    between atoms: C19_10  and  N20_23 
REMARK   11  A    between atoms: C32_26  and  C19_10 
REMARK   12  A    between atoms: N11_21  and  C12_11 
REMARK   13  A    between atoms: C16_13  and  N11_21 
REMARK   14  A    between atoms: C2_15  and  O39_16 
REMARK   15  A    between atoms: O39_16  and  C40_17 
REMARK   16  A    between atoms: N11_21  and  S8_18 
REMARK   17  A    between atoms: C38_32  and  C32_26 
ROOT
ATOM      1  C19 8FM d   1      15.356  23.290  16.643  0.00  0.00     0.044 C 
ATOM      2  H10 8FM d   1      16.278  22.758  16.366  0.00  0.00     0.077 H 
ENDROOT
BRANCH   1   3
ATOM      3  C17 8FM d   1      15.714  24.426  17.596  0.00  0.00     0.067 C 
ATOM      4  H8  8FM d   1      16.004  23.966  18.552  0.00  0.00     0.088 H 
BRANCH   3   5
ATOM      5  C16 8FM d   1      16.887  25.286  17.133  0.00  0.00     0.019 C 
ATOM      6  H16 8FM d   1      17.016  26.122  17.836  0.00  0.00     0.061 H 
ATOM      7  H17 8FM d   1      16.667  25.680  16.130  0.00  0.00     0.061 H 
BRANCH   5   8
ATOM      8  N11 8FM d   1      18.115  24.525  17.079  0.00  0.00    -0.204 NA
BRANCH   8   9
ATOM      9  C12 8FM d   1      19.072  24.836  18.126  0.00  0.00    -0.004 C 
ATOM     10  H11 8FM d   1      20.032  24.355  17.887  0.00  0.00     0.058 H 
ATOM     11  H12 8FM d   1      19.210  25.926  18.171  0.00  0.00     0.058 H 
BRANCH   9  12
ATOM     12  C13 8FM d   1      18.593  24.338  19.494  0.00  0.00    -0.049 C 
ATOM     13  H4  8FM d   1      17.622  24.800  19.725  0.00  0.00     0.040 H 
BRANCH  12  14
ATOM     14  C15 8FM d   1      19.630  24.755  20.561  0.00  0.00    -0.072 C 
ATOM     15  H5  8FM d   1      19.300  24.404  21.550  0.00  0.00     0.028 H 
ATOM     16  H6  8FM d   1      19.723  25.851  20.573  0.00  0.00     0.028 H 
ATOM     17  H7  8FM d   1      20.605  24.307  20.320  0.00  0.00     0.028 H 
ENDBRANCH  12  14
BRANCH  12  18
ATOM     18  C14 8FM d   1      18.435  22.812  19.514  0.00  0.00    -0.072 C 
ATOM     19  H13 8FM d   1      18.091  22.492  20.509  0.00  0.00     0.028 H 
ATOM     20  H14 8FM d   1      19.404  22.340  19.292  0.00  0.00     0.028 H 
ATOM     21  H15 8FM d   1      17.697  22.510  18.756  0.00  0.00     0.028 H 
ENDBRANCH  12  18
ENDBRANCH   9  12
ENDBRANCH   8   9
BRANCH   8  22
ATOM     22  S8  8FM d   1      18.772  24.388  15.588  0.00  0.00     0.243 S 
ATOM     23  O9  8FM d   1      17.665  24.295  14.600  0.00  0.00    -0.206 OA
ATOM     24  O10 8FM d   1      19.640  23.171  15.602  0.00  0.00    -0.206 OA
BRANCH  22  25
ATOM     25  C5  8FM d   1      19.788  25.780  15.244  0.00  0.00     0.074 A 
ATOM     26  C4  8FM d   1      21.159  25.768  15.492  0.00  0.00    -0.058 A 
ATOM     27  C3  8FM d   1      21.962  26.860  15.138  0.00  0.00    -0.049 A 
ATOM     28  H1  8FM d   1      21.610  24.903  15.965  0.00  0.00     0.086 H 
ATOM     29  C2  8FM d   1      21.366  28.030  14.657  0.00  0.00     0.068 A 
ATOM     30  H18 8FM d   1      23.040  26.798  15.236  0.00  0.00     0.087 H 
ATOM     31  C7  8FM d   1      20.004  28.039  14.391  0.00  0.00    -0.049 A 
ATOM     32  C6  8FM d   1      19.229  26.926  14.682  0.00  0.00    -0.058 A 
ATOM     33  H3  8FM d   1      19.544  28.918  13.954  0.00  0.00     0.087 H 
ATOM     34  H2  8FM d   1      18.167  26.948  14.468  0.00  0.00     0.086 H 
BRANCH  29  35
ATOM     35  O39 8FM d   1      22.088  29.172  14.426  0.00  0.00    -0.356 OA
BRANCH  35  36
ATOM     36  C40 8FM d   1      23.354  29.047  15.071  0.00  0.00     0.010 C 
ATOM     37  H19 8FM d   1      23.947  29.957  14.895  0.00  0.00     0.066 H 
ATOM     38  H20 8FM d   1      23.889  28.177  14.663  0.00  0.00     0.066 H 
ATOM     39  H21 8FM d   1      23.203  28.911  16.152  0.00  0.00     0.066 H 
ENDBRANCH  35  36
ENDBRANCH  29  35
ENDBRANCH  22  25
ENDBRANCH   8  22
ENDBRANCH   5   8
ENDBRANCH   3   5
BRANCH   3  40
ATOM     40  O18 8FM d   1      14.577  25.257  17.832  0.00  0.00    -0.392 OA
ATOM     41  H22 8FM d   1      14.343  25.707  17.029  0.00  0.00     0.210 HD
ENDBRANCH   3  40
ENDBRANCH   1   3
BRANCH   1  42
ATOM     42  N20 8FM d   1      14.431  22.359  17.306  0.00  0.00    -0.329 N 
ATOM     43  C21 8FM d   1      14.619  21.040  17.418  0.00  0.00     0.361 C 
ATOM     44  O22 8FM d   1      15.669  20.506  17.067  0.00  0.00    -0.238 OA
ATOM     45  H23 8FM d   1      13.597  22.742  17.704  0.00  0.00     0.165 HD
BRANCH  43  46
ATOM     46  O23 8FM d   1      13.614  20.296  17.945  0.00  0.00    -0.298 OA
BRANCH  46  47
ATOM     47  C24 8FM d   1      13.629  18.915  17.554  0.00  0.00     0.061 C 
ATOM     48  C25 8FM d   1      13.418  18.073  18.808  0.00  0.00    -0.007 C 
ATOM     49  C26 8FM d   1      12.673  16.843  18.289  0.00  0.00    -0.049 C 
ATOM     50  C41 8FM d   1      12.440  18.842  19.709  0.00  0.00     0.028 C 
ATOM     51  H31 8FM d   1      14.357  17.824  19.324  0.00  0.00     0.047 H 
ATOM     52  C27 8FM d   1      11.642  17.501  17.380  0.00  0.00     0.002 C 
ATOM     53  H32 8FM d   1      12.194  16.284  19.107  0.00  0.00     0.034 H 
ATOM     54  H33 8FM d   1      13.340  16.172  17.727  0.00  0.00     0.034 H 
ATOM     55  C28 8FM d   1      10.675  18.270  18.272  0.00  0.00     0.135 C 
ATOM     56  C31 8FM d   1      12.419  18.601  16.679  0.00  0.00     0.001 C 
ATOM     57  H34 8FM d   1      11.145  16.794  16.699  0.00  0.00     0.048 H 
ATOM     58  O29 8FM d   1      10.507  19.585  17.760  0.00  0.00    -0.360 OA
ATOM     59  O42 8FM d   1      11.147  18.228  19.622  0.00  0.00    -0.360 OA
ATOM     60  H35 8FM d   1       9.695  17.771  18.243  0.00  0.00     0.129 H 
ATOM     61  C30 8FM d   1      11.436  19.754  16.683  0.00  0.00     0.029 C 
ATOM     62  H36 8FM d   1      11.981  20.700  16.814  0.00  0.00     0.075 H 
ATOM     63  H37 8FM d   1      10.891  19.774  15.728  0.00  0.00     0.075 H 
ATOM     64  H38 8FM d   1      12.726  18.325  15.660  0.00  0.00     0.048 H 
ATOM     65  H39 8FM d   1      12.375  19.888  19.375  0.00  0.00     0.075 H 
ATOM     66  H40 8FM d   1      12.794  18.811  20.750  0.00  0.00     0.075 H 
ATOM     67  H9  8FM d   1      14.571  18.664  17.044  0.00  0.00     0.085 H 
ENDBRANCH  46  47
ENDBRANCH  43  46
ENDBRANCH   1  42
BRANCH   1  68
ATOM     68  C32 8FM d   1      14.668  23.808  15.361  0.00  0.00    -0.020 C 
ATOM     69  H24 8FM d   1      15.329  24.520  14.846  0.00  0.00     0.043 H 
ATOM     70  H25 8FM d   1      13.723  24.308  15.622  0.00  0.00     0.043 H 
BRANCH  68  71
ATOM     71  C38 8FM d   1      14.385  22.610  14.448  0.00  0.00    -0.056 A 
ATOM     72  C33 8FM d   1      13.091  22.110  14.345  0.00  0.00    -0.077 A 
ATOM     73  C34 8FM d   1      12.827  20.980  13.586  0.00  0.00    -0.082 A 
ATOM     74  H26 8FM d   1      12.280  22.609  14.864  0.00  0.00     0.084 H 
ATOM     75  C35 8FM d   1      13.851  20.374  12.869  0.00  0.00    -0.083 A 
ATOM     76  H27 8FM d   1      11.824  20.570  13.552  0.00  0.00     0.083 H 
ATOM     77  C36 8FM d   1      15.140  20.899  12.951  0.00  0.00    -0.082 A 
ATOM     78  H28 8FM d   1      13.650  19.504  12.254  0.00  0.00     0.083 H 
ATOM     79  C37 8FM d   1      15.416  22.007  13.739  0.00  0.00    -0.077 A 
ATOM     80  H29 8FM d   1      15.941  20.433  12.389  0.00  0.00     0.083 H 
ATOM     81  H30 8FM d   1      16.425  22.398  13.801  0.00  0.00     0.084 H 
ENDBRANCH  68  71
ENDBRANCH   1  68
TORSDOF 17
