REMARK  11 active torsions:
REMARK  status: ('A' for Active; 'I' for Inactive)
REMARK    1  A    between atoms: C7_11  and  C7M_12 
REMARK    2  A    between atoms: C8_13  and  C8M_14 
REMARK    3  A    between atoms: N10_17  and  C1'_19 
REMARK    4  A    between atoms: C1'_19  and  C2'_20 
REMARK    5  A    between atoms: C2'_20  and  O2'_21 
REMARK    6  A    between atoms: C2'_20  and  C3'_22 
REMARK    7  A    between atoms: C3'_22  and  O3'_23 
REMARK    8  A    between atoms: C3'_22  and  C4'_24 
REMARK    9  A    between atoms: C4'_24  and  O4'_25 
REMARK   10  A    between atoms: C4'_24  and  C5'_26 
REMARK   11  A    between atoms: C5'_26  and  O5'_27 
ROOT
ATOM      1  N1  RBF d   1      10.679  -4.951   7.963  0.00  0.00    -0.173 NA
ATOM      2  C2  RBF d   1      11.445  -4.754   9.074  0.00  0.00     0.350 A 
ATOM      3  O2  RBF d   1      12.252  -5.661   9.441  0.00  0.00    -0.244 OA
ATOM      4  N3  RBF d   1      11.364  -3.624   9.813  0.00  0.00    -0.272 N 
ATOM      5  C4  RBF d   1      10.523  -2.622   9.509  0.00  0.00     0.282 A 
ATOM      6  O4  RBF d   1      10.464  -1.594  10.233  0.00  0.00    -0.265 OA
ATOM      7  C4A RBF d   1       9.663  -2.758   8.297  0.00  0.00     0.171 A 
ATOM      8  N5  RBF d   1       8.798  -1.777   7.940  0.00  0.00    -0.237 NA
ATOM      9  C5A RBF d   1       8.030  -1.955   6.834  0.00  0.00     0.085 A 
ATOM     10  C6  RBF d   1       7.167  -0.925   6.497  0.00  0.00    -0.047 A 
ATOM     11  C7  RBF d   1       6.358  -1.028   5.379  0.00  0.00    -0.054 A 
ATOM     12  C8  RBF d   1       6.413  -2.269   4.565  0.00  0.00    -0.054 A 
ATOM     13  C9  RBF d   1       7.271  -3.306   4.896  0.00  0.00    -0.048 A 
ATOM     14  C9A RBF d   1       8.105  -3.213   6.012  0.00  0.00     0.065 A 
ATOM     15  N10 RBF d   1       8.994  -4.262   6.382  0.00  0.00    -0.325 N 
ATOM     16  C10 RBF d   1       9.781  -4.033   7.533  0.00  0.00     0.170 A 
ATOM     17  H1  RBF d   1      11.953  -3.531  10.616  0.00  0.00     0.174 HD
ATOM     18  H2  RBF d   1       7.125  -0.034   7.112  0.00  0.00     0.088 H 
ATOM     19  H9  RBF d   1       7.295  -4.199   4.282  0.00  0.00     0.087 H 
ENDROOT
BRANCH  15  20
ATOM     20  C1' RBF d   1       9.118  -5.558   5.638  0.00  0.00     0.028 C 
ATOM     21  H10 RBF d   1       8.105  -5.971   5.527  0.00  0.00     0.069 H 
ATOM     22  H11 RBF d   1       9.725  -6.235   6.257  0.00  0.00     0.069 H 
BRANCH  20  23
ATOM     23  C2' RBF d   1       9.757  -5.521   4.233  0.00  0.00     0.078 C 
ATOM     24  H12 RBF d   1      10.526  -4.734   4.245  0.00  0.00     0.089 H 
BRANCH  23  25
ATOM     25  O2' RBF d   1       8.767  -5.245   3.245  0.00  0.00    -0.391 OA
ATOM     26  H13 RBF d   1       9.174  -5.225   2.387  0.00  0.00     0.210 HD
ENDBRANCH  23  25
BRANCH  23  27
ATOM     27  C3' RBF d   1      10.368  -6.805   3.680  0.00  0.00     0.088 C 
ATOM     28  H14 RBF d   1       9.575  -7.360   3.156  0.00  0.00     0.091 H 
BRANCH  27  29
ATOM     29  O3' RBF d   1      10.851  -7.638   4.740  0.00  0.00    -0.390 OA
ATOM     30  H15 RBF d   1      11.515  -7.170   5.232  0.00  0.00     0.210 HD
ENDBRANCH  27  29
BRANCH  27  31
ATOM     31  C4' RBF d   1      11.473  -6.472   2.644  0.00  0.00     0.083 C 
ATOM     32  H16 RBF d   1      12.344  -6.107   3.208  0.00  0.00     0.090 H 
BRANCH  31  33
ATOM     33  O4' RBF d   1      11.065  -5.427   1.729  0.00  0.00    -0.391 OA
ATOM     34  H17 RBF d   1      10.870  -4.637   2.219  0.00  0.00     0.210 HD
ENDBRANCH  31  33
BRANCH  31  35
ATOM     35  C5' RBF d   1      11.925  -7.690   1.827  0.00  0.00     0.043 C 
ATOM     36  H18 RBF d   1      12.072  -7.385   0.780  0.00  0.00     0.078 H 
ATOM     37  H19 RBF d   1      11.146  -8.465   1.877  0.00  0.00     0.078 H 
BRANCH  35  38
ATOM     38  O5' RBF d   1      13.154  -8.229   2.335  0.00  0.00    -0.398 OA
ATOM     39  H20 RBF d   1      13.409  -8.980   1.812  0.00  0.00     0.209 HD
ENDBRANCH  35  38
ENDBRANCH  31  35
ENDBRANCH  27  31
ENDBRANCH  23  27
ENDBRANCH  20  23
ENDBRANCH  15  20
BRANCH  12  40
ATOM     40  C8M RBF d   1       5.521  -2.418   3.368  0.00  0.00    -0.051 C 
ATOM     41  H6  RBF d   1       5.702  -3.395   2.895  0.00  0.00     0.033 H 
ATOM     42  H7  RBF d   1       5.738  -1.616   2.647  0.00  0.00     0.033 H 
ATOM     43  H8  RBF d   1       4.469  -2.353   3.684  0.00  0.00     0.033 H 
ENDBRANCH  12  40
BRANCH  11  44
ATOM     44  C7M RBF d   1       5.409   0.099   5.033  0.00  0.00    -0.051 C 
ATOM     45  H3  RBF d   1       5.530   0.916   5.759  0.00  0.00     0.033 H 
ATOM     46  H4  RBF d   1       4.373  -0.270   5.066  0.00  0.00     0.033 H 
ATOM     47  H5  RBF d   1       5.634   0.470   4.022  0.00  0.00     0.033 H 
ENDBRANCH  11  44
TORSDOF 11
