REMARK  8 active torsions:
REMARK  status: ('A' for Active; 'I' for Inactive)
REMARK    1  A    between atoms: CAB_1  and  CBF_2 
REMARK    2  A    between atoms: CBF_2  and  OAG_3 
REMARK    3  A    between atoms: CBF_2  and  CBJ_4 
REMARK    4  A    between atoms: CAU_9  and  OAE_10 
REMARK    5  A    between atoms: CAW_17  and  OAS_18 
REMARK    6  A    between atoms: OAS_18  and  CAA_19 
REMARK    7  A    between atoms: CAV_20  and  OAF_21 
REMARK    8  A    between atoms: CBG_35  and  OAH_36 
ROOT
ATOM      1  CBJ TNN d   1      -0.063   6.304 -15.071  0.00  0.00     0.150 A 
ATOM      2  OAT TNN d   1       0.528   6.874 -16.139  0.00  0.00    -0.349 OA
ATOM      3  CBI TNN d   1       0.256   5.512 -16.335  0.00  0.00     0.156 A 
ATOM      4  CAY TNN d   1      -0.806   5.121 -17.265  0.00  0.00     0.012 A 
ATOM      5  CAQ TNN d   1      -0.575   4.173 -18.279  0.00  0.00    -0.039 A 
ATOM      6  CAU TNN d   1      -1.591   3.794 -19.146  0.00  0.00     0.081 A 
ATOM      7  CBC TNN d   1      -2.874   4.323 -19.063  0.00  0.00     0.064 A 
ATOM      8  CAZ TNN d   1      -3.880   3.903 -19.965  0.00  0.00     0.197 A 
ATOM      9  OAC TNN d   1      -3.628   3.070 -20.827  0.00  0.00    -0.286 OA
ATOM     10  CBB TNN d   1      -5.176   4.429 -19.859  0.00  0.00     0.032 A 
ATOM     11  CAP TNN d   1      -6.204   4.020 -20.750  0.00  0.00    -0.065 A 
ATOM     12  CAO TNN d   1      -7.510   4.557 -20.646  0.00  0.00    -0.047 A 
ATOM     13  CAW TNN d   1      -7.783   5.496 -19.625  0.00  0.00     0.102 A 
ATOM     14  CAV TNN d   1      -6.762   5.887 -18.745  0.00  0.00     0.114 A 
ATOM     15  CBD TNN d   1      -5.454   5.374 -18.834  0.00  0.00     0.065 A 
ATOM     16  CBA TNN d   1      -4.450   5.810 -17.953  0.00  0.00     0.199 A 
ATOM     17  OAD TNN d   1      -4.720   6.664 -17.093  0.00  0.00    -0.286 OA
ATOM     18  CBE TNN d   1      -3.147   5.275 -18.048  0.00  0.00     0.059 A 
ATOM     19  CAX TNN d   1      -2.112   5.659 -17.160  0.00  0.00     0.053 A 
ATOM     20  NAR TNN d   1      -2.347   6.592 -16.142  0.00  0.00    -0.378 N 
ATOM     21  CBH TNN d   1      -1.640   6.467 -14.838  0.00  0.00     0.062 C 
ATOM     22  CAL TNN d   1      -2.179   5.340 -14.150  0.00  0.00    -0.079 C 
ATOM     23  CAJ TNN d   1      -2.338   4.388 -13.750  0.00  0.00    -0.085 C 
ATOM     24  CAN TNN d   1      -2.422   3.002 -13.274  0.00  0.00    -0.083 C 
ATOM     25  CAM TNN d   1      -1.468   2.108 -13.667  0.00  0.00    -0.083 C 
ATOM     26  CAI TNN d   1      -0.418   2.709 -14.500  0.00  0.00    -0.084 C 
ATOM     27  CAK TNN d   1       0.324   3.292 -15.126  0.00  0.00    -0.073 C 
ATOM     28  CBG TNN d   1       1.191   4.309 -15.903  0.00  0.00     0.089 C 
ATOM     29  H6  TNN d   1       0.410   3.733 -18.385  0.00  0.00     0.088 H 
ATOM     30  H8  TNN d   1      -5.986   3.288 -21.519  0.00  0.00     0.085 H 
ATOM     31  H9  TNN d   1      -8.287   4.253 -21.338  0.00  0.00     0.087 H 
ATOM     32  H14 TNN d   1      -3.010   7.365 -16.296  0.00  0.00     0.160 HD
ATOM     33  H15 TNN d   1      -1.816   7.373 -14.240  0.00  0.00     0.083 H 
ATOM     34  H16 TNN d   1      -3.074   5.819 -13.755  0.00  0.00     0.080 H 
ATOM     35  H17 TNN d   1      -3.227   4.697 -13.202  0.00  0.00     0.083 H 
ATOM     36  H18 TNN d   1      -3.233   2.692 -12.617  0.00  0.00     0.083 H 
ATOM     37  H19 TNN d   1      -1.484   1.055 -13.391  0.00  0.00     0.083 H 
ATOM     38  H20 TNN d   1       0.113   1.767 -14.627  0.00  0.00     0.083 H 
ATOM     39  H21 TNN d   1       0.900   2.420 -15.432  0.00  0.00     0.081 H 
ATOM     40  H22 TNN d   1       1.929   4.708 -15.192  0.00  0.00     0.094 H 
ENDROOT
BRANCH   1  41
ATOM     41  CBF TNN d   1       0.656   6.525 -13.770  0.00  0.00     0.068 C 
ATOM     42  H4  TNN d   1       1.704   6.744 -14.021  0.00  0.00     0.087 H 
BRANCH  41  43
ATOM     43  CAB TNN d   1       0.139   7.702 -12.906  0.00  0.00    -0.049 C 
ATOM     44  H1  TNN d   1       0.156   8.628 -13.500  0.00  0.00     0.031 H 
ATOM     45  H2  TNN d   1       0.785   7.821 -12.024  0.00  0.00     0.031 H 
ATOM     46  H3  TNN d   1      -0.891   7.493 -12.581  0.00  0.00     0.031 H 
ENDBRANCH  41  43
BRANCH  41  47
ATOM     47  OAG TNN d   1       0.624   5.302 -12.955  0.00  0.00    -0.393 OA
ATOM     48  H5  TNN d   1       1.180   5.416 -12.193  0.00  0.00     0.210 HD
ENDBRANCH  41  47
ENDBRANCH   1  41
BRANCH  28  49
ATOM     49  OAH TNN d   1       1.919   3.785 -16.943  0.00  0.00    -0.388 OA
ATOM     50  H23 TNN d   1       2.513   3.122 -16.610  0.00  0.00     0.210 HD
ENDBRANCH  28  49
BRANCH   6  51
ATOM     51  OAE TNN d   1      -1.354   2.881 -20.123  0.00  0.00    -0.360 OA
ATOM     52  H7  TNN d   1      -2.150   2.738 -20.621  0.00  0.00     0.217 HD
ENDBRANCH   6  51
BRANCH  14  53
ATOM     53  OAF TNN d   1      -7.070   6.848 -17.796  0.00  0.00    -0.357 OA
ATOM     54  H13 TNN d   1      -6.302   7.025 -17.266  0.00  0.00     0.217 HD
ENDBRANCH  14  53
BRANCH  13  55
ATOM     55  OAS TNN d   1      -8.971   6.138 -19.389  0.00  0.00    -0.353 OA
BRANCH  55  56
ATOM     56  CAA TNN d   1     -10.234   5.628 -19.886  0.00  0.00     0.010 C 
ATOM     57  H10 TNN d   1     -11.048   6.301 -19.578  0.00  0.00     0.066 H 
ATOM     58  H11 TNN d   1     -10.412   4.624 -19.473  0.00  0.00     0.066 H 
ATOM     59  H12 TNN d   1     -10.200   5.572 -20.984  0.00  0.00     0.066 H 
ENDBRANCH  55  56
ENDBRANCH  13  55
TORSDOF 8
