REMARK  7 active torsions:
REMARK  status: ('A' for Active; 'I' for Inactive)
REMARK    1  A    between atoms: C2_2  and  C1_1 
REMARK    2  A    between atoms: C4_24  and  C3_3 
REMARK    3  A    between atoms: C25_4  and  C26_5 
REMARK    4  A    between atoms: C5_7  and  O1_30 
REMARK    5  A    between atoms: O1_30  and  C6_8 
REMARK    6  A    between atoms: C13_31  and  C12_14 
REMARK    7  A    between atoms: C22_27  and  C23_28 
ROOT
ATOM      1  N4  8FV d   1      21.837  -2.546   8.130  0.00  0.00    -0.215 NA
ATOM      2  C5  8FV d   1      16.900  -5.935   8.116  0.00  0.00     0.080 A 
ATOM      3  C7  8FV d   1      17.983  -5.581   8.946  0.00  0.00    -0.037 A 
ATOM      4  C8  8FV d   1      18.884  -4.624   8.480  0.00  0.00     0.010 A 
ATOM      5  C11 8FV d   1      20.093  -4.088   9.022  0.00  0.00     0.052 A 
ATOM      6  C10 8FV d   1      20.636  -3.212   8.020  0.00  0.00     0.143 A 
ATOM      7  C9  8FV d   1      18.720  -4.036   7.196  0.00  0.00     0.046 A 
ATOM      8  C12 8FV d   1      20.830  -4.215  10.219  0.00  0.00     0.085 A 
ATOM      9  C4  8FV d   1      16.733  -5.322   6.843  0.00  0.00     0.014 A 
ATOM     10  C24 8FV d   1      17.656  -4.365   6.368  0.00  0.00    -0.043 A 
ATOM     11  N1  8FV d   1      19.799  -3.166   6.928  0.00  0.00    -0.339 N 
ATOM     12  C22 8FV d   1      22.483  -2.819   9.313  0.00  0.00     0.125 A 
ATOM     13  N3  8FV d   1      22.041  -3.597  10.369  0.00  0.00    -0.232 NA
ATOM     14  H10 8FV d   1      18.112  -6.040   9.920  0.00  0.00     0.089 H 
ATOM     15  H17 8FV d   1      17.538  -3.905   5.394  0.00  0.00     0.088 H 
ATOM     16  H18 8FV d   1      19.934  -2.603   6.076  0.00  0.00     0.167 HD
ENDROOT
BRANCH   8  17
ATOM     17  C13 8FV d   1      20.333  -4.963  11.394  0.00  0.00     0.008 A 
ATOM     18  C21 8FV d   1      21.105  -6.004  11.853  0.00  0.00    -0.053 A 
ATOM     19  C20 8FV d   1      20.617  -6.808  12.941  0.00  0.00     0.004 A 
ATOM     20  H16 8FV d   1      22.067  -6.216  11.401  0.00  0.00     0.087 H 
ATOM     21  N2  8FV d   1      19.451  -6.620  13.553  0.00  0.00    -0.260 NA
ATOM     22  H13 8FV d   1      21.242  -7.623  13.286  0.00  0.00     0.114 H 
ATOM     23  C19 8FV d   1      18.646  -5.557  13.092  0.00  0.00     0.067 A 
ATOM     24  C18 8FV d   1      17.360  -5.399  13.708  0.00  0.00    -0.054 A 
ATOM     25  C14 8FV d   1      19.049  -4.687  12.023  0.00  0.00     0.005 A 
ATOM     26  C17 8FV d   1      16.513  -4.415  13.260  0.00  0.00    -0.081 A 
ATOM     27  H14 8FV d   1      17.059  -6.051  14.520  0.00  0.00     0.087 H 
ATOM     28  C16 8FV d   1      16.928  -3.542  12.207  0.00  0.00    -0.082 A 
ATOM     29  H15 8FV d   1      15.531  -4.301  13.704  0.00  0.00     0.083 H 
ATOM     30  C15 8FV d   1      18.139  -3.658  11.618  0.00  0.00    -0.070 A 
ATOM     31  H12 8FV d   1      16.252  -2.764  11.871  0.00  0.00     0.083 H 
ATOM     32  H11 8FV d   1      18.424  -2.967  10.833  0.00  0.00     0.084 H 
ENDBRANCH   8  17
BRANCH  12  33
ATOM     33  C23 8FV d   1      23.867  -2.240   9.437  0.00  0.00    -0.019 C 
ATOM     34  H19 8FV d   1      24.098  -1.647   8.540  0.00  0.00     0.037 H 
ATOM     35  H20 8FV d   1      24.598  -3.056   9.535  0.00  0.00     0.037 H 
ATOM     36  H21 8FV d   1      23.916  -1.594  10.326  0.00  0.00     0.037 H 
ENDBRANCH  12  33
BRANCH   2  37
ATOM     37  O1  8FV d   1      15.956  -6.889   8.522  0.00  0.00    -0.355 OA
BRANCH  37  38
ATOM     38  C6  8FV d   1      16.195  -7.702   9.665  0.00  0.00     0.010 C 
ATOM     39  H7  8FV d   1      15.343  -8.381   9.816  0.00  0.00     0.066 H 
ATOM     40  H8  8FV d   1      16.316  -7.062  10.551  0.00  0.00     0.066 H 
ATOM     41  H9  8FV d   1      17.111  -8.291   9.511  0.00  0.00     0.066 H 
ENDBRANCH  37  38
ENDBRANCH   2  37
BRANCH   9  42
ATOM     42  C3  8FV d   1      15.576  -5.643   6.047  0.00  0.00     0.035 A 
ATOM     43  C2  8FV d   1      14.613  -4.790   5.613  0.00  0.00     0.088 A 
ATOM     44  O2  8FV d   1      13.663  -5.495   4.923  0.00  0.00    -0.217 OA
ATOM     45  N5  8FV d   1      14.009  -6.807   4.905  0.00  0.00    -0.133 NA
ATOM     46  C25 8FV d   1      15.167  -6.947   5.565  0.00  0.00     0.072 A 
BRANCH  43  47
ATOM     47  C1  8FV d   1      14.414  -3.348   5.742  0.00  0.00    -0.028 C 
ATOM     48  H1  8FV d   1      13.484  -3.059   5.231  0.00  0.00     0.036 H 
ATOM     49  H2  8FV d   1      15.263  -2.818   5.286  0.00  0.00     0.036 H 
ATOM     50  H3  8FV d   1      14.345  -3.081   6.807  0.00  0.00     0.036 H 
ENDBRANCH  43  47
BRANCH  46  51
ATOM     51  C26 8FV d   1      15.878  -8.229   5.749  0.00  0.00    -0.033 C 
ATOM     52  H4  8FV d   1      15.309  -9.036   5.264  0.00  0.00     0.035 H 
ATOM     53  H5  8FV d   1      15.976  -8.443   6.824  0.00  0.00     0.035 H 
ATOM     54  H6  8FV d   1      16.878  -8.162   5.296  0.00  0.00     0.035 H 
ENDBRANCH  46  51
ENDBRANCH   9  42
TORSDOF 7
