REMARK  19 active torsions:
REMARK  status: ('A' for Active; 'I' for Inactive)
REMARK    1  A    between atoms: C2_1  and  O39_2 
REMARK    2  A    between atoms: O39_2  and  C40_3 
REMARK    3  A    between atoms: S8_9  and  C5_6 
REMARK    4  A    between atoms: N11_12  and  S8_9 
REMARK    5  A    between atoms: N11_12  and  C12_13 
REMARK    6  A    between atoms: C16_17  and  N11_12 
REMARK    7  A    between atoms: C12_13  and  C13_14 
REMARK    8  A    between atoms: C13_14  and  C14_15 
REMARK    9  A    between atoms: C13_14  and  C15_16 
REMARK   10  A    between atoms: C17_18  and  C16_17 
REMARK   11  A    between atoms: C17_18  and  O18_19 
REMARK   12  A    between atoms: C19_20  and  C17_18 
REMARK   13  A    between atoms: C19_20  and  N20_21 
REMARK   14  A    between atoms: C32_24  and  C19_20 
REMARK       I    between atoms: N20_21  and  C21_22 
REMARK   15  A    between atoms: C21_22  and  C51_31 
REMARK   16  A    between atoms: C38_30  and  C32_24 
REMARK   17  A    between atoms: C55_35  and  C58_37 
REMARK       I    between atoms: C58_37  and  N60_39 
REMARK   18  A    between atoms: C62_43  and  C63_44 
REMARK   19  A    between atoms: C65_46  and  C68_49 
ROOT
ATOM      1  C19 8FP d   1      14.992  22.928  16.916  0.00  0.00     0.042 C 
ATOM      2  H21 8FP d   1      15.924  22.468  16.555  0.00  0.00     0.077 H 
ENDROOT
BRANCH   1   3
ATOM      3  C17 8FP d   1      15.367  24.036  17.923  0.00  0.00     0.071 C 
ATOM      4  H19 8FP d   1      15.777  23.564  18.828  0.00  0.00     0.088 H 
BRANCH   3   5
ATOM      5  C16 8FP d   1      16.418  25.020  17.334  0.00  0.00     0.031 C 
ATOM      6  H17 8FP d   1      16.143  25.274  16.300  0.00  0.00     0.069 H 
ATOM      7  H18 8FP d   1      16.443  25.936  17.942  0.00  0.00     0.069 H 
BRANCH   5   8
ATOM      8  N11 8FP d   1      17.737  24.392  17.346  0.00  0.00    -0.304 N 
BRANCH   8   9
ATOM      9  S8  8FP d   1      18.392  24.066  15.851  0.00  0.00     0.260 S 
ATOM     10  O9  8FP d   1      17.291  23.963  14.858  0.00  0.00    -0.200 OA
ATOM     11  O10 8FP d   1      19.289  22.918  15.980  0.00  0.00    -0.200 OA
BRANCH   9  12
ATOM     12  C5  8FP d   1      19.364  25.491  15.453  0.00  0.00     0.079 A 
ATOM     13  C4  8FP d   1      20.732  25.521  15.686  0.00  0.00    -0.058 A 
ATOM     14  C3  8FP d   1      21.511  26.674  15.440  0.00  0.00    -0.049 A 
ATOM     15  H5  8FP d   1      21.218  24.631  16.069  0.00  0.00     0.086 H 
ATOM     16  C2  8FP d   1      20.871  27.762  14.859  0.00  0.00     0.068 A 
ATOM     17  H4  8FP d   1      22.564  26.708  15.694  0.00  0.00     0.087 H 
ATOM     18  C7  8FP d   1      19.538  27.672  14.528  0.00  0.00    -0.049 A 
ATOM     19  C6  8FP d   1      18.759  26.567  14.822  0.00  0.00    -0.058 A 
ATOM     20  H7  8FP d   1      19.077  28.506  14.012  0.00  0.00     0.087 H 
ATOM     21  H6  8FP d   1      17.706  26.543  14.566  0.00  0.00     0.086 H 
BRANCH  16  22
ATOM     22  O39 8FP d   1      21.489  28.948  14.593  0.00  0.00    -0.356 OA
BRANCH  22  23
ATOM     23  C40 8FP d   1      22.848  28.944  14.978  0.00  0.00     0.010 C 
ATOM     24  H1  8FP d   1      23.299  29.920  14.743  0.00  0.00     0.066 H 
ATOM     25  H2  8FP d   1      23.382  28.152  14.431  0.00  0.00     0.066 H 
ATOM     26  H3  8FP d   1      22.922  28.757  16.059  0.00  0.00     0.066 H 
ENDBRANCH  22  23
ENDBRANCH  16  22
ENDBRANCH   9  12
ENDBRANCH   8   9
BRANCH   8  27
ATOM     27  C12 8FP d   1      18.676  24.611  18.402  0.00  0.00     0.008 C 
ATOM     28  H8  8FP d   1      18.739  25.696  18.573  0.00  0.00     0.066 H 
ATOM     29  H9  8FP d   1      19.653  24.236  18.063  0.00  0.00     0.066 H 
BRANCH  27  30
ATOM     30  C13 8FP d   1      18.357  23.932  19.773  0.00  0.00    -0.045 C 
ATOM     31  H10 8FP d   1      17.338  24.189  20.099  0.00  0.00     0.041 H 
BRANCH  30  32
ATOM     32  C14 8FP d   1      18.496  22.423  19.648  0.00  0.00    -0.072 C 
ATOM     33  H11 8FP d   1      18.270  21.953  20.616  0.00  0.00     0.028 H 
ATOM     34  H12 8FP d   1      19.525  22.173  19.350  0.00  0.00     0.028 H 
ATOM     35  H13 8FP d   1      17.794  22.052  18.887  0.00  0.00     0.028 H 
ENDBRANCH  30  32
BRANCH  30  36
ATOM     36  C15 8FP d   1      19.397  24.456  20.785  0.00  0.00    -0.072 C 
ATOM     37  H14 8FP d   1      19.300  25.548  20.878  0.00  0.00     0.028 H 
ATOM     38  H15 8FP d   1      20.409  24.207  20.433  0.00  0.00     0.028 H 
ATOM     39  H16 8FP d   1      19.224  23.987  21.765  0.00  0.00     0.028 H 
ENDBRANCH  30  36
ENDBRANCH  27  30
ENDBRANCH   8  27
ENDBRANCH   5   8
ENDBRANCH   3   5
BRANCH   3  40
ATOM     40  O18 8FP d   1      14.198  24.829  18.273  0.00  0.00    -0.392 OA
ATOM     41  H20 8FP d   1      13.861  25.256  17.494  0.00  0.00     0.210 HD
ENDBRANCH   3  40
ENDBRANCH   1   3
BRANCH   1  42
ATOM     42  N20 8FP d   1      14.159  21.895  17.570  0.00  0.00    -0.349 N 
ATOM     43  C21 8FP d   1      14.680  20.740  18.018  0.00  0.00     0.252 C 
ATOM     44  O22 8FP d   1      15.803  20.373  18.061  0.00  0.00    -0.268 OA
ATOM     45  H22 8FP d   1      13.179  22.061  17.682  0.00  0.00     0.163 HD
BRANCH  43  46
ATOM     46  C51 8FP d   1      13.650  19.749  18.596  0.00  0.00     0.033 A 
ATOM     47  C52 8FP d   1      13.842  19.137  19.829  0.00  0.00    -0.068 A 
ATOM     48  C53 8FP d   1      12.879  18.262  20.342  0.00  0.00    -0.081 A 
ATOM     49  H30 8FP d   1      14.743  19.339  20.396  0.00  0.00     0.085 H 
ATOM     50  C54 8FP d   1      11.727  17.968  19.628  0.00  0.00    -0.068 A 
ATOM     51  H31 8FP d   1      13.036  17.806  21.313  0.00  0.00     0.083 H 
ATOM     52  C55 8FP d   1      11.580  18.557  18.369  0.00  0.00     0.033 A 
ATOM     53  H32 8FP d   1      10.969  17.306  20.031  0.00  0.00     0.085 H 
ATOM     54  C56 8FP d   1      12.497  19.494  17.869  0.00  0.00    -0.052 A 
ATOM     55  H33 8FP d   1      12.308  20.008  16.933  0.00  0.00     0.086 H 
BRANCH  52  56
ATOM     56  C58 8FP d   1      10.295  18.396  17.559  0.00  0.00     0.254 C 
ATOM     57  O59 8FP d   1       9.244  18.761  18.076  0.00  0.00    -0.267 OA
ATOM     58  N60 8FP d   1      10.332  18.145  16.273  0.00  0.00    -0.337 N 
ATOM     59  C61 8FP d   1      11.387  17.418  15.599  0.00  0.00    -0.001 C 
ATOM     60  C62 8FP d   1       9.068  18.089  15.523  0.00  0.00     0.063 C 
ATOM     61  C69 8FP d   1      10.818  17.017  14.249  0.00  0.00    -0.048 C 
ATOM     62  H34 8FP d   1      11.666  16.525  16.177  0.00  0.00     0.064 H 
ATOM     63  H35 8FP d   1      12.270  18.060  15.467  0.00  0.00     0.064 H 
ATOM     64  C70 8FP d   1       9.315  17.076  14.411  0.00  0.00    -0.039 C 
ATOM     65  H36 8FP d   1      11.136  15.998  13.985  0.00  0.00     0.035 H 
ATOM     66  H37 8FP d   1      11.149  17.718  13.469  0.00  0.00     0.035 H 
ATOM     67  H38 8FP d   1       8.919  16.090  14.694  0.00  0.00     0.036 H 
ATOM     68  H39 8FP d   1       8.840  17.407  13.476  0.00  0.00     0.036 H 
ATOM     69  H40 8FP d   1       8.248  17.745  16.170  0.00  0.00     0.083 H 
BRANCH  60  70
ATOM     70  C63 8FP d   1       8.740  19.455  14.997  0.00  0.00     0.098 A 
ATOM     71  N64 8FP d   1       8.372  19.853  13.812  0.00  0.00    -0.248 NA
ATOM     72  C65 8FP d   1       8.215  21.156  13.611  0.00  0.00     0.038 A 
ATOM     73  C66 8FP d   1       8.347  21.958  14.661  0.00  0.00    -0.020 A 
ATOM     74  S67 8FP d   1       8.876  20.902  15.952  0.00  0.00    -0.083 SA
ATOM     75  H41 8FP d   1       8.167  23.031  14.708  0.00  0.00     0.098 H 
BRANCH  72  76
ATOM     76  C68 8FP d   1       7.594  21.667  12.298  0.00  0.00    -0.035 C 
ATOM     77  H42 8FP d   1       7.547  22.766  12.318  0.00  0.00     0.035 H 
ATOM     78  H43 8FP d   1       6.578  21.259  12.190  0.00  0.00     0.035 H 
ATOM     79  H44 8FP d   1       8.213  21.341  11.449  0.00  0.00     0.035 H 
ENDBRANCH  72  76
ENDBRANCH  60  70
ENDBRANCH  52  56
ENDBRANCH  43  46
ENDBRANCH   1  42
BRANCH   1  80
ATOM     80  C32 8FP d   1      14.193  23.447  15.701  0.00  0.00    -0.020 C 
ATOM     81  H23 8FP d   1      14.790  24.202  15.167  0.00  0.00     0.043 H 
ATOM     82  H24 8FP d   1      13.254  23.901  16.049  0.00  0.00     0.043 H 
BRANCH  80  83
ATOM     83  C38 8FP d   1      13.874  22.281  14.748  0.00  0.00    -0.056 A 
ATOM     84  C33 8FP d   1      12.548  21.878  14.632  0.00  0.00    -0.077 A 
ATOM     85  C34 8FP d   1      12.251  20.753  13.831  0.00  0.00    -0.082 A 
ATOM     86  H25 8FP d   1      11.759  22.416  15.145  0.00  0.00     0.084 H 
ATOM     87  C35 8FP d   1      13.279  20.060  13.171  0.00  0.00    -0.083 A 
ATOM     88  H26 8FP d   1      11.224  20.423  13.725  0.00  0.00     0.083 H 
ATOM     89  C36 8FP d   1      14.603  20.542  13.231  0.00  0.00    -0.082 A 
ATOM     90  H27 8FP d   1      13.055  19.156  12.616  0.00  0.00     0.083 H 
ATOM     91  C37 8FP d   1      14.899  21.645  14.053  0.00  0.00    -0.077 A 
ATOM     92  H28 8FP d   1      15.385  20.067  12.649  0.00  0.00     0.083 H 
ATOM     93  H29 8FP d   1      15.920  21.998  14.145  0.00  0.00     0.084 H 
ENDBRANCH  80  83
ENDBRANCH   1  80
TORSDOF 19
