REMARK  6 active torsions:
REMARK  status: ('A' for Active; 'I' for Inactive)
REMARK       I    between atoms: C7_5  and  N1_1 
REMARK    1  A    between atoms: N1_1  and  C8_6 
REMARK    2  A    between atoms: C4_2  and  C7_5 
REMARK    3  A    between atoms: C8_6  and  C9_16 
REMARK    4  A    between atoms: C9_16  and  C10_7 
REMARK    5  A    between atoms: C10_7  and  C11_17 
REMARK    6  A    between atoms: N_24  and  C1_23 
REMARK       I    between atoms: C_25  and  N_24 
REMARK       I    between atoms: C_25  and  N2_27 
ROOT
ATOM      1  C4  8HY d   1      14.171   5.217  -1.392  0.00  0.00     0.032 C 
ATOM      2  C5  8HY d   1      13.547   6.444  -1.196  0.00  0.00    -0.066 C 
ATOM      3  C6  8HY d   1      13.926   7.274  -0.153  0.00  0.00    -0.056 C 
ATOM      4  C3  8HY d   1      15.323   4.937  -0.650  0.00  0.00    -0.066 C 
ATOM      5  C2  8HY d   1      15.733   5.784   0.370  0.00  0.00    -0.056 C 
ATOM      6  C1  8HY d   1      15.006   6.939   0.657  0.00  0.00     0.036 C 
ATOM      7  H2  8HY d   1      12.755   6.755  -1.867  0.00  0.00     0.085 H 
ATOM      8  H3  8HY d   1      13.377   8.190   0.033  0.00  0.00     0.086 H 
ATOM      9  H20 8HY d   1      15.902   4.048  -0.874  0.00  0.00     0.085 H 
ATOM     10  H21 8HY d   1      16.621   5.547   0.945  0.00  0.00     0.086 H 
ENDROOT
BRANCH   1  11
ATOM     11  C7  8HY d   1      13.559   4.250  -2.369  0.00  0.00     0.251 C 
ATOM     12  N1  8HY d   1      14.196   3.090  -2.556  0.00  0.00    -0.357 N 
ATOM     13  H1  8HY d   1      15.032   2.925  -2.032  0.00  0.00     0.162 HD
ATOM     14  O1  8HY d   1      12.533   4.538  -2.986  0.00  0.00    -0.268 OA
BRANCH  12  15
ATOM     15  C8  8HY d   1      13.749   2.047  -3.477  0.00  0.00    -0.004 C 
ATOM     16  H4  8HY d   1      12.761   1.697  -3.145  0.00  0.00     0.064 H 
ATOM     17  H5  8HY d   1      14.468   1.216  -3.428  0.00  0.00     0.064 H 
BRANCH  15  18
ATOM     18  C9  8HY d   1      13.631   2.492  -4.944  0.00  0.00    -0.047 C 
ATOM     19  H15 8HY d   1      12.706   3.076  -5.057  0.00  0.00     0.035 H 
ATOM     20  H16 8HY d   1      13.578   1.594  -5.577  0.00  0.00     0.035 H 
BRANCH  18  21
ATOM     21  C10 8HY d   1      14.815   3.357  -5.423  0.00  0.00    -0.040 C 
ATOM     22  H6  8HY d   1      15.662   3.154  -4.751  0.00  0.00     0.040 H 
ATOM     23  H7  8HY d   1      14.512   4.410  -5.323  0.00  0.00     0.040 H 
BRANCH  21  24
ATOM     24  C11 8HY d   1      15.309   3.164  -6.838  0.00  0.00    -0.058 A 
ATOM     25  C16 8HY d   1      14.419   2.945  -7.886  0.00  0.00    -0.077 A 
ATOM     26  C15 8HY d   1      14.878   2.780  -9.184  0.00  0.00    -0.082 A 
ATOM     27  H17 8HY d   1      13.355   2.903  -7.685  0.00  0.00     0.084 H 
ATOM     28  C14 8HY d   1      16.235   2.844  -9.456  0.00  0.00    -0.083 A 
ATOM     29  H9  8HY d   1      14.173   2.600  -9.988  0.00  0.00     0.083 H 
ATOM     30  C13 8HY d   1      17.129   3.063  -8.426  0.00  0.00    -0.082 A 
ATOM     31  H18 8HY d   1      16.593   2.723 -10.472  0.00  0.00     0.083 H 
ATOM     32  C12 8HY d   1      16.671   3.218  -7.126  0.00  0.00    -0.077 A 
ATOM     33  H8  8HY d   1      18.192   3.114  -8.634  0.00  0.00     0.083 H 
ATOM     34  H19 8HY d   1      17.382   3.383  -6.324  0.00  0.00     0.084 H 
ENDBRANCH  21  24
ENDBRANCH  18  21
ENDBRANCH  15  18
ENDBRANCH  12  15
ENDBRANCH   1  11
BRANCH   6  35
ATOM     35  N   8HY d   1      15.353   7.748   1.772  0.00  0.00    -0.308 N 
ATOM     36  C   8HY d   1      14.691   8.847   2.249  0.00  0.00     0.330 C 
ATOM     37  O   8HY d   1      13.693   9.351   1.742  0.00  0.00    -0.246 OA
ATOM     38  N2  8HY d   1      15.184   9.280   3.440  0.00  0.00    -0.284 N 
ATOM     39  C17 8HY d   1      16.002   8.470   4.344  0.00  0.00    -0.000 A 
ATOM     40  C24 8HY d   1      14.247  10.168   4.139  0.00  0.00    -0.000 A 
ATOM     41  C18 8HY d   1      15.520   8.899   5.696  0.00  0.00    -0.009 A 
ATOM     42  H10 8HY d   1      16.769   7.738   4.096  0.00  0.00     0.113 H 
ATOM     43  C23 8HY d   1      14.493   9.834   5.580  0.00  0.00    -0.009 A 
ATOM     44  C19 8HY d   1      15.969   8.512   6.956  0.00  0.00    -0.071 A 
ATOM     45  C22 8HY d   1      13.895  10.355   6.727  0.00  0.00    -0.071 A 
ATOM     46  C21 8HY d   1      14.339   9.963   7.979  0.00  0.00    -0.082 A 
ATOM     47  H13 8HY d   1      13.082  11.067   6.639  0.00  0.00     0.084 H 
ATOM     48  C20 8HY d   1      15.381   9.047   8.095  0.00  0.00    -0.082 A 
ATOM     49  H12 8HY d   1      13.874  10.370   8.870  0.00  0.00     0.083 H 
ATOM     50  H11 8HY d   1      15.734   8.751   9.076  0.00  0.00     0.083 H 
ATOM     51  H23 8HY d   1      16.776   7.794   7.048  0.00  0.00     0.084 H 
ATOM     52  H14 8HY d   1      13.548  10.889   3.717  0.00  0.00     0.113 H 
ATOM     53  H22 8HY d   1      16.180   7.483   2.268  0.00  0.00     0.170 HD
ENDBRANCH   6  35
TORSDOF 6
