REMARK  6 active torsions:
REMARK  status: ('A' for Active; 'I' for Inactive)
REMARK       I    between atoms: N1_1  and  C13_8 
REMARK    1  A    between atoms: C12_21  and  N1_1 
REMARK    2  A    between atoms: C9_24  and  C6_4 
REMARK       I    between atoms: C13_8  and  N2_19 
REMARK       I    between atoms: N_25  and  C3_26 
REMARK    3  A    between atoms: C3_26  and  C1_28 
REMARK    4  A    between atoms: C1_28  and  O_29 
REMARK    5  A    between atoms: C1_28  and  C2_30 
REMARK    6  A    between atoms: C1_28  and  C_31 
ROOT
ATOM      1  C10 8HV d   1      16.067   4.832  -0.321  0.00  0.00    -0.074 A 
ATOM      2  C22 8HV d   1      14.339   6.994  -0.344  0.00  0.00    -0.057 A 
ATOM      3  C12 8HV d   1      15.327   6.910   0.639  0.00  0.00     0.036 A 
ATOM      4  C11 8HV d   1      16.221   5.843   0.609  0.00  0.00    -0.057 A 
ATOM      5  C23 8HV d   1      14.214   5.991  -1.292  0.00  0.00    -0.074 A 
ATOM      6  C9  8HV d   1      15.055   4.878  -1.275  0.00  0.00    -0.054 A 
ATOM      7  H11 8HV d   1      16.747   3.988  -0.307  0.00  0.00     0.084 H 
ATOM      8  H14 8HV d   1      13.668   7.845  -0.366  0.00  0.00     0.086 H 
ATOM      9  H18 8HV d   1      17.041   5.805   1.317  0.00  0.00     0.086 H 
ATOM     10  H19 8HV d   1      13.451   6.072  -2.058  0.00  0.00     0.084 H 
ENDROOT
BRANCH   6  11
ATOM     11  C6  8HV d   1      14.862   3.717  -2.225  0.00  0.00    -0.026 C 
ATOM     12  C5  8HV d   1      15.440   3.979  -3.620  0.00  0.00    -0.043 C 
ATOM     13  C4  8HV d   1      15.218   2.773  -4.538  0.00  0.00    -0.002 C 
ATOM     14  H4  8HV d   1      14.945   4.859  -4.056  0.00  0.00     0.036 H 
ATOM     15  H5  8HV d   1      16.520   4.171  -3.532  0.00  0.00     0.036 H 
ATOM     16  N   8HV d   1      13.790   2.445  -4.625  0.00  0.00    -0.350 N 
ATOM     17  H2  8HV d   1      15.764   1.907  -4.135  0.00  0.00     0.064 H 
ATOM     18  H3  8HV d   1      15.596   3.010  -5.543  0.00  0.00     0.064 H 
ATOM     19  C8  8HV d   1      13.260   2.080  -3.302  0.00  0.00    -0.002 C 
ATOM     20  C3  8HV d   1      13.103   2.529  -5.781  0.00  0.00     0.253 C 
ATOM     21  C7  8HV d   1      13.402   3.246  -2.328  0.00  0.00    -0.043 C 
ATOM     22  H9  8HV d   1      12.196   1.817  -3.398  0.00  0.00     0.064 H 
ATOM     23  H10 8HV d   1      13.818   1.215  -2.915  0.00  0.00     0.064 H 
ATOM     24  H7  8HV d   1      12.780   4.083  -2.679  0.00  0.00     0.036 H 
ATOM     25  H8  8HV d   1      13.059   2.925  -1.333  0.00  0.00     0.036 H 
ATOM     26  O1  8HV d   1      13.650   2.887  -6.809  0.00  0.00    -0.270 OA
ATOM     27  H6  8HV d   1      15.433   2.878  -1.800  0.00  0.00     0.047 H 
BRANCH  20  28
ATOM     28  C1  8HV d   1      11.620   2.201  -5.986  0.00  0.00     0.131 C 
BRANCH  28  29
ATOM     29  O   8HV d   1      11.214   1.089  -5.177  0.00  0.00    -0.381 OA
ATOM     30  H20 8HV d   1      11.728   0.325  -5.410  0.00  0.00     0.211 HD
ENDBRANCH  28  29
BRANCH  28  31
ATOM     31  C2  8HV d   1      10.789   3.421  -5.604  0.00  0.00    -0.040 C 
ATOM     32  H21 8HV d   1       9.722   3.197  -5.747  0.00  0.00     0.032 H 
ATOM     33  H22 8HV d   1      11.074   4.272  -6.240  0.00  0.00     0.032 H 
ATOM     34  H23 8HV d   1      10.972   3.674  -4.549  0.00  0.00     0.032 H 
ENDBRANCH  28  31
BRANCH  28  35
ATOM     35  C   8HV d   1      11.387   1.804  -7.444  0.00  0.00    -0.040 C 
ATOM     36  H24 8HV d   1      10.323   1.568  -7.594  0.00  0.00     0.032 H 
ATOM     37  H25 8HV d   1      11.996   0.920  -7.685  0.00  0.00     0.032 H 
ATOM     38  H26 8HV d   1      11.674   2.638  -8.101  0.00  0.00     0.032 H 
ENDBRANCH  28  35
ENDBRANCH  20  28
ENDBRANCH   6  11
BRANCH   3  39
ATOM     39  N1  8HV d   1      15.480   7.794   1.735  0.00  0.00    -0.308 N 
ATOM     40  C13 8HV d   1      14.660   8.813   2.135  0.00  0.00     0.330 C 
ATOM     41  N2  8HV d   1      14.960   9.362   3.344  0.00  0.00    -0.284 N 
ATOM     42  O2  8HV d   1      13.638   9.134   1.540  0.00  0.00    -0.246 OA
ATOM     43  C21 8HV d   1      14.016  10.232   4.047  0.00  0.00    -0.000 C 
ATOM     44  C14 8HV d   1      15.911   8.709   4.251  0.00  0.00    -0.000 C 
ATOM     45  C20 8HV d   1      14.247   9.871   5.482  0.00  0.00    -0.005 A 
ATOM     46  H13 8HV d   1      13.320  10.959   3.631  0.00  0.00     0.113 H 
ATOM     47  C15 8HV d   1      15.350   9.030   5.609  0.00  0.00    -0.008 A 
ATOM     48  C19 8HV d   1      13.588  10.347   6.610  0.00  0.00    -0.034 A 
ATOM     49  C16 8HV d   1      15.801   8.666   6.880  0.00  0.00    -0.068 A 
ATOM     50  C17 8HV d   1      15.166   9.163   8.018  0.00  0.00    -0.045 A 
ATOM     51  H15 8HV d   1      16.647   7.996   6.982  0.00  0.00     0.085 H 
ATOM     52  C18 8HV d   1      14.067   9.989   7.844  0.00  0.00     0.117 A 
ATOM     53  H12 8HV d   1      15.522   8.910   9.010  0.00  0.00     0.088 H 
ATOM     54  F   8HV d   1      13.434  10.490   8.949  0.00  0.00    -0.206 F 
ATOM     55  H16 8HV d   1      12.717  10.985   6.516  0.00  0.00     0.089 H 
ATOM     56  H17 8HV d   1      16.802   8.134   4.002  0.00  0.00     0.113 H 
ATOM     57  H1  8HV d   1      16.299   7.654   2.292  0.00  0.00     0.170 HD
ENDBRANCH   3  39
TORSDOF 6
