REMARK  5 active torsions:
REMARK  status: ('A' for Active; 'I' for Inactive)
REMARK    1  A    between atoms: CA_1  and  CG1_15 
REMARK    2  A    between atoms: CA6_7  and  OA6_8 
REMARK    3  A    between atoms: CG1_15  and  CB1_9 
REMARK    4  A    between atoms: CG1_15  and  CG2_16 
REMARK    5  A    between atoms: CG2_16  and  CG3_17 
ROOT
ATOM      1  CA  UIN d   1      -0.313  18.028  20.755  0.00  0.00     0.060 A 
ATOM      2  CA2 UIN d   1      -1.445  17.570  21.495  0.00  0.00     0.297 A 
ATOM      3  OA2 UIN d   1      -1.689  16.387  21.606  0.00  0.00    -0.259 OA
ATOM      4  OA3 UIN d   1      -2.337  18.427  22.068  0.00  0.00    -0.279 OA
ATOM      5  CA4 UIN d   1      -2.088  19.793  21.882  0.00  0.00     0.066 A 
ATOM      6  CA5 UIN d   1      -0.984  20.299  21.176  0.00  0.00     0.006 A 
ATOM      7  CA6 UIN d   1      -0.094  19.391  20.605  0.00  0.00     0.087 A 
ATOM      8  CD1 UIN d   1      -3.110  20.673  22.556  0.00  0.00    -0.020 C 
ATOM      9  CD2 UIN d   1      -4.207  21.245  21.689  0.00  0.00    -0.060 C 
ATOM     10  CD3 UIN d   1      -3.821  22.402  20.791  0.00  0.00    -0.065 C 
ATOM     11  CD4 UIN d   1      -2.919  22.061  19.604  0.00  0.00    -0.065 C 
ATOM     12  CD5 UIN d   1      -1.433  22.377  19.791  0.00  0.00    -0.061 C 
ATOM     13  CD6 UIN d   1      -0.777  21.786  21.016  0.00  0.00    -0.036 C 
ATOM     14  H13 UIN d   1      -2.572  21.518  23.009  0.00  0.00     0.043 H 
ATOM     15  H14 UIN d   1      -3.590  20.078  23.347  0.00  0.00     0.043 H 
ATOM     16  H15 UIN d   1      -4.583  20.435  21.048  0.00  0.00     0.033 H 
ATOM     17  H16 UIN d   1      -5.013  21.591  22.353  0.00  0.00     0.033 H 
ATOM     18  H17 UIN d   1      -4.747  22.842  20.393  0.00  0.00     0.033 H 
ATOM     19  H18 UIN d   1      -3.297  23.146  21.409  0.00  0.00     0.033 H 
ATOM     20  H19 UIN d   1      -3.014  20.983  19.406  0.00  0.00     0.033 H 
ATOM     21  H20 UIN d   1      -3.278  22.627  18.732  0.00  0.00     0.033 H 
ATOM     22  H21 UIN d   1      -0.896  22.001  18.908  0.00  0.00     0.033 H 
ATOM     23  H22 UIN d   1      -1.327  23.470  19.847  0.00  0.00     0.033 H 
ATOM     24  H23 UIN d   1       0.304  21.979  20.954  0.00  0.00     0.040 H 
ATOM     25  H24 UIN d   1      -1.189  22.289  21.904  0.00  0.00     0.040 H 
ENDROOT
BRANCH   1  26
ATOM     26  CG1 UIN d   1       0.706  17.067  20.132  0.00  0.00     0.005 C 
ATOM     27  H7  UIN d   1       1.556  17.700  19.837  0.00  0.00     0.055 H 
BRANCH  26  28
ATOM     28  CG2 UIN d   1       1.299  16.045  21.086  0.00  0.00    -0.057 C 
ATOM     29  H8  UIN d   1       1.742  15.235  20.489  0.00  0.00     0.033 H 
ATOM     30  H9  UIN d   1       0.485  15.641  21.706  0.00  0.00     0.033 H 
BRANCH  28  31
ATOM     31  CG3 UIN d   1       2.375  16.595  22.014  0.00  0.00    -0.076 C 
ATOM     32  H10 UIN d   1       2.745  15.789  22.665  0.00  0.00     0.027 H 
ATOM     33  H11 UIN d   1       1.950  17.400  22.632  0.00  0.00     0.027 H 
ATOM     34  H12 UIN d   1       3.207  16.993  21.415  0.00  0.00     0.027 H 
ENDBRANCH  28  31
ENDBRANCH  26  28
BRANCH  26  35
ATOM     35  CB1 UIN d   1       0.185  16.470  18.847  0.00  0.00    -0.049 A 
ATOM     36  CB6 UIN d   1       0.013  15.053  18.730  0.00  0.00    -0.076 A 
ATOM     37  CB5 UIN d   1      -0.525  14.523  17.556  0.00  0.00    -0.082 A 
ATOM     38  H6  UIN d   1       0.298  14.398  19.546  0.00  0.00     0.084 H 
ATOM     39  CB4 UIN d   1      -0.877  15.368  16.489  0.00  0.00    -0.083 A 
ATOM     40  H5  UIN d   1      -0.672  13.453  17.466  0.00  0.00     0.083 H 
ATOM     41  CB3 UIN d   1      -0.707  16.756  16.596  0.00  0.00    -0.082 A 
ATOM     42  H4  UIN d   1      -1.282  14.944  15.578  0.00  0.00     0.083 H 
ATOM     43  CB2 UIN d   1      -0.175  17.316  17.760  0.00  0.00    -0.076 A 
ATOM     44  H3  UIN d   1      -0.990  17.398  15.770  0.00  0.00     0.083 H 
ATOM     45  H2  UIN d   1      -0.037  18.389  17.835  0.00  0.00     0.084 H 
ENDBRANCH  26  35
ENDBRANCH   1  26
BRANCH   7  46
ATOM     46  OA6 UIN d   1       0.988  19.776  19.877  0.00  0.00    -0.359 OA
ATOM     47  H1  UIN d   1       0.699  20.280  19.125  0.00  0.00     0.217 HD
ENDBRANCH   7  46
TORSDOF 5
