REMARK  21 active torsions:
REMARK  status: ('A' for Active; 'I' for Inactive)
REMARK    1  A    between atoms: C2_1  and  C39_2 
REMARK    2  A    between atoms: C39_2  and  O40_3 
REMARK    3  A    between atoms: S8_9  and  C5_6 
REMARK    4  A    between atoms: N11_12  and  S8_9 
REMARK    5  A    between atoms: N11_12  and  C12_13 
REMARK    6  A    between atoms: C16_17  and  N11_12 
REMARK    7  A    between atoms: C12_13  and  C13_14 
REMARK    8  A    between atoms: C13_14  and  C14_15 
REMARK    9  A    between atoms: C13_14  and  C15_16 
REMARK   10  A    between atoms: C17_18  and  C16_17 
REMARK   11  A    between atoms: C17_18  and  O18_19 
REMARK   12  A    between atoms: C19_20  and  C17_18 
REMARK   13  A    between atoms: C19_20  and  N20_21 
REMARK   14  A    between atoms: C32_24  and  C19_20 
REMARK       I    between atoms: N20_21  and  C21_22 
REMARK   15  A    between atoms: C21_22  and  C51_31 
REMARK   16  A    between atoms: C38_30  and  C32_24 
REMARK   17  A    between atoms: C55_35  and  C58_37 
REMARK       I    between atoms: C58_37  and  N60_39 
REMARK   18  A    between atoms: N60_39  and  C61_40 
REMARK   19  A    between atoms: N60_39  and  C62_41 
REMARK   20  A    between atoms: C62_41  and  C63_42 
REMARK   21  A    between atoms: C65_44  and  C68_47 
ROOT
ATOM      1  C19 8HD d   1      15.103  23.003  16.983  0.00  0.00     0.042 C 
ATOM      2  H21 8HD d   1      16.040  22.536  16.646  0.00  0.00     0.077 H 
ENDROOT
BRANCH   1   3
ATOM      3  C17 8HD d   1      15.440  24.124  17.987  0.00  0.00     0.071 C 
ATOM      4  H19 8HD d   1      15.824  23.677  18.916  0.00  0.00     0.088 H 
BRANCH   3   5
ATOM      5  C16 8HD d   1      16.511  25.077  17.380  0.00  0.00     0.031 C 
ATOM      6  H17 8HD d   1      16.248  25.304  16.336  0.00  0.00     0.069 H 
ATOM      7  H18 8HD d   1      16.541  26.010  17.962  0.00  0.00     0.069 H 
BRANCH   5   8
ATOM      8  N11 8HD d   1      17.813  24.442  17.421  0.00  0.00    -0.304 N 
BRANCH   8   9
ATOM      9  S8  8HD d   1      18.484  24.029  15.980  0.00  0.00     0.260 S 
ATOM     10  O9  8HD d   1      17.355  23.860  15.049  0.00  0.00    -0.200 OA
ATOM     11  O10 8HD d   1      19.424  22.922  16.207  0.00  0.00    -0.200 OA
BRANCH   9  12
ATOM     12  C5  8HD d   1      19.446  25.394  15.422  0.00  0.00     0.079 A 
ATOM     13  C4  8HD d   1      20.836  25.345  15.560  0.00  0.00    -0.060 A 
ATOM     14  C3  8HD d   1      21.632  26.395  15.080  0.00  0.00    -0.073 A 
ATOM     15  H5  8HD d   1      21.301  24.491  16.040  0.00  0.00     0.085 H 
ATOM     16  C2  8HD d   1      21.001  27.482  14.481  0.00  0.00    -0.035 A 
ATOM     17  H4  8HD d   1      22.712  26.361  15.173  0.00  0.00     0.084 H 
ATOM     18  C7  8HD d   1      19.626  27.495  14.356  0.00  0.00    -0.073 A 
ATOM     19  C6  8HD d   1      18.841  26.456  14.801  0.00  0.00    -0.060 A 
ATOM     20  H7  8HD d   1      19.149  28.351  13.892  0.00  0.00     0.084 H 
ATOM     21  H6  8HD d   1      17.766  26.477  14.663  0.00  0.00     0.085 H 
BRANCH  16  22
ATOM     22  C39 8HD d   1      21.791  28.699  13.934  0.00  0.00     0.040 C 
ATOM     23  H1  8HD d   1      21.269  29.149  13.077  0.00  0.00     0.081 H 
ATOM     24  H2  8HD d   1      22.805  28.401  13.630  0.00  0.00     0.081 H 
BRANCH  22  25
ATOM     25  O40 8HD d   1      21.841  29.629  15.054  0.00  0.00    -0.396 OA
ATOM     26  H3  8HD d   1      22.315  30.410  14.794  0.00  0.00     0.209 HD
ENDBRANCH  22  25
ENDBRANCH  16  22
ENDBRANCH   9  12
ENDBRANCH   8   9
BRANCH   8  27
ATOM     27  C12 8HD d   1      18.794  24.762  18.455  0.00  0.00     0.008 C 
ATOM     28  H8  8HD d   1      18.816  25.853  18.590  0.00  0.00     0.066 H 
ATOM     29  H9  8HD d   1      19.782  24.414  18.120  0.00  0.00     0.066 H 
BRANCH  27  30
ATOM     30  C13 8HD d   1      18.474  24.097  19.832  0.00  0.00    -0.045 C 
ATOM     31  H10 8HD d   1      17.456  24.374  20.145  0.00  0.00     0.041 H 
BRANCH  30  32
ATOM     32  C14 8HD d   1      18.564  22.574  19.781  0.00  0.00    -0.072 C 
ATOM     33  H11 8HD d   1      18.330  22.160  20.773  0.00  0.00     0.028 H 
ATOM     34  H12 8HD d   1      19.582  22.276  19.490  0.00  0.00     0.028 H 
ATOM     35  H13 8HD d   1      17.844  22.189  19.044  0.00  0.00     0.028 H 
ENDBRANCH  30  32
BRANCH  30  36
ATOM     36  C15 8HD d   1      19.504  24.681  20.827  0.00  0.00    -0.072 C 
ATOM     37  H14 8HD d   1      19.417  25.777  20.843  0.00  0.00     0.028 H 
ATOM     38  H15 8HD d   1      20.519  24.398  20.512  0.00  0.00     0.028 H 
ATOM     39  H16 8HD d   1      19.308  24.283  21.834  0.00  0.00     0.028 H 
ENDBRANCH  30  36
ENDBRANCH  27  30
ENDBRANCH   8  27
ENDBRANCH   5   8
ENDBRANCH   3   5
BRANCH   3  40
ATOM     40  O18 8HD d   1      14.251  24.914  18.277  0.00  0.00    -0.392 OA
ATOM     41  H20 8HD d   1      13.928  25.304  17.473  0.00  0.00     0.210 HD
ENDBRANCH   3  40
ENDBRANCH   1   3
BRANCH   1  42
ATOM     42  N20 8HD d   1      14.248  22.004  17.670  0.00  0.00    -0.349 N 
ATOM     43  C21 8HD d   1      14.785  20.857  18.156  0.00  0.00     0.252 C 
ATOM     44  O22 8HD d   1      15.915  20.557  18.227  0.00  0.00    -0.268 OA
ATOM     45  H22 8HD d   1      13.269  22.177  17.776  0.00  0.00     0.163 HD
BRANCH  43  46
ATOM     46  C51 8HD d   1      13.738  19.845  18.656  0.00  0.00     0.033 C 
ATOM     47  C52 8HD d   1      13.889  19.196  19.871  0.00  0.00    -0.068 C 
ATOM     48  C53 8HD d   1      12.886  18.297  20.320  0.00  0.00    -0.081 C 
ATOM     49  H30 8HD d   1      14.770  19.374  20.477  0.00  0.00     0.085 H 
ATOM     50  C54 8HD d   1      11.789  18.039  19.526  0.00  0.00    -0.068 C 
ATOM     51  H31 8HD d   1      12.983  17.814  21.286  0.00  0.00     0.083 H 
ATOM     52  C55 8HD d   1      11.648  18.691  18.302  0.00  0.00     0.033 C 
ATOM     53  H32 8HD d   1      11.037  17.330  19.853  0.00  0.00     0.085 H 
ATOM     54  C56 8HD d   1      12.560  19.657  17.901  0.00  0.00    -0.052 C 
ATOM     55  H33 8HD d   1      12.370  20.259  17.020  0.00  0.00     0.086 H 
BRANCH  52  56
ATOM     56  C58 8HD d   1      10.403  18.536  17.454  0.00  0.00     0.253 C 
ATOM     57  O59 8HD d   1       9.442  19.198  17.815  0.00  0.00    -0.267 OA
ATOM     58  N60 8HD d   1      10.453  17.754  16.399  0.00  0.00    -0.345 N 
BRANCH  58  59
ATOM     59  C61 8HD d   1      11.676  17.044  15.981  0.00  0.00    -0.015 C 
ATOM     60  H34 8HD d   1      11.467  16.456  15.075  0.00  0.00     0.056 H 
ATOM     61  H35 8HD d   1      12.003  16.371  16.787  0.00  0.00     0.056 H 
ATOM     62  H36 8HD d   1      12.470  17.775  15.769  0.00  0.00     0.056 H 
ENDBRANCH  58  59
BRANCH  58  63
ATOM     63  C62 8HD d   1       9.197  17.493  15.647  0.00  0.00     0.058 C 
ATOM     64  H37 8HD d   1       8.337  17.566  16.329  0.00  0.00     0.077 H 
ATOM     65  H38 8HD d   1       9.232  16.485  15.208  0.00  0.00     0.077 H 
BRANCH  63  66
ATOM     66  C63 8HD d   1       9.061  18.522  14.545  0.00  0.00     0.163 C 
ATOM     67  N64 8HD d   1       8.844  19.813  14.754  0.00  0.00    -0.230 NA
ATOM     68  C65 8HD d   1       8.665  20.397  13.564  0.00  0.00     0.055 C 
ATOM     69  C66 8HD d   1       8.846  19.499  12.605  0.00  0.00     0.044 C 
ATOM     70  O67 8HD d   1       8.774  18.260  13.242  0.00  0.00    -0.304 OA
ATOM     71  H39 8HD d   1       9.015  19.689  11.546  0.00  0.00     0.126 H 
BRANCH  68  72
ATOM     72  C68 8HD d   1       8.748  21.761  13.479  0.00  0.00    -0.034 C 
ATOM     73  H40 8HD d   1       8.577  22.075  12.439  0.00  0.00     0.035 H 
ATOM     74  H41 8HD d   1       9.748  22.088  13.801  0.00  0.00     0.035 H 
ATOM     75  H42 8HD d   1       7.986  22.216  14.129  0.00  0.00     0.035 H 
ENDBRANCH  68  72
ENDBRANCH  63  66
ENDBRANCH  58  63
ENDBRANCH  52  56
ENDBRANCH  43  46
ENDBRANCH   1  42
BRANCH   1  76
ATOM     76  C32 8HD d   1      14.307  23.482  15.755  0.00  0.00    -0.020 C 
ATOM     77  H23 8HD d   1      14.902  24.210  15.185  0.00  0.00     0.043 H 
ATOM     78  H24 8HD d   1      13.366  23.951  16.079  0.00  0.00     0.043 H 
BRANCH  76  79
ATOM     79  C38 8HD d   1      14.008  22.273  14.891  0.00  0.00    -0.056 A 
ATOM     80  C33 8HD d   1      12.675  21.876  14.791  0.00  0.00    -0.077 A 
ATOM     81  C34 8HD d   1      12.378  20.672  14.084  0.00  0.00    -0.082 A 
ATOM     82  H25 8HD d   1      11.884  22.467  15.239  0.00  0.00     0.084 H 
ATOM     83  C35 8HD d   1      13.362  19.945  13.416  0.00  0.00    -0.083 A 
ATOM     84  H26 8HD d   1      11.356  20.312  14.066  0.00  0.00     0.083 H 
ATOM     85  C36 8HD d   1      14.680  20.401  13.492  0.00  0.00    -0.082 A 
ATOM     86  H27 8HD d   1      13.112  19.052  12.854  0.00  0.00     0.083 H 
ATOM     87  C37 8HD d   1      15.005  21.562  14.235  0.00  0.00    -0.077 A 
ATOM     88  H28 8HD d   1      15.464  19.859  12.976  0.00  0.00     0.083 H 
ATOM     89  H29 8HD d   1      16.034  21.897  14.292  0.00  0.00     0.084 H 
ENDBRANCH  76  79
ENDBRANCH   1  76
TORSDOF 21
