REMARK  6 active torsions:
REMARK  status: ('A' for Active; 'I' for Inactive)
REMARK    1  A    between atoms: C10_1  and  N11_19 
REMARK    2  A    between atoms: C13_2  and  N14_20 
REMARK    3  A    between atoms: C17_4  and  C18_14 
REMARK    4  A    between atoms: N07_17  and  C06_10 
REMARK    5  A    between atoms: C08_11  and  N07_17 
REMARK    6  A    between atoms: C18_14  and  O19_23 
ROOT
ATOM      1  C22 8MY d   1     -34.711  16.131  76.990  0.00  0.00    -0.055 A 
ATOM      2  C02 8MY d   1     -36.920  13.815  78.954  0.00  0.00     0.099 C 
ATOM      3  C03 8MY d   1     -35.662  14.445  78.378  0.00  0.00     0.044 A 
ATOM      4  C04 8MY d   1     -34.418  13.928  78.682  0.00  0.00    -0.061 A 
ATOM      5  C05 8MY d   1     -33.290  14.525  78.133  0.00  0.00    -0.055 A 
ATOM      6  C06 8MY d   1     -33.465  15.624  77.292  0.00  0.00     0.049 A 
ATOM      7  C23 8MY d   1     -35.820  15.527  77.539  0.00  0.00    -0.061 A 
ATOM      8  N01 8MY d   1     -37.871  13.368  79.363  0.00  0.00    -0.191 NA
ATOM      9  H2  8MY d   1     -34.816  16.988  76.334  0.00  0.00     0.087 H 
ATOM     10  H3  8MY d   1     -34.323  13.070  79.338  0.00  0.00     0.085 H 
ATOM     11  H4  8MY d   1     -32.298  14.146  78.353  0.00  0.00     0.087 H 
ATOM     12  H9  8MY d   1     -36.812  15.900  77.312  0.00  0.00     0.085 H 
ENDROOT
BRANCH   6  13
ATOM     13  N07 8MY d   1     -32.368  16.343  76.690  0.00  0.00    -0.188 N 
ATOM     14  H10 8MY d   1     -32.600  17.277  76.324  0.00  0.00     0.184 HD
BRANCH  13  15
ATOM     15  C08 8MY d   1     -31.016  15.945  76.531  0.00  0.00     0.731 A 
ATOM     16  N09 8MY d   1     -30.248  16.860  75.917  0.00  0.00    -0.045 NA
ATOM     17  C10 8MY d   1     -28.982  16.590  75.720  0.00  0.00     0.144 A 
ATOM     18  C12 8MY d   1     -28.475  15.360  76.158  0.00  0.00     0.008 A 
ATOM     19  C13 8MY d   1     -29.304  14.461  76.800  0.00  0.00     0.173 A 
ATOM     20  H5  8MY d   1     -27.432  15.114  75.993  0.00  0.00     0.095 H 
ATOM     21  N21 8MY d   1     -30.567  14.797  76.953  0.00  0.00    -0.043 NA
BRANCH  17  22
ATOM     22  N11 8MY d   1     -28.105  17.527  75.040  0.00  0.00    -0.383 N 
ATOM     23  H11 8MY d   1     -28.472  18.433  74.716  0.00  0.00     0.157 HD
ATOM     24  H12 8MY d   1     -27.116  17.285  74.882  0.00  0.00     0.157 HD
ENDBRANCH  17  22
BRANCH  19  25
ATOM     25  N14 8MY d   1     -28.827  13.280  77.195  0.00  0.00    -0.226 N 
ATOM     26  C15 8MY d   1     -29.565  12.277  77.619  0.00  0.00     0.008 A 
ATOM     27  C16 8MY d   1     -28.702  11.219  77.875  0.00  0.00    -0.038 A 
ATOM     28  H1  8MY d   1     -30.647  12.276  77.745  0.00  0.00     0.115 H 
ATOM     29  C17 8MY d   1     -27.429  11.631  77.557  0.00  0.00     0.080 A 
ATOM     30  H6  8MY d   1     -28.983  10.239  78.259  0.00  0.00     0.089 H 
ATOM     31  N20 8MY d   1     -27.514  12.897  77.132  0.00  0.00    -0.169 NA
BRANCH  29  32
ATOM     32  C18 8MY d   1     -26.163  10.783  77.670  0.00  0.00     0.058 C 
ATOM     33  H7  8MY d   1     -26.423   9.738  77.893  0.00  0.00     0.083 H 
ATOM     34  H8  8MY d   1     -25.510  11.176  78.463  0.00  0.00     0.083 H 
BRANCH  32  35
ATOM     35  O19 8MY d   1     -25.520  10.870  76.420  0.00  0.00    -0.395 OA
ATOM     36  H13 8MY d   1     -26.097  10.535  75.744  0.00  0.00     0.209 HD
ENDBRANCH  32  35
ENDBRANCH  29  32
ENDBRANCH  19  25
ENDBRANCH  13  15
ENDBRANCH   6  13
TORSDOF 6
