REMARK  11 active torsions:
REMARK  status: ('A' for Active; 'I' for Inactive)
REMARK    1  A    between atoms: O1_2  and  C1_1 
REMARK    2  A    between atoms: C1_1  and  C2_3 
REMARK    3  A    between atoms: PA_12  and  O1_2 
REMARK    4  A    between atoms: C3_5  and  C4_6 
REMARK    5  A    between atoms: C3_5  and  C5_7 
REMARK    6  A    between atoms: C5_7  and  C6_8 
REMARK    7  A    between atoms: C6_8  and  C7_9 
REMARK    8  A    between atoms: C8_10  and  C9_11 
REMARK    9  A    between atoms: C8_10  and  C10_14 
REMARK   10  A    between atoms: O3A_19  and  PA_12 
REMARK   11  A    between atoms: PB_13  and  O3A_19 
ROOT
ATOM      1  C2  LA6 d   1      -7.141  12.086 -19.643  0.00  0.00     0.120 C 
ATOM      2  F2  LA6 d   1      -6.144  11.264 -19.409  0.00  0.00    -0.208 F 
ATOM      3  C3  LA6 d   1      -7.881  12.524 -18.637  0.00  0.00    -0.047 C 
ENDROOT
BRANCH   3   4
ATOM      4  C4  LA6 d   1      -7.510  12.053 -17.265  0.00  0.00    -0.052 C 
ATOM      5  H3  LA6 d   1      -8.201  12.489 -16.528  0.00  0.00     0.033 H 
ATOM      6  H4  LA6 d   1      -6.482  12.368 -17.035  0.00  0.00     0.033 H 
ATOM      7  H5  LA6 d   1      -7.575  10.956 -17.224  0.00  0.00     0.033 H 
ENDBRANCH   3   4
BRANCH   3   8
ATOM      8  C5  LA6 d   1      -9.023  13.479 -18.958  0.00  0.00    -0.039 C 
ATOM      9  H6  LA6 d   1      -9.561  13.056 -19.819  0.00  0.00     0.040 H 
ATOM     10  H7  LA6 d   1      -8.567  14.438 -19.245  0.00  0.00     0.040 H 
BRANCH   8  11
ATOM     11  C6  LA6 d   1     -10.074  13.789 -17.884  0.00  0.00    -0.046 C 
ATOM     12  H8  LA6 d   1     -10.627  12.855 -17.706  0.00  0.00     0.039 H 
ATOM     13  H9  LA6 d   1     -10.752  14.540 -18.315  0.00  0.00     0.039 H 
BRANCH  11  14
ATOM     14  C7  LA6 d   1      -9.656  14.313 -16.519  0.00  0.00    -0.101 C 
ATOM     15  C8  LA6 d   1      -8.656  15.128 -16.134  0.00  0.00    -0.091 C 
ATOM     16  H10 LA6 d   1     -10.283  13.964 -15.700  0.00  0.00     0.077 H 
BRANCH  15  17
ATOM     17  C9  LA6 d   1      -7.634  15.742 -17.044  0.00  0.00    -0.055 C 
ATOM     18  H11 LA6 d   1      -6.942  16.360 -16.454  0.00  0.00     0.033 H 
ATOM     19  H12 LA6 d   1      -8.139  16.370 -17.792  0.00  0.00     0.033 H 
ATOM     20  H13 LA6 d   1      -7.071  14.946 -17.553  0.00  0.00     0.033 H 
ENDBRANCH  15  17
BRANCH  15  21
ATOM     21  C10 LA6 d   1      -8.569  15.424 -14.669  0.00  0.00    -0.055 C 
ATOM     22  H14 LA6 d   1      -9.382  14.904 -14.141  0.00  0.00     0.033 H 
ATOM     23  H15 LA6 d   1      -8.661  16.508 -14.508  0.00  0.00     0.033 H 
ATOM     24  H16 LA6 d   1      -7.600  15.077 -14.282  0.00  0.00     0.033 H 
ENDBRANCH  15  21
ENDBRANCH  11  14
ENDBRANCH   8  11
ENDBRANCH   3   8
BRANCH   1  25
ATOM     25  C1  LA6 d   1      -7.472  12.533 -21.046  0.00  0.00     0.080 C 
ATOM     26  H1  LA6 d   1      -8.414  13.101 -21.042  0.00  0.00     0.086 H 
ATOM     27  H2  LA6 d   1      -6.662  13.169 -21.434  0.00  0.00     0.086 H 
BRANCH  25  28
ATOM     28  O1  LA6 d   1      -7.610  11.380 -21.863  0.00  0.00    -0.283 OA
BRANCH  28  29
ATOM     29  PA  LA6 d   1      -8.904  11.125 -22.769  0.00  0.00     0.418 P 
ATOM     30  O1A LA6 d   1      -8.576   9.973 -23.697  0.00  0.00    -0.624 OA
ATOM     31  O2A LA6 d   1      -9.257  12.374 -23.533  0.00  0.00    -0.624 OA
BRANCH  29  32
ATOM     32  O3A LA6 d   1     -10.140  10.707 -21.819  0.00  0.00    -0.173 OA
BRANCH  32  33
ATOM     33  PB  LA6 d   1     -11.461   9.979 -22.386  0.00  0.00     0.431 P 
ATOM     34  O1B LA6 d   1     -12.409   9.839 -21.215  0.00  0.00    -0.616 OA
ATOM     35  O2B LA6 d   1     -11.112   8.615 -22.934  0.00  0.00    -0.616 OA
ATOM     36  O3B LA6 d   1     -12.059  10.831 -23.486  0.00  0.00    -0.616 OA
ENDBRANCH  32  33
ENDBRANCH  29  32
ENDBRANCH  28  29
ENDBRANCH  25  28
ENDBRANCH   1  25
TORSDOF 11
