REMARK  4 active torsions:
REMARK  status: ('A' for Active; 'I' for Inactive)
REMARK    1  A    between atoms: C2'_10  and  O2'_11 
REMARK    2  A    between atoms: C1'_12  and  N9_13 
REMARK    3  A    between atoms: C2'1_32  and  O2'1_33 
REMARK    4  A    between atoms: C1'1_34  and  N91_35 
ROOT
ATOM      1  P   2BA d   1     114.751  76.983   0.780  0.00  0.00     0.408 P 
ATOM      2  O1P 2BA d   1     114.080  77.017  -0.553  0.00  0.00    -0.624 OA
ATOM      3  O2P 2BA d   1     115.873  77.949   1.085  0.00  0.00    -0.624 OA
ATOM      4  O5' 2BA d   1     113.589  77.132   1.890  0.00  0.00    -0.287 OA
ATOM      5  C5' 2BA d   1     113.859  77.758   3.138  0.00  0.00     0.058 C 
ATOM      6  C4' 2BA d   1     114.018  76.695   4.231  0.00  0.00     0.090 C 
ATOM      7  O4' 2BA d   1     114.426  77.355   5.444  0.00  0.00    -0.353 OA
ATOM      8  C3' 2BA d   1     112.746  75.938   4.566  0.00  0.00     0.106 C 
ATOM      9  O3' 2BA d   1     113.096  74.613   4.998  0.00  0.00    -0.279 OA
ATOM     10  C2' 2BA d   1     112.259  76.707   5.779  0.00  0.00     0.106 C 
ATOM     11  C1' 2BA d   1     113.572  76.948   6.507  0.00  0.00     0.140 C 
ATOM     12  P1  2BA d   1     112.472  73.272   4.343  0.00  0.00     0.408 P 
ATOM     13  O1P 2BA d   1     112.966  72.141   5.194  0.00  0.00    -0.624 OA
ATOM     14  O2P 2BA d   1     111.000  73.493   4.112  0.00  0.00    -0.624 OA
ATOM     15  O5' 2BA d   1     113.135  73.178   2.879  0.00  0.00    -0.287 OA
ATOM     16  C5' 2BA d   1     114.553  73.076   2.836  0.00  0.00     0.058 C 
ATOM     17  C4' 2BA d   1     115.029  73.156   1.396  0.00  0.00     0.090 C 
ATOM     18  O4' 2BA d   1     114.519  72.072   0.625  0.00  0.00    -0.353 OA
ATOM     19  C3' 2BA d   1     114.537  74.372   0.643  0.00  0.00     0.106 C 
ATOM     20  O3' 2BA d   1     115.321  75.505   1.017  0.00  0.00    -0.279 OA
ATOM     21  C2' 2BA d   1     114.718  73.943  -0.805  0.00  0.00     0.106 C 
ATOM     22  C1' 2BA d   1     114.741  72.426  -0.743  0.00  0.00     0.140 C 
ATOM     23  H1  2BA d   1     113.026  78.427   3.398  0.00  0.00     0.079 H 
ATOM     24  H2  2BA d   1     114.788  78.342   3.060  0.00  0.00     0.079 H 
ATOM     25  H3  2BA d   1     114.787  75.977   3.911  0.00  0.00     0.090 H 
ATOM     26  H4  2BA d   1     112.021  75.921   3.739  0.00  0.00     0.092 H 
ATOM     27  H5  2BA d   1     111.799  77.663   5.487  0.00  0.00     0.093 H 
ATOM     28  H7  2BA d   1     113.910  76.006   6.963  0.00  0.00     0.122 H 
ATOM     29  H12 2BA d   1     114.864  72.115   3.271  0.00  0.00     0.079 H 
ATOM     30  H13 2BA d   1     114.996  73.900   3.414  0.00  0.00     0.079 H 
ATOM     31  H14 2BA d   1     116.129  73.141   1.397  0.00  0.00     0.090 H 
ATOM     32  H15 2BA d   1     113.478  74.579   0.855  0.00  0.00     0.092 H 
ATOM     33  H16 2BA d   1     113.908  74.319  -1.447  0.00  0.00     0.093 H 
ATOM     34  H18 2BA d   1     115.720  72.063  -1.090  0.00  0.00     0.122 H 
ENDROOT
BRANCH  11  35
ATOM     35  N9  2BA d   1     113.636  78.016   7.542  0.00  0.00    -0.294 N 
ATOM     36  C8  2BA d   1     114.787  78.559   8.001  0.00  0.00     0.071 A 
ATOM     37  N7  2BA d   1     114.547  79.491   8.963  0.00  0.00    -0.236 NA
ATOM     38  H8  2BA d   1     115.779  78.285   7.646  0.00  0.00     0.144 H 
ATOM     39  C5  2BA d   1     113.209  79.531   9.122  0.00  0.00     0.149 A 
ATOM     40  C6  2BA d   1     112.281  80.291   9.983  0.00  0.00     0.155 A 
ATOM     41  C4  2BA d   1     112.620  78.552   8.205  0.00  0.00     0.167 A 
ATOM     42  N6  2BA d   1     112.762  81.209  10.855  0.00  0.00    -0.382 N 
ATOM     43  N1  2BA d   1     110.957  80.044   9.863  0.00  0.00    -0.222 NA
ATOM     44  H9  2BA d   1     112.114  81.739  11.455  0.00  0.00     0.157 HD
ATOM     45  H10 2BA d   1     113.776  81.378  10.918  0.00  0.00     0.157 HD
ATOM     46  C2  2BA d   1     110.490  79.136   8.987  0.00  0.00     0.091 A 
ATOM     47  N3  2BA d   1     111.277  78.408   8.171  0.00  0.00    -0.222 NA
ATOM     48  H11 2BA d   1     109.418  78.981   8.935  0.00  0.00     0.146 H 
ENDBRANCH  11  35
BRANCH  10  49
ATOM     49  O2' 2BA d   1     111.292  75.943   6.520  0.00  0.00    -0.388 OA
ATOM     50  H6  2BA d   1     111.003  76.445   7.273  0.00  0.00     0.210 HD
ENDBRANCH  10  49
BRANCH  21  51
ATOM     51  O2' 2BA d   1     115.994  74.387  -1.275  0.00  0.00    -0.388 OA
ATOM     52  H17 2BA d   1     116.108  74.119  -2.179  0.00  0.00     0.210 HD
ENDBRANCH  21  51
BRANCH  22  53
ATOM     53  N91 2BA d   1     113.675  71.767  -1.517  0.00  0.00    -0.294 N 
ATOM     54  C81 2BA d   1     112.365  72.077  -1.524  0.00  0.00     0.071 A 
ATOM     55  N71 2BA d   1     111.677  71.237  -2.327  0.00  0.00    -0.236 NA
ATOM     56  H19 2BA d   1     111.920  72.895  -0.959  0.00  0.00     0.144 H 
ATOM     57  C51 2BA d   1     112.573  70.378  -2.850  0.00  0.00     0.149 A 
ATOM     58  C61 2BA d   1     112.511  69.246  -3.783  0.00  0.00     0.155 A 
ATOM     59  C41 2BA d   1     113.885  70.730  -2.310  0.00  0.00     0.167 A 
ATOM     60  N61 2BA d   1     111.335  68.858  -4.319  0.00  0.00    -0.382 N 
ATOM     61  N11 2BA d   1     113.671  68.614  -4.068  0.00  0.00    -0.222 NA
ATOM     62  H20 2BA d   1     111.304  68.062  -4.972  0.00  0.00     0.157 HD
ATOM     63  H21 2BA d   1     110.468  69.358  -4.075  0.00  0.00     0.157 HD
ATOM     64  C21 2BA d   1     114.842  68.998  -3.520  0.00  0.00     0.091 A 
ATOM     65  N31 2BA d   1     114.980  70.030  -2.665  0.00  0.00    -0.222 NA
ATOM     66  H22 2BA d   1     115.732  68.439  -3.785  0.00  0.00     0.146 H 
ENDBRANCH  22  53
TORSDOF 4
