REMARK  14 active torsions:
REMARK  status: ('A' for Active; 'I' for Inactive)
REMARK    1  A    between atoms: C26_16  and  C28_5 
REMARK    2  A    between atoms: C10_6  and  C11_7 
REMARK    3  A    between atoms: C09_25  and  C10_6 
REMARK    4  A    between atoms: C15_9  and  C16_8 
REMARK       I    between atoms: C16_8  and  N17_27 
REMARK    5  A    between atoms: C19_13  and  C20_12 
REMARK    6  A    between atoms: C18_14  and  C19_13 
REMARK    7  A    between atoms: C18_14  and  C26_16 
REMARK    8  A    between atoms: N17_27  and  C18_14 
REMARK    9  A    between atoms: C26_16  and  O27_30 
REMARK   10  A    between atoms: C03_19  and  C04_20 
REMARK   11  A    between atoms: C03_19  and  C05_21 
REMARK   12  A    between atoms: N32_32  and  C33_33 
REMARK   13  A    between atoms: C33_33  and  C34_34 
REMARK   14  A    between atoms: N45_45  and  C46_46 
ROOT
ATOM      1  C18 8W4 d   1      -2.890 -17.834  33.544  0.00  0.00     0.043 C 
ATOM      2  H15 8W4 d   1      -2.458 -17.412  34.463  0.00  0.00     0.077 H 
ENDROOT
BRANCH   1   3
ATOM      3  C19 8W4 d   1      -3.981 -16.834  33.002  0.00  0.00    -0.020 C 
ATOM      4  H13 8W4 d   1      -4.619 -17.369  32.283  0.00  0.00     0.043 H 
ATOM      5  H14 8W4 d   1      -4.592 -16.491  33.850  0.00  0.00     0.043 H 
BRANCH   3   6
ATOM      6  C20 8W4 d   1      -3.398 -15.636  32.321  0.00  0.00    -0.056 A 
ATOM      7  C21 8W4 d   1      -3.636 -15.393  30.950  0.00  0.00    -0.077 A 
ATOM      8  C22 8W4 d   1      -3.106 -14.299  30.279  0.00  0.00    -0.082 A 
ATOM      9  H1  8W4 d   1      -4.258 -16.089  30.399  0.00  0.00     0.084 H 
ATOM     10  C23 8W4 d   1      -2.296 -13.387  30.928  0.00  0.00    -0.083 A 
ATOM     11  H29 8W4 d   1      -3.332 -14.158  29.228  0.00  0.00     0.083 H 
ATOM     12  C24 8W4 d   1      -2.037 -13.595  32.302  0.00  0.00    -0.082 A 
ATOM     13  H2  8W4 d   1      -1.873 -12.540  30.401  0.00  0.00     0.083 H 
ATOM     14  C25 8W4 d   1      -2.609 -14.714  32.971  0.00  0.00    -0.077 A 
ATOM     15  H16 8W4 d   1      -1.404 -12.903  32.846  0.00  0.00     0.083 H 
ATOM     16  H30 8W4 d   1      -2.416 -14.845  34.030  0.00  0.00     0.084 H 
ENDBRANCH   3   6
ENDBRANCH   1   3
BRANCH   1  17
ATOM     17  C26 8W4 d   1      -3.476 -19.235  33.922  0.00  0.00     0.091 C 
ATOM     18  H17 8W4 d   1      -3.763 -19.730  32.982  0.00  0.00     0.090 H 
BRANCH  17  19
ATOM     19  C28 8W4 d   1      -2.597 -20.198  34.696  0.00  0.00     0.204 C 
ATOM     20  N29 8W4 d   1      -3.335 -21.424  34.682  0.00  0.00    -0.058 N 
ATOM     21  C30 8W4 d   1      -2.665 -22.410  35.510  0.00  0.00     0.097 C 
ATOM     22  H32 8W4 d   1      -4.263 -21.260  35.041  0.00  0.00     0.278 HD
ATOM     23  H33 8W4 d   1      -3.396 -21.767  33.736  0.00  0.00     0.278 HD
ATOM     24  C31 8W4 d   1      -2.782 -21.996  36.953  0.00  0.00     0.020 C 
ATOM     25  H5  8W4 d   1      -3.137 -23.393  35.368  0.00  0.00     0.078 H 
ATOM     26  H6  8W4 d   1      -1.603 -22.469  35.228  0.00  0.00     0.078 H 
ATOM     27  N32 8W4 d   1      -2.452 -20.557  37.126  0.00  0.00    -0.344 N 
ATOM     28  H3  8W4 d   1      -2.088 -22.599  37.557  0.00  0.00     0.067 H 
ATOM     29  H4  8W4 d   1      -3.813 -22.172  37.295  0.00  0.00     0.067 H 
ATOM     30  C40 8W4 d   1      -2.323 -19.655  36.096  0.00  0.00     0.253 C 
ATOM     31  O41 8W4 d   1      -2.029 -18.483  36.306  0.00  0.00    -0.271 OA
ATOM     32  H7  8W4 d   1      -1.635 -20.338  34.182  0.00  0.00     0.103 H 
BRANCH  27  33
ATOM     33  C33 8W4 d   1      -2.221 -20.099  38.550  0.00  0.00     0.021 C 
ATOM     34  H34 8W4 d   1      -1.778 -19.092  38.549  0.00  0.00     0.071 H 
ATOM     35  H35 8W4 d   1      -1.541 -20.798  39.059  0.00  0.00     0.071 H 
BRANCH  33  36
ATOM     36  C34 8W4 d   1      -3.536 -20.071  39.255  0.00  0.00    -0.040 A 
ATOM     37  C35 8W4 d   1      -4.469 -19.077  38.960  0.00  0.00    -0.075 A 
ATOM     38  C36 8W4 d   1      -5.688 -19.060  39.593  0.00  0.00    -0.082 A 
ATOM     39  H36 8W4 d   1      -4.231 -18.314  38.228  0.00  0.00     0.084 H 
ATOM     40  C37 8W4 d   1      -6.060 -20.036  40.463  0.00  0.00    -0.083 A 
ATOM     41  H37 8W4 d   1      -6.373 -18.244  39.393  0.00  0.00     0.083 H 
ATOM     42  C38 8W4 d   1      -5.153 -21.044  40.732  0.00  0.00    -0.082 A 
ATOM     43  H38 8W4 d   1      -7.038 -20.024  40.931  0.00  0.00     0.083 H 
ATOM     44  C39 8W4 d   1      -3.907 -21.048  40.137  0.00  0.00    -0.075 A 
ATOM     45  H39 8W4 d   1      -5.423 -21.840  41.417  0.00  0.00     0.083 H 
ATOM     46  H40 8W4 d   1      -3.208 -21.842  40.374  0.00  0.00     0.084 H 
ENDBRANCH  33  36
ENDBRANCH  27  33
ENDBRANCH  17  19
BRANCH  17  47
ATOM     47  O27 8W4 d   1      -4.612 -19.037  34.714  0.00  0.00    -0.391 OA
ATOM     48  H31 8W4 d   1      -5.254 -18.536  34.225  0.00  0.00     0.210 HD
ENDBRANCH  17  47
ENDBRANCH   1  17
BRANCH   1  49
ATOM     49  N17 8W4 d   1      -1.867 -17.875  32.551  0.00  0.00    -0.349 N 
ATOM     50  C16 8W4 d   1      -0.568 -17.920  32.779  0.00  0.00     0.252 C 
ATOM     51  O42 8W4 d   1      -0.103 -17.884  33.944  0.00  0.00    -0.268 OA
ATOM     52  H28 8W4 d   1      -2.161 -17.869  31.595  0.00  0.00     0.163 HD
BRANCH  50  53
ATOM     53  C15 8W4 d   1       0.319 -17.734  31.760  0.00  0.00     0.035 A 
ATOM     54  C14 8W4 d   1       0.096 -16.794  30.759  0.00  0.00    -0.055 A 
ATOM     55  C13 8W4 d   1       1.076 -16.522  29.790  0.00  0.00     0.002 A 
ATOM     56  H27 8W4 d   1      -0.849 -16.263  30.726  0.00  0.00     0.086 H 
ATOM     57  C12 8W4 d   1       2.348 -17.158  29.894  0.00  0.00     0.073 A 
ATOM     58  C09 8W4 d   1       1.147 -15.630  28.632  0.00  0.00    -0.030 A 
ATOM     59  N07 8W4 d   1       3.153 -16.689  28.800  0.00  0.00    -0.352 N 
ATOM     60  C44 8W4 d   1       2.601 -18.053  30.963  0.00  0.00     0.073 A 
ATOM     61  C06 8W4 d   1       4.521 -16.920  28.485  0.00  0.00     0.021 C 
ATOM     62  C08 8W4 d   1       2.398 -15.763  28.084  0.00  0.00    -0.013 A 
ATOM     63  C03 8W4 d   1       5.278 -18.173  28.658  0.00  0.00     0.092 C 
ATOM     64  H24 8W4 d   1       4.607 -16.684  27.414  0.00  0.00     0.067 H 
ATOM     65  H25 8W4 d   1       5.075 -16.172  29.071  0.00  0.00     0.067 H 
ATOM     66  S02 8W4 d   1       4.435 -19.465  29.538  0.00  0.00     0.242 S 
ATOM     67  O01 8W4 d   1       3.335 -19.845  28.670  0.00  0.00    -0.205 OA
ATOM     68  N45 8W4 d   1       3.783 -18.736  30.952  0.00  0.00    -0.277 N 
ATOM     69  O47 8W4 d   1       5.314 -20.472  29.801  0.00  0.00    -0.205 OA
ATOM     70  H26 8W4 d   1       2.752 -15.219  27.209  0.00  0.00     0.112 H 
ATOM     71  C43 8W4 d   1       1.588 -18.329  31.871  0.00  0.00    -0.039 A 
ATOM     72  H41 8W4 d   1       1.780 -19.019  32.684  0.00  0.00     0.088 H 
BRANCH  63  73
ATOM     73  C04 8W4 d   1       5.668 -18.570  27.244  0.00  0.00    -0.053 C 
ATOM     74  H18 8W4 d   1       6.184 -17.730  26.756  0.00  0.00     0.029 H 
ATOM     75  H19 8W4 d   1       4.764 -18.827  26.673  0.00  0.00     0.029 H 
ATOM     76  H20 8W4 d   1       6.339 -19.441  27.279  0.00  0.00     0.029 H 
ENDBRANCH  63  73
BRANCH  63  77
ATOM     77  C05 8W4 d   1       6.613 -17.857  29.299  0.00  0.00    -0.053 C 
ATOM     78  H21 8W4 d   1       7.111 -17.055  28.734  0.00  0.00     0.029 H 
ATOM     79  H22 8W4 d   1       7.245 -18.757  29.292  0.00  0.00     0.029 H 
ATOM     80  H23 8W4 d   1       6.453 -17.529  30.337  0.00  0.00     0.029 H 
ENDBRANCH  63  77
BRANCH  68  81
ATOM     81  C46 8W4 d   1       4.573 -19.007  32.176  0.00  0.00    -0.004 C 
ATOM     82  H42 8W4 d   1       4.098 -18.512  33.036  0.00  0.00     0.058 H 
ATOM     83  H43 8W4 d   1       5.594 -18.619  32.047  0.00  0.00     0.058 H 
ATOM     84  H44 8W4 d   1       4.613 -20.092  32.354  0.00  0.00     0.058 H 
ENDBRANCH  68  81
BRANCH  58  85
ATOM     85  C10 8W4 d   1       0.165 -14.836  28.177  0.00  0.00    -0.042 C 
ATOM     86  H8  8W4 d   1      -0.241 -14.272  29.029  0.00  0.00     0.039 H 
ATOM     87  H9  8W4 d   1       0.601 -14.136  27.448  0.00  0.00     0.039 H 
BRANCH  85  88
ATOM     88  C11 8W4 d   1      -0.983 -15.566  27.503  0.00  0.00    -0.073 C 
ATOM     89  H10 8W4 d   1      -1.734 -14.836  27.166  0.00  0.00     0.028 H 
ATOM     90  H11 8W4 d   1      -1.444 -16.263  28.218  0.00  0.00     0.028 H 
ATOM     91  H12 8W4 d   1      -0.603 -16.128  26.637  0.00  0.00     0.028 H 
ENDBRANCH  85  88
ENDBRANCH  58  85
ENDBRANCH  50  53
ENDBRANCH   1  49
TORSDOF 14
