REMARK  6 active torsions:
REMARK  status: ('A' for Active; 'I' for Inactive)
REMARK    1  A    between atoms: N20_20  and  C6_6 
REMARK    2  A    between atoms: S23_23  and  C9_9 
REMARK    3  A    between atoms: C11_11  and  N19_19 
REMARK    4  A    between atoms: C14_14  and  C12_12 
REMARK       I    between atoms: C12_12  and  N20_20 
REMARK    5  A    between atoms: N17_17  and  C13_13 
REMARK    6  A    between atoms: C14_14  and  S23_23 
ROOT
ATOM      1  C7  8Y4 d   1     -18.296   9.208 103.747  0.00  0.00     0.172 A 
ATOM      2  C8  8Y4 d   1     -17.877   8.860 104.999  0.00  0.00     0.159 A 
ATOM      3  C9  8Y4 d   1     -19.719   7.795 104.435  0.00  0.00     0.171 A 
ATOM      4  C10 8Y4 d   1     -17.530  10.166 103.010  0.00  0.00     0.292 A 
ATOM      5  C11 8Y4 d   1     -16.093  10.170 105.026  0.00  0.00     0.680 A 
ATOM      6  N15 8Y4 d   1     -19.445   8.547 103.386  0.00  0.00    -0.215 NA
ATOM      7  N16 8Y4 d   1     -16.801   9.298 105.688  0.00  0.00    -0.174 N 
ATOM      8  N17 8Y4 d   1     -18.794   7.953 105.426  0.00  0.00    -0.314 N 
ATOM      9  N18 8Y4 d   1     -16.433  10.587 103.733  0.00  0.00    -0.154 N 
ATOM     10  O21 8Y4 d   1     -17.799  10.572 101.887  0.00  0.00    -0.265 OA
ATOM     11  H11 8Y4 d   1     -16.564   8.977 106.638  0.00  0.00     0.186 HD
ATOM     12  H12 8Y4 d   1     -15.826  11.250 103.294  0.00  0.00     0.187 HD
ENDROOT
BRANCH   3  13
ATOM     13  S23 8Y4 d   1     -21.071   6.711 104.629  0.00  0.00    -0.082 SA
BRANCH  13  14
ATOM     14  C14 8Y4 d   1     -22.130   7.079 103.199  0.00  0.00     0.058 C 
ATOM     15  H9  8Y4 d   1     -23.182   7.040 103.517  0.00  0.00     0.064 H 
ATOM     16  H10 8Y4 d   1     -21.895   8.090 102.834  0.00  0.00     0.064 H 
BRANCH  14  17
ATOM     17  C12 8Y4 d   1     -21.925   6.098 102.077  0.00  0.00     0.231 C 
ATOM     18  N20 8Y4 d   1     -23.019   6.142 101.221  0.00  0.00    -0.327 N 
ATOM     19  H15 8Y4 d   1     -23.631   6.929 101.298  0.00  0.00     0.169 HD
ATOM     20  O22 8Y4 d   1     -20.924   5.395 101.964  0.00  0.00    -0.272 OA
BRANCH  18  21
ATOM     21  C6  8Y4 d   1     -23.339   5.155 100.241  0.00  0.00     0.034 A 
ATOM     22  C4  8Y4 d   1     -22.824   3.862 100.242  0.00  0.00    -0.057 A 
ATOM     23  C2  8Y4 d   1     -23.192   2.970  99.250  0.00  0.00    -0.081 A 
ATOM     24  H4  8Y4 d   1     -22.135   3.554 101.020  0.00  0.00     0.086 H 
ATOM     25  C1  8Y4 d   1     -24.066   3.348  98.253  0.00  0.00    -0.083 A 
ATOM     26  H2  8Y4 d   1     -22.789   1.964  99.257  0.00  0.00     0.083 H 
ATOM     27  C3  8Y4 d   1     -24.583   4.628  98.255  0.00  0.00    -0.081 A 
ATOM     28  H1  8Y4 d   1     -24.345   2.647  97.475  0.00  0.00     0.083 H 
ATOM     29  C5  8Y4 d   1     -24.225   5.529  99.239  0.00  0.00    -0.057 A 
ATOM     30  H3  8Y4 d   1     -25.276   4.929  97.478  0.00  0.00     0.083 H 
ATOM     31  H5  8Y4 d   1     -24.637   6.532  99.229  0.00  0.00     0.086 H 
ENDBRANCH  18  21
ENDBRANCH  14  17
ENDBRANCH  13  14
ENDBRANCH   3  13
BRANCH   8  32
ATOM     32  C13 8Y4 d   1     -18.749   7.317 106.727  0.00  0.00    -0.010 C 
ATOM     33  H6  8Y4 d   1     -17.865   7.671 107.278  0.00  0.00     0.057 H 
ATOM     34  H7  8Y4 d   1     -18.689   6.226 106.600  0.00  0.00     0.057 H 
ATOM     35  H8  8Y4 d   1     -19.659   7.571 107.291  0.00  0.00     0.057 H 
ENDBRANCH   8  32
BRANCH   5  36
ATOM     36  N19 8Y4 d   1     -14.953  10.742 105.554  0.00  0.00    -0.234 N 
ATOM     37  H13 8Y4 d   1     -14.639  10.485 106.501  0.00  0.00     0.174 HD
ATOM     38  H14 8Y4 d   1     -14.416  11.426 105.001  0.00  0.00     0.174 HD
ENDBRANCH   5  36
TORSDOF 6
