REMARK  5 active torsions:
REMARK  status: ('A' for Active; 'I' for Inactive)
REMARK    1  A    between atoms: S17_17  and  C3_3 
REMARK    2  A    between atoms: C5_5  and  N13_13 
REMARK    3  A    between atoms: C8_8  and  C6_6 
REMARK    4  A    between atoms: N11_11  and  C7_7 
REMARK    5  A    between atoms: C8_8  and  S17_17 
ROOT
ATOM      1  C1  8Y7 d   1     -17.503   8.736 103.579  0.00  0.00     0.172 A 
ATOM      2  C2  8Y7 d   1     -17.128   8.453 104.862  0.00  0.00     0.159 A 
ATOM      3  C3  8Y7 d   1     -18.950   7.351 104.281  0.00  0.00     0.171 A 
ATOM      4  C4  8Y7 d   1     -16.706   9.649 102.824  0.00  0.00     0.292 A 
ATOM      5  C5  8Y7 d   1     -15.355   9.774 104.881  0.00  0.00     0.680 A 
ATOM      6  N9  8Y7 d   1     -18.631   8.053 103.209  0.00  0.00    -0.215 NA
ATOM      7  N10 8Y7 d   1     -16.072   8.934 105.570  0.00  0.00    -0.174 N 
ATOM      8  N11 8Y7 d   1     -18.071   7.571 105.303  0.00  0.00    -0.314 N 
ATOM      9  N12 8Y7 d   1     -15.648  10.106 103.567  0.00  0.00    -0.154 N 
ATOM     10  O15 8Y7 d   1     -16.900  10.018 101.680  0.00  0.00    -0.265 OA
ATOM     11  H6  8Y7 d   1     -15.863   8.664 106.542  0.00  0.00     0.186 HD
ATOM     12  H7  8Y7 d   1     -15.024  10.744 103.115  0.00  0.00     0.187 HD
ENDROOT
BRANCH   3  13
ATOM     13  S17 8Y7 d   1     -20.292   6.253 104.496  0.00  0.00    -0.081 SA
BRANCH  13  14
ATOM     14  C8  8Y7 d   1     -21.286   6.421 102.985  0.00  0.00     0.064 C 
ATOM     15  H4  8Y7 d   1     -22.340   6.207 103.218  0.00  0.00     0.066 H 
ATOM     16  H5  8Y7 d   1     -21.196   7.449 102.603  0.00  0.00     0.066 H 
BRANCH  14  17
ATOM     17  C6  8Y7 d   1     -20.796   5.443 101.922  0.00  0.00     0.182 C 
ATOM     18  O14 8Y7 d   1     -19.854   4.646 102.189  0.00  0.00    -0.647 OA
ATOM     19  O16 8Y7 d   1     -21.433   5.575 100.845  0.00  0.00    -0.647 OA
ENDBRANCH  14  17
ENDBRANCH  13  14
ENDBRANCH   3  13
BRANCH   8  20
ATOM     20  C7  8Y7 d   1     -18.088   6.990 106.635  0.00  0.00    -0.010 C 
ATOM     21  H1  8Y7 d   1     -17.237   7.378 107.215  0.00  0.00     0.057 H 
ATOM     22  H2  8Y7 d   1     -18.011   5.895 106.559  0.00  0.00     0.057 H 
ATOM     23  H3  8Y7 d   1     -19.028   7.258 107.140  0.00  0.00     0.057 H 
ENDBRANCH   8  20
BRANCH   5  24
ATOM     24  N13 8Y7 d   1     -14.239  10.399 105.381  0.00  0.00    -0.234 N 
ATOM     25  H8  8Y7 d   1     -13.938  10.218 106.349  0.00  0.00     0.174 HD
ATOM     26  H9  8Y7 d   1     -13.703  11.049 104.788  0.00  0.00     0.174 HD
ENDBRANCH   5  24
TORSDOF 5
