REMARK  4 active torsions:
REMARK  status: ('A' for Active; 'I' for Inactive)
REMARK    1  A    between atoms: C2_2  and  C1_5 
REMARK    2  A    between atoms: C6_4  and  C8_10 
REMARK    3  A    between atoms: N16_16  and  C17_17 
REMARK    4  A    between atoms: C21_21  and  C23_23 
ROOT
ATOM      1  C17 96Y d   1     -23.146  37.465   0.538  0.00  0.00     0.151 A 
ATOM      2  C18 96Y d   1     -23.330  38.768   0.994  0.00  0.00    -0.037 A 
ATOM      3  C19 96Y d   1     -23.495  38.980   2.354  0.00  0.00    -0.077 A 
ATOM      4  C20 96Y d   1     -23.506  37.885   3.210  0.00  0.00    -0.058 A 
ATOM      5  C21 96Y d   1     -23.347  36.613   2.683  0.00  0.00     0.048 A 
ATOM      6  N22 96Y d   1     -23.185  36.440   1.382  0.00  0.00    -0.233 NA
ATOM      7  H9  96Y d   1     -23.344  39.600   0.299  0.00  0.00     0.089 H 
ATOM      8  H10 96Y d   1     -23.614  39.984   2.744  0.00  0.00     0.083 H 
ATOM      9  H11 96Y d   1     -23.637  38.024   4.277  0.00  0.00     0.086 H 
ENDROOT
BRANCH   1  10
ATOM     10  N16 96Y d   1     -23.023  37.243  -0.835  0.00  0.00    -0.215 N 
ATOM     11  C10 96Y d   1     -22.675  36.076  -1.461  0.00  0.00     0.076 A 
ATOM     12  C9  96Y d   1     -22.278  34.812  -1.040  0.00  0.00    -0.024 A 
ATOM     13  C11 96Y d   1     -22.774  36.313  -2.846  0.00  0.00     0.029 A 
ATOM     14  C8  96Y d   1     -21.999  33.867  -2.016  0.00  0.00     0.088 A 
ATOM     15  H1  96Y d   1     -22.190  34.574   0.014  0.00  0.00     0.090 H 
ATOM     16  N13 96Y d   1     -22.108  34.114  -3.314  0.00  0.00    -0.258 NA
ATOM     17  C12 96Y d   1     -22.469  35.292  -3.753  0.00  0.00     0.017 A 
ATOM     18  H7  96Y d   1     -22.532  35.477  -4.819  0.00  0.00     0.116 H 
ATOM     19  C14 96Y d   1     -23.211  37.691  -2.999  0.00  0.00     0.036 A 
ATOM     20  N15 96Y d   1     -23.361  38.187  -1.807  0.00  0.00    -0.177 NA
ATOM     21  H8  96Y d   1     -23.381  38.212  -3.940  0.00  0.00     0.118 H 
BRANCH  14  22
ATOM     22  C6  96Y d   1     -21.557  32.535  -1.612  0.00  0.00     0.103 A 
ATOM     23  C5  96Y d   1     -20.997  31.680  -2.565  0.00  0.00     0.032 A 
ATOM     24  N4  96Y d   1     -20.607  30.480  -2.181  0.00  0.00    -0.269 NA
ATOM     25  H6  96Y d   1     -20.886  31.996  -3.596  0.00  0.00     0.118 H 
ATOM     26  C3  96Y d   1     -20.729  30.099  -0.917  0.00  0.00     0.025 A 
ATOM     27  C2  96Y d   1     -21.285  30.953   0.018  0.00  0.00     0.049 A 
ATOM     28  H5  96Y d   1     -20.392  29.114  -0.615  0.00  0.00     0.117 H 
ATOM     29  N7  96Y d   1     -21.678  32.163  -0.346  0.00  0.00    -0.249 NA
BRANCH  27  30
ATOM     30  C1  96Y d   1     -21.441  30.513   1.450  0.00  0.00    -0.034 C 
ATOM     31  H2  96Y d   1     -21.062  29.486   1.561  0.00  0.00     0.035 H 
ATOM     32  H3  96Y d   1     -22.505  30.544   1.729  0.00  0.00     0.035 H 
ATOM     33  H4  96Y d   1     -20.870  31.188   2.105  0.00  0.00     0.035 H 
ENDBRANCH  27  30
ENDBRANCH  14  22
ENDBRANCH   1  10
BRANCH   5  34
ATOM     34  C23 96Y d   1     -23.386  35.430   3.615  0.00  0.00     0.074 C 
ATOM     35  C24 96Y d   1     -23.888  34.174   2.874  0.00  0.00     0.095 C 
ATOM     36  N25 96Y d   1     -23.969  33.041   3.806  0.00  0.00    -0.074 N 
ATOM     37  H13 96Y d   1     -23.190  33.927   2.060  0.00  0.00     0.077 H 
ATOM     38  H14 96Y d   1     -24.885  34.373   2.454  0.00  0.00     0.077 H 
ATOM     39  C26 96Y d   1     -22.634  32.704   4.317  0.00  0.00     0.087 C 
ATOM     40  H15 96Y d   1     -24.352  32.242   3.326  0.00  0.00     0.277 HD
ATOM     41  H16 96Y d   1     -24.568  33.288   4.578  0.00  0.00     0.277 HD
ATOM     42  C27 96Y d   1     -22.067  33.903   5.083  0.00  0.00     0.019 C 
ATOM     43  H17 96Y d   1     -21.970  32.458   3.475  0.00  0.00     0.075 H 
ATOM     44  H18 96Y d   1     -22.707  31.838   4.992  0.00  0.00     0.075 H 
ATOM     45  C28 96Y d   1     -22.002  35.149   4.185  0.00  0.00     0.255 C 
ATOM     46  H19 96Y d   1     -21.053  33.659   5.434  0.00  0.00     0.044 H 
ATOM     47  H20 96Y d   1     -22.713  34.116   5.947  0.00  0.00     0.044 H 
ATOM     48  F29 96Y d   1     -21.115  34.942   3.127  0.00  0.00    -0.205 F 
ATOM     49  F30 96Y d   1     -21.616  36.256   4.949  0.00  0.00    -0.205 F 
ATOM     50  H12 96Y d   1     -24.074  35.657   4.443  0.00  0.00     0.061 H 
ENDBRANCH   5  34
TORSDOF 4
