REMARK  6 active torsions:
REMARK  status: ('A' for Active; 'I' for Inactive)
REMARK    1  A    between atoms: C9_13  and  C8_5 
REMARK    2  A    between atoms: C10_6  and  O1_10 
REMARK    3  A    between atoms: N2_11  and  C17_9 
REMARK    4  A    between atoms: C16_17  and  N2_11 
REMARK    5  A    between atoms: N2_11  and  C18_18 
REMARK    6  A    between atoms: C11_14  and  C16_17 
ROOT
ATOM      1  C10 92Y d   1      21.019  -7.561   6.768  0.00  0.00     0.052 C 
ATOM      2  C13 92Y d   1      19.323  -8.085   4.339  0.00  0.00    -0.060 C 
ATOM      3  C15 92Y d   1      19.380  -9.224   6.377  0.00  0.00    -0.048 C 
ATOM      4  C9  92Y d   1      20.848  -8.939   6.031  0.00  0.00     0.013 C 
ATOM      5  C11 92Y d   1      19.610  -6.909   6.600  0.00  0.00    -0.001 C 
ATOM      6  C12 92Y d   1      18.823  -7.931   5.787  0.00  0.00    -0.046 C 
ATOM      7  C14 92Y d   1      20.719  -8.675   4.503  0.00  0.00    -0.051 C 
ATOM      8  H5  92Y d   1      21.249  -7.732   7.830  0.00  0.00     0.085 H 
ATOM      9  H6  92Y d   1      19.366  -7.110   3.832  0.00  0.00     0.033 H 
ATOM     10  H7  92Y d   1      18.673  -8.766   3.769  0.00  0.00     0.033 H 
ATOM     11  H8  92Y d   1      19.207  -9.306   7.460  0.00  0.00     0.035 H 
ATOM     12  H9  92Y d   1      18.992 -10.122   5.875  0.00  0.00     0.035 H 
ATOM     13  H16 92Y d   1      19.151  -6.840   7.597  0.00  0.00     0.047 H 
ATOM     14  H17 92Y d   1      17.734  -7.793   5.858  0.00  0.00     0.040 H 
ATOM     15  H18 92Y d   1      21.485  -7.962   4.165  0.00  0.00     0.034 H 
ATOM     16  H19 92Y d   1      20.815  -9.613   3.936  0.00  0.00     0.034 H 
ENDROOT
BRANCH   5  17
ATOM     17  C16 92Y d   1      19.587  -5.481   6.030  0.00  0.00     0.089 C 
ATOM     18  H20 92Y d   1      20.132  -5.449   5.075  0.00  0.00     0.076 H 
ATOM     19  H21 92Y d   1      18.548  -5.157   5.870  0.00  0.00     0.076 H 
BRANCH  17  20
ATOM     20  N2  92Y d   1      20.247  -4.595   7.020  0.00  0.00    -0.078 N 
ATOM     21  H14 92Y d   1      21.020  -5.109   7.414  0.00  0.00     0.278 HD
BRANCH  20  22
ATOM     22  C17 92Y d   1      19.366  -4.201   8.157  0.00  0.00     0.066 C 
ATOM     23  H10 92Y d   1      19.924  -3.548   8.844  0.00  0.00     0.068 H 
ATOM     24  H11 92Y d   1      19.036  -5.102   8.695  0.00  0.00     0.068 H 
ATOM     25  H12 92Y d   1      18.488  -3.662   7.771  0.00  0.00     0.068 H 
ENDBRANCH  20  22
BRANCH  20  26
ATOM     26  C18 92Y d   1      20.803  -3.406   6.323  0.00  0.00     0.066 C 
ATOM     27  H22 92Y d   1      21.293  -2.748   7.055  0.00  0.00     0.068 H 
ATOM     28  H23 92Y d   1      19.989  -2.859   5.825  0.00  0.00     0.068 H 
ATOM     29  H24 92Y d   1      21.539  -3.732   5.573  0.00  0.00     0.068 H 
ENDBRANCH  20  26
ENDBRANCH  17  20
ENDBRANCH   5  17
BRANCH   1  30
ATOM     30  O1  92Y d   1      22.009  -6.709   6.228  0.00  0.00    -0.394 OA
ATOM     31  H13 92Y d   1      22.853  -7.143   6.265  0.00  0.00     0.210 HD
ENDBRANCH   1  30
BRANCH   4  32
ATOM     32  C8  92Y d   1      21.867  -9.974   6.427  0.00  0.00    -0.047 A 
ATOM     33  C7  92Y d   1      23.094 -10.074   5.725  0.00  0.00    -0.076 A 
ATOM     34  C6  92Y d   1      24.044 -11.079   6.062  0.00  0.00    -0.082 A 
ATOM     35  H4  92Y d   1      23.311  -9.378   4.923  0.00  0.00     0.084 H 
ATOM     36  C5  92Y d   1      23.783 -11.988   7.096  0.00  0.00    -0.083 A 
ATOM     37  H3  92Y d   1      24.977 -11.142   5.514  0.00  0.00     0.083 H 
ATOM     38  C4  92Y d   1      22.567 -11.891   7.812  0.00  0.00    -0.082 A 
ATOM     39  H2  92Y d   1      24.505 -12.757   7.345  0.00  0.00     0.083 H 
ATOM     40  C3  92Y d   1      21.627 -10.903   7.493  0.00  0.00    -0.076 A 
ATOM     41  H1  92Y d   1      22.361 -12.588   8.616  0.00  0.00     0.083 H 
ATOM     42  H15 92Y d   1      20.705 -10.840   8.060  0.00  0.00     0.084 H 
ENDBRANCH   4  32
TORSDOF 6
