REMARK  14 active torsions:
REMARK  status: ('A' for Active; 'I' for Inactive)
REMARK    1  A    between atoms: C5_2  and  C4_1 
REMARK    2  A    between atoms: C4_1  and  C2_25 
REMARK    3  A    between atoms: C6_3  and  C5_2 
REMARK       I    between atoms: N8_23  and  C6_3 
REMARK    4  A    between atoms: C15_5  and  N16_32 
REMARK       I    between atoms: N16_32  and  C17_6 
REMARK    5  A    between atoms: C17_6  and  C19_34 
REMARK    6  A    between atoms: C20_7  and  C21_8 
REMARK    7  A    between atoms: C19_34  and  C20_7 
REMARK       I    between atoms: C30_14  and  N32_15 
REMARK    8  A    between atoms: C9_22  and  C30_14 
REMARK    9  A    between atoms: C35_18  and  C36_19 
REMARK   10  A    between atoms: C9_22  and  N8_23 
REMARK   11  A    between atoms: C11_28  and  C9_22 
REMARK   12  A    between atoms: C2_25  and  C3_26 
REMARK   13  A    between atoms: C2_25  and  C1_27 
REMARK   14  A    between atoms: C11_28  and  C12_29 
ROOT
ATOM      1  C9  92A d   1      -3.938  23.919  14.782  0.00  0.00     0.093 C 
ATOM      2  H23 92A d   1      -4.088  24.224  15.828  0.00  0.00     0.088 H 
ENDROOT
BRANCH   1   3
ATOM      3  C30 92A d   1      -4.447  24.998  13.863  0.00  0.00     0.242 C 
ATOM      4  O31 92A d   1      -4.224  24.927  12.674  0.00  0.00    -0.271 OA
ATOM      5  N32 92A d   1      -5.154  26.033  14.360  0.00  0.00    -0.350 N 
ATOM      6  C38 92A d   1      -5.653  27.085  13.464  0.00  0.00    -0.002 C 
ATOM      7  C33 92A d   1      -5.429  26.130  15.802  0.00  0.00    -0.002 C 
ATOM      8  C37 92A d   1      -7.151  27.337  13.663  0.00  0.00    -0.047 C 
ATOM      9  H11 92A d   1      -5.479  26.778  12.422  0.00  0.00     0.064 H 
ATOM     10  H12 92A d   1      -5.105  28.017  13.668  0.00  0.00     0.064 H 
ATOM     11  C35 92A d   1      -7.720  26.735  14.953  0.00  0.00    -0.055 C 
ATOM     12  H13 92A d   1      -7.691  26.900  12.810  0.00  0.00     0.035 H 
ATOM     13  H14 92A d   1      -7.319  28.424  13.686  0.00  0.00     0.035 H 
ATOM     14  C34 92A d   1      -6.724  26.897  16.102  0.00  0.00    -0.047 C 
ATOM     15  H15 92A d   1      -7.920  25.665  14.795  0.00  0.00     0.039 H 
ATOM     16  H19 92A d   1      -7.171  26.504  17.027  0.00  0.00     0.035 H 
ATOM     17  H20 92A d   1      -6.491  27.964  16.232  0.00  0.00     0.035 H 
ATOM     18  H21 92A d   1      -4.590  26.651  16.287  0.00  0.00     0.064 H 
ATOM     19  H22 92A d   1      -5.517  25.114  16.214  0.00  0.00     0.064 H 
BRANCH  11  20
ATOM     20  C36 92A d   1      -9.023  27.448  15.312  0.00  0.00    -0.073 C 
ATOM     21  H16 92A d   1      -9.433  27.018  16.238  0.00  0.00     0.028 H 
ATOM     22  H17 92A d   1      -9.748  27.320  14.495  0.00  0.00     0.028 H 
ATOM     23  H18 92A d   1      -8.825  28.520  15.462  0.00  0.00     0.028 H 
ENDBRANCH  11  20
ENDBRANCH   1   3
BRANCH   1  24
ATOM     24  N8  92A d   1      -2.513  23.695  14.538  0.00  0.00    -0.347 N 
ATOM     25  C6  92A d   1      -1.642  24.719  14.597  0.00  0.00     0.218 C 
ATOM     26  O7  92A d   1      -2.030  25.834  14.851  0.00  0.00    -0.274 OA
ATOM     27  H24 92A d   1      -2.184  22.775  14.326  0.00  0.00     0.163 HD
BRANCH  25  28
ATOM     28  C5  92A d   1      -0.180  24.481  14.338  0.00  0.00     0.009 C 
ATOM     29  H3  92A d   1      -0.051  23.506  13.844  0.00  0.00     0.047 H 
ATOM     30  H4  92A d   1       0.209  25.277  13.686  0.00  0.00     0.047 H 
BRANCH  28  31
ATOM     31  C4  92A d   1       0.590  24.486  15.658  0.00  0.00    -0.054 C 
ATOM     32  H1  92A d   1       0.027  23.920  16.415  0.00  0.00     0.034 H 
ATOM     33  H2  92A d   1       0.726  25.522  16.001  0.00  0.00     0.034 H 
BRANCH  31  34
ATOM     34  C2  92A d   1       1.954  23.835  15.442  0.00  0.00    -0.061 C 
ATOM     35  H25 92A d   1       2.464  24.324  14.599  0.00  0.00     0.038 H 
BRANCH  34  36
ATOM     36  C3  92A d   1       1.754  22.354  15.126  0.00  0.00    -0.073 C 
ATOM     37  H26 92A d   1       2.733  21.877  14.969  0.00  0.00     0.028 H 
ATOM     38  H27 92A d   1       1.146  22.252  14.215  0.00  0.00     0.028 H 
ATOM     39  H28 92A d   1       1.239  21.866  15.967  0.00  0.00     0.028 H 
ENDBRANCH  34  36
BRANCH  34  40
ATOM     40  C1  92A d   1       2.805  23.984  16.704  0.00  0.00    -0.073 C 
ATOM     41  H29 92A d   1       2.946  25.052  16.927  0.00  0.00     0.028 H 
ATOM     42  H30 92A d   1       3.785  23.511  16.544  0.00  0.00     0.028 H 
ATOM     43  H31 92A d   1       2.296  23.497  17.549  0.00  0.00     0.028 H 
ENDBRANCH  34  40
ENDBRANCH  31  34
ENDBRANCH  28  31
ENDBRANCH  25  28
ENDBRANCH   1  24
BRANCH   1  44
ATOM     44  C11 92A d   1      -4.708  22.630  14.506  0.00  0.00    -0.014 C 
ATOM     45  H32 92A d   1      -4.284  21.823  15.121  0.00  0.00     0.043 H 
ATOM     46  H33 92A d   1      -4.603  22.373  13.442  0.00  0.00     0.043 H 
BRANCH  44  47
ATOM     47  C12 92A d   1      -6.174  22.772  14.831  0.00  0.00    -0.056 A 
ATOM     48  C13 92A d   1      -7.112  22.811  13.814  0.00  0.00    -0.075 A 
ATOM     49  C14 92A d   1      -8.457  22.932  14.108  0.00  0.00    -0.057 A 
ATOM     50  H5  92A d   1      -6.790  22.746  12.781  0.00  0.00     0.084 H 
ATOM     51  C15 92A d   1      -8.877  23.022  15.430  0.00  0.00     0.034 A 
ATOM     52  H35 92A d   1      -9.186  22.957  13.306  0.00  0.00     0.086 H 
ATOM     53  C28 92A d   1      -7.932  22.974  16.444  0.00  0.00    -0.057 A 
ATOM     54  C29 92A d   1      -6.589  22.852  16.147  0.00  0.00    -0.075 A 
ATOM     55  H10 92A d   1      -8.250  23.033  17.479  0.00  0.00     0.086 H 
ATOM     56  H34 92A d   1      -5.859  22.819  16.948  0.00  0.00     0.084 H 
BRANCH  51  57
ATOM     57  N16 92A d   1     -10.236  23.130  15.750  0.00  0.00    -0.327 N 
ATOM     58  C17 92A d   1     -11.125  23.809  15.003  0.00  0.00     0.222 C 
ATOM     59  O18 92A d   1     -10.768  24.384  14.003  0.00  0.00    -0.273 OA
ATOM     60  H36 92A d   1     -10.564  22.677  16.579  0.00  0.00     0.169 HD
BRANCH  58  61
ATOM     61  C19 92A d   1     -12.575  23.862  15.416  0.00  0.00     0.013 C 
ATOM     62  H37 92A d   1     -12.931  24.901  15.362  0.00  0.00     0.047 H 
ATOM     63  H38 92A d   1     -12.673  23.494  16.448  0.00  0.00     0.047 H 
BRANCH  61  64
ATOM     64  C20 92A d   1     -13.421  22.987  14.482  0.00  0.00    -0.033 C 
ATOM     65  H6  92A d   1     -14.487  23.208  14.637  0.00  0.00     0.040 H 
ATOM     66  H7  92A d   1     -13.151  23.198  13.437  0.00  0.00     0.040 H 
BRANCH  64  67
ATOM     67  C21 92A d   1     -13.158  21.538  14.787  0.00  0.00    -0.058 A 
ATOM     68  C22 92A d   1     -13.934  20.877  15.720  0.00  0.00    -0.075 A 
ATOM     69  C23 92A d   1     -13.691  19.549  16.009  0.00  0.00    -0.061 A 
ATOM     70  H8  92A d   1     -14.736  21.402  16.226  0.00  0.00     0.084 H 
ATOM     71  C24 92A d   1     -12.666  18.879  15.368  0.00  0.00     0.034 A 
ATOM     72  H40 92A d   1     -14.304  19.032  16.738  0.00  0.00     0.086 H 
ATOM     73  C26 92A d   1     -11.890  19.542  14.434  0.00  0.00    -0.061 A 
ATOM     74 CL1  92A d   1     -12.353  17.214  15.733  0.00  0.00    -0.084 Cl
ATOM     75  C27 92A d   1     -12.136  20.871  14.144  0.00  0.00    -0.075 A 
ATOM     76  H9  92A d   1     -11.087  19.018  13.928  0.00  0.00     0.086 H 
ATOM     77  H39 92A d   1     -11.526  21.389  13.412  0.00  0.00     0.084 H 
ENDBRANCH  64  67
ENDBRANCH  61  64
ENDBRANCH  58  61
ENDBRANCH  51  57
ENDBRANCH  44  47
ENDBRANCH   1  44
TORSDOF 14
