REMARK  10 active torsions:
REMARK  status: ('A' for Active; 'I' for Inactive)
REMARK    1  A    between atoms: C6_3  and  C9_35 
REMARK       I    between atoms: C15_9  and  N17_28 
REMARK       I    between atoms: N2_32  and  C15_9 
REMARK    2  A    between atoms: C20_10  and  C21_11 
REMARK    3  A    between atoms: C20_10  and  C22_12 
REMARK    4  A    between atoms: C29_16  and  C31_17 
REMARK       I    between atoms: N28_23  and  C29_16 
REMARK    5  A    between atoms: C27_24  and  N28_23 
REMARK    6  A    between atoms: N17_28  and  C23_27 
REMARK    7  A    between atoms: N17_28  and  C18_29 
REMARK    8  A    between atoms: C18_29  and  C19_30 
REMARK    9  A    between atoms: N2_32  and  C1_33 
REMARK   10  A    between atoms: N2_32  and  C3_34 
ROOT
ATOM      1  C15 927 d   1      -5.527  25.950  12.958  0.00  0.00     0.325 C 
ATOM      2  N17 927 d   1      -6.865  25.930  13.194  0.00  0.00    -0.296 N 
ATOM      3  O16 927 d   1      -4.978  27.005  12.719  0.00  0.00    -0.247 OA
ATOM      4  N2  927 d   1      -4.759  24.877  13.248  0.00  0.00    -0.333 N 
ENDROOT
BRANCH   2   5
ATOM      5  C23 927 d   1      -7.378  25.209  14.279  0.00  0.00     0.041 A 
ATOM      6  C24 927 d   1      -6.630  25.085  15.444  0.00  0.00    -0.057 A 
ATOM      7  C25 927 d   1      -7.132  24.390  16.521  0.00  0.00    -0.079 A 
ATOM      8  H18 927 d   1      -5.647  25.538  15.505  0.00  0.00     0.086 H 
ATOM      9  C26 927 d   1      -8.385  23.826  16.445  0.00  0.00    -0.057 A 
ATOM     10  H26 927 d   1      -6.543  24.287  17.425  0.00  0.00     0.083 H 
ATOM     11  C27 927 d   1      -9.147  23.943  15.290  0.00  0.00     0.037 A 
ATOM     12  H19 927 d   1      -8.781  23.284  17.296  0.00  0.00     0.086 H 
ATOM     13  C37 927 d   1      -8.648  24.648  14.204  0.00  0.00    -0.031 A 
ATOM     14  H27 927 d   1      -9.243  24.760  13.305  0.00  0.00     0.090 H 
BRANCH  11  15
ATOM     15  N28 927 d   1     -10.414  23.350  15.307  0.00  0.00    -0.323 N 
ATOM     16  C29 927 d   1     -11.198  22.971  14.269  0.00  0.00     0.256 C 
ATOM     17  O30 927 d   1     -10.885  23.057  13.096  0.00  0.00    -0.267 OA
ATOM     18  H25 927 d   1     -10.796  23.182  16.216  0.00  0.00     0.169 HD
BRANCH  16  19
ATOM     19  C31 927 d   1     -12.480  22.374  14.689  0.00  0.00     0.032 A 
ATOM     20  C36 927 d   1     -12.703  21.005  14.548  0.00  0.00    -0.068 A 
ATOM     21  C35 927 d   1     -13.898  20.463  14.975  0.00  0.00    -0.082 A 
ATOM     22  H20 927 d   1     -11.943  20.371  14.106  0.00  0.00     0.085 H 
ATOM     23  C34 927 d   1     -14.875  21.269  15.530  0.00  0.00    -0.083 A 
ATOM     24  H21 927 d   1     -14.072  19.398  14.875  0.00  0.00     0.083 H 
ATOM     25  C33 927 d   1     -14.653  22.627  15.675  0.00  0.00    -0.082 A 
ATOM     26  H22 927 d   1     -15.816  20.837  15.852  0.00  0.00     0.083 H 
ATOM     27  C32 927 d   1     -13.460  23.183  15.263  0.00  0.00    -0.068 A 
ATOM     28  H23 927 d   1     -15.419  23.256  16.114  0.00  0.00     0.083 H 
ATOM     29  H24 927 d   1     -13.285  24.246  15.385  0.00  0.00     0.085 H 
ENDBRANCH  16  19
ENDBRANCH  11  15
ENDBRANCH   2   5
BRANCH   2  30
ATOM     30  C18 927 d   1      -7.678  27.076  12.774  0.00  0.00     0.020 C 
ATOM     31  H28 927 d   1      -8.720  26.757  12.624  0.00  0.00     0.071 H 
ATOM     32  H29 927 d   1      -7.282  27.487  11.834  0.00  0.00     0.071 H 
BRANCH  30  33
ATOM     33  C19 927 d   1      -7.618  28.126  13.853  0.00  0.00    -0.084 C 
ATOM     34  C20 927 d   1      -8.673  28.423  14.571  0.00  0.00    -0.090 C 
ATOM     35  H30 927 d   1      -6.681  28.648  14.040  0.00  0.00     0.079 H 
BRANCH  34  36
ATOM     36  C21 927 d   1      -9.985  27.722  14.340  0.00  0.00    -0.055 C 
ATOM     37  H12 927 d   1     -10.738  28.113  15.040  0.00  0.00     0.033 H 
ATOM     38  H13 927 d   1      -9.857  26.642  14.504  0.00  0.00     0.033 H 
ATOM     39  H14 927 d   1     -10.318  27.899  13.307  0.00  0.00     0.033 H 
ENDBRANCH  34  36
BRANCH  34  40
ATOM     40  C22 927 d   1      -8.575  29.476  15.643  0.00  0.00    -0.055 C 
ATOM     41  H15 927 d   1      -7.551  29.878  15.670  0.00  0.00     0.033 H 
ATOM     42  H16 927 d   1      -8.820  29.030  16.618  0.00  0.00     0.033 H 
ATOM     43  H17 927 d   1      -9.282  30.289  15.424  0.00  0.00     0.033 H 
ENDBRANCH  34  40
ENDBRANCH  30  33
ENDBRANCH   2  30
BRANCH   4  44
ATOM     44  C1  927 d   1      -5.239  23.532  12.934  0.00  0.00    -0.014 C 
ATOM     45  H31 927 d   1      -6.292  23.582  12.620  0.00  0.00     0.056 H 
ATOM     46  H32 927 d   1      -5.152  22.894  13.826  0.00  0.00     0.056 H 
ATOM     47  H33 927 d   1      -4.634  23.108  12.119  0.00  0.00     0.056 H 
ENDBRANCH   4  44
BRANCH   4  48
ATOM     48  C3  927 d   1      -3.368  25.065  13.694  0.00  0.00     0.016 C 
ATOM     49  C4  927 d   1      -3.031  24.094  14.825  0.00  0.00    -0.045 C 
ATOM     50  C5  927 d   1      -1.620  24.404  15.328  0.00  0.00    -0.056 C 
ATOM     51  H1  927 d   1      -3.753  24.216  15.646  0.00  0.00     0.036 H 
ATOM     52  H2  927 d   1      -3.073  23.060  14.451  0.00  0.00     0.036 H 
ATOM     53  C6  927 d   1      -0.605  24.194  14.204  0.00  0.00    -0.028 C 
ATOM     54  H3  927 d   1      -1.377  23.735  16.167  0.00  0.00     0.034 H 
ATOM     55  H4  927 d   1      -1.576  25.449  15.668  0.00  0.00     0.034 H 
ATOM     56  C7  927 d   1      -0.957  25.097  13.017  0.00  0.00    -0.056 C 
ATOM     57  H5  927 d   1      -0.636  23.143  13.879  0.00  0.00     0.047 H 
ATOM     58  C8  927 d   1      -2.388  24.826  12.542  0.00  0.00    -0.045 C 
ATOM     59  H6  927 d   1      -0.258  24.898  12.191  0.00  0.00     0.034 H 
ATOM     60  H7  927 d   1      -0.871  26.149  13.325  0.00  0.00     0.034 H 
ATOM     61  H8  927 d   1      -2.469  23.783  12.203  0.00  0.00     0.036 H 
ATOM     62  H9  927 d   1      -2.631  25.502  11.709  0.00  0.00     0.036 H 
ATOM     63  H34 927 d   1      -3.251  26.097  14.057  0.00  0.00     0.072 H 
BRANCH  53  64
ATOM     64  C9  927 d   1       0.782  24.515  14.708  0.00  0.00    -0.051 A 
ATOM     65  C10 927 d   1       1.099  25.784  15.169  0.00  0.00    -0.060 A 
ATOM     66  C11 927 d   1       2.377  26.040  15.625  0.00  0.00     0.002 A 
ATOM     67  H10 927 d   1       0.350  26.568  15.171  0.00  0.00     0.086 H 
ATOM     68  N12 927 d   1       3.295  25.097  15.627  0.00  0.00    -0.273 NA
ATOM     69  H36 927 d   1       2.627  27.031  15.986  0.00  0.00     0.114 H 
ATOM     70  C13 927 d   1       3.034  23.879  15.198  0.00  0.00     0.002 A 
ATOM     71  C14 927 d   1       1.777  23.548  14.727  0.00  0.00    -0.060 A 
ATOM     72  H11 927 d   1       3.814  23.127  15.214  0.00  0.00     0.114 H 
ATOM     73  H35 927 d   1       1.571  22.543  14.376  0.00  0.00     0.086 H 
ENDBRANCH  53  64
ENDBRANCH   4  48
TORSDOF 10
