REMARK  10 active torsions:
REMARK  status: ('A' for Active; 'I' for Inactive)
REMARK    1  A    between atoms: C7_3  and  C11_18 
REMARK       I    between atoms: C17_7  and  N2_15 
REMARK       I    between atoms: N19_23  and  C17_7 
REMARK    2  A    between atoms: C20_8  and  C21_9 
REMARK    3  A    between atoms: N19_23  and  C20_8 
REMARK    4  A    between atoms: C22_10  and  C24_11 
REMARK    5  A    between atoms: C22_10  and  C23_24 
REMARK    6  A    between atoms: N2_15  and  C1_14 
REMARK    7  A    between atoms: N2_15  and  C3_16 
REMARK    8  A    between atoms: N19_23  and  C25_25 
REMARK    9  A    between atoms: C29_27  and  O30_28 
REMARK   10  A    between atoms: O30_28  and  C31_29 
ROOT
ATOM      1  C17 921 d   1      -5.659  26.136  13.421  0.00  0.00     0.325 C 
ATOM      2  N2  921 d   1      -4.848  25.058  13.453  0.00  0.00    -0.333 N 
ATOM      3  O18 921 d   1      -5.215  27.259  13.529  0.00  0.00    -0.247 OA
ATOM      4  N19 921 d   1      -7.010  25.899  13.337  0.00  0.00    -0.296 N 
ENDROOT
BRANCH   4   5
ATOM      5  C20 921 d   1      -7.897  26.972  12.879  0.00  0.00     0.020 C 
ATOM      6  H10 921 d   1      -7.516  27.385  11.933  0.00  0.00     0.071 H 
ATOM      7  H11 921 d   1      -8.909  26.570  12.722  0.00  0.00     0.071 H 
BRANCH   5   8
ATOM      8  C21 921 d   1      -7.944  28.052  13.912  0.00  0.00    -0.084 C 
ATOM      9  C22 921 d   1      -8.977  28.376  14.669  0.00  0.00    -0.090 C 
ATOM     10  H12 921 d   1      -7.033  28.631  14.055  0.00  0.00     0.079 H 
BRANCH   9  11
ATOM     11  C24 921 d   1      -8.919  29.482  15.675  0.00  0.00    -0.055 C 
ATOM     12  H13 921 d   1      -9.891  29.567  16.183  0.00  0.00     0.033 H 
ATOM     13  H14 921 d   1      -8.687  30.429  15.166  0.00  0.00     0.033 H 
ATOM     14  H15 921 d   1      -8.136  29.263  16.416  0.00  0.00     0.033 H 
ENDBRANCH   9  11
BRANCH   9  15
ATOM     15  C23 921 d   1     -10.298  27.677  14.588  0.00  0.00    -0.055 C 
ATOM     16  H26 921 d   1     -10.247  26.884  13.827  0.00  0.00     0.033 H 
ATOM     17  H27 921 d   1     -11.079  28.400  14.312  0.00  0.00     0.033 H 
ATOM     18  H28 921 d   1     -10.538  27.233  15.565  0.00  0.00     0.033 H 
ENDBRANCH   9  15
ENDBRANCH   5   8
ENDBRANCH   4   5
BRANCH   4  19
ATOM     19  C25 921 d   1      -7.584  25.150  14.423  0.00  0.00     0.042 A 
ATOM     20  C26 921 d   1      -7.108  25.309  15.724  0.00  0.00    -0.057 A 
ATOM     21  C27 921 d   1      -7.659  24.575  16.759  0.00  0.00    -0.078 A 
ATOM     22  H16 921 d   1      -6.305  26.009  15.925  0.00  0.00     0.086 H 
ATOM     23  C28 921 d   1      -8.694  23.692  16.523  0.00  0.00    -0.050 A 
ATOM     24  H29 921 d   1      -7.274  24.694  17.765  0.00  0.00     0.083 H 
ATOM     25  C29 921 d   1      -9.170  23.542  15.235  0.00  0.00     0.078 A 
ATOM     26  H17 921 d   1      -9.127  23.124  17.338  0.00  0.00     0.087 H 
ATOM     27  C37 921 d   1      -8.626  24.257  14.178  0.00  0.00    -0.024 A 
ATOM     28  H35 921 d   1      -9.007  24.123  13.172  0.00  0.00     0.091 H 
BRANCH  25  29
ATOM     29  O30 921 d   1     -10.206  22.642  15.024  0.00  0.00    -0.311 OA
BRANCH  29  30
ATOM     30  C31 921 d   1     -11.389  23.084  14.452  0.00  0.00     0.076 A 
ATOM     31  C32 921 d   1     -11.991  24.238  14.916  0.00  0.00    -0.050 A 
ATOM     32  C33 921 d   1     -13.172  24.663  14.336  0.00  0.00    -0.080 A 
ATOM     33  H30 921 d   1     -11.543  24.803  15.725  0.00  0.00     0.087 H 
ATOM     34  C34 921 d   1     -13.745  23.944  13.313  0.00  0.00    -0.083 A 
ATOM     35  H31 921 d   1     -13.650  25.569  14.690  0.00  0.00     0.083 H 
ATOM     36  C35 921 d   1     -13.138  22.797  12.856  0.00  0.00    -0.080 A 
ATOM     37  H32 921 d   1     -14.674  24.281  12.867  0.00  0.00     0.083 H 
ATOM     38  C36 921 d   1     -11.956  22.356  13.422  0.00  0.00    -0.050 A 
ATOM     39  H33 921 d   1     -13.590  22.235  12.046  0.00  0.00     0.083 H 
ATOM     40  H34 921 d   1     -11.480  21.451  13.063  0.00  0.00     0.087 H 
ENDBRANCH  29  30
ENDBRANCH  25  29
ENDBRANCH   4  19
BRANCH   2  41
ATOM     41  C1  921 d   1      -5.365  23.697  13.369  0.00  0.00    -0.014 C 
ATOM     42  H18 921 d   1      -6.454  23.727  13.218  0.00  0.00     0.056 H 
ATOM     43  H19 921 d   1      -5.139  23.161  14.303  0.00  0.00     0.056 H 
ATOM     44  H20 921 d   1      -4.892  23.177  12.523  0.00  0.00     0.056 H 
ENDBRANCH   2  41
BRANCH   2  45
ATOM     45  C3  921 d   1      -3.401  25.248  13.656  0.00  0.00     0.016 C 
ATOM     46  C5  921 d   1      -3.127  24.511  14.956  0.00  0.00    -0.045 C 
ATOM     47  C6  921 d   1      -1.719  24.827  15.416  0.00  0.00    -0.056 C 
ATOM     48  H1  921 d   1      -3.847  24.835  15.722  0.00  0.00     0.036 H 
ATOM     49  H2  921 d   1      -3.227  23.428  14.794  0.00  0.00     0.036 H 
ATOM     50  C7  921 d   1      -0.694  24.405  14.366  0.00  0.00    -0.028 C 
ATOM     51  H3  921 d   1      -1.517  24.288  16.353  0.00  0.00     0.034 H 
ATOM     52  H4  921 d   1      -1.631  25.910  15.590  0.00  0.00     0.034 H 
ATOM     53  C9  921 d   1      -1.020  25.073  13.027  0.00  0.00    -0.056 C 
ATOM     54  H5  921 d   1      -0.785  23.318  14.223  0.00  0.00     0.047 H 
ATOM     55  C10 921 d   1      -2.448  24.766  12.579  0.00  0.00    -0.045 C 
ATOM     56  H22 921 d   1      -0.319  24.704  12.264  0.00  0.00     0.034 H 
ATOM     57  H23 921 d   1      -0.906  26.162  13.134  0.00  0.00     0.034 H 
ATOM     58  H6  921 d   1      -2.661  25.287  11.634  0.00  0.00     0.036 H 
ATOM     59  H7  921 d   1      -2.567  23.682  12.435  0.00  0.00     0.036 H 
ATOM     60  H21 921 d   1      -3.214  26.324  13.789  0.00  0.00     0.072 H 
BRANCH  50  61
ATOM     61  C11 921 d   1       0.716  24.676  14.842  0.00  0.00    -0.051 A 
ATOM     62  C12 921 d   1       1.060  25.903  15.381  0.00  0.00    -0.060 A 
ATOM     63  C13 921 d   1       2.352  26.104  15.817  0.00  0.00     0.002 A 
ATOM     64  H24 921 d   1       0.324  26.695  15.459  0.00  0.00     0.086 H 
ATOM     65  N14 921 d   1       3.304  25.173  15.761  0.00  0.00    -0.273 NA
ATOM     66  H8  921 d   1       2.608  27.074  16.229  0.00  0.00     0.114 H 
ATOM     67  C15 921 d   1       2.958  23.991  15.251  0.00  0.00     0.002 A 
ATOM     68  C16 921 d   1       1.692  23.698  14.787  0.00  0.00    -0.060 A 
ATOM     69  H9  921 d   1       3.714  23.216  15.198  0.00  0.00     0.114 H 
ATOM     70  H25 921 d   1       1.466  22.717  14.386  0.00  0.00     0.086 H 
ENDBRANCH  50  61
ENDBRANCH   2  45
TORSDOF 10
