REMARK  12 active torsions:
REMARK  status: ('A' for Active; 'I' for Inactive)
REMARK    1  A    between atoms: OAV_22  and  CAA_1 
REMARK    2  A    between atoms: CAX_24  and  O02_2 
REMARK    3  A    between atoms: O02_2  and  C01_36 
REMARK    4  A    between atoms: CAM_13  and  CAC_3 
REMARK    5  A    between atoms: CAC_3  and  NBH_34 
REMARK    6  A    between atoms: CAN_14  and  CAM_13 
REMARK    7  A    between atoms: OAW_23  and  CAN_14 
REMARK    8  A    between atoms: NBI_35  and  CAO_15 
REMARK    9  A    between atoms: NAU_21  and  CBB_28 
REMARK   10  A    between atoms: CBE_31  and  NAU_21 
REMARK   11  A    between atoms: CBC_29  and  OAV_22 
REMARK   12  A    between atoms: CBD_30  and  OAW_23 
ROOT
ATOM      1  NAD DB8 d   1      -2.091   1.024  14.047  0.00  0.00    -0.191 NA
ATOM      2  CAG DB8 d   1      -2.727   1.892  13.647  0.00  0.00     0.103 C 
ATOM      3  CAH DB8 d   1      -4.285   3.486  14.147  0.00  0.00     0.025 A 
ATOM      4  CAK DB8 d   1      -5.996   6.094  12.283  0.00  0.00    -0.019 A 
ATOM      5  CAL DB8 d   1      -4.413   5.017  10.220  0.00  0.00    -0.034 A 
ATOM      6  NAT DB8 d   1      -5.084   4.516  13.803  0.00  0.00    -0.259 NA
ATOM      7  CBA DB8 d   1      -3.452   2.878  13.184  0.00  0.00     0.089 A 
ATOM      8  CBC DB8 d   1      -5.273   6.102   9.944  0.00  0.00     0.102 A 
ATOM      9  CBD DB8 d   1      -6.069   6.631  10.988  0.00  0.00     0.104 A 
ATOM     10  CBE DB8 d   1      -3.466   3.364  11.828  0.00  0.00     0.068 A 
ATOM     11  CBF DB8 d   1      -5.135   5.015  12.550  0.00  0.00     0.071 A 
ATOM     12  CBG DB8 d   1      -4.326   4.459  11.519  0.00  0.00     0.024 A 
ATOM     13  H6  DB8 d   1      -4.282   3.123  15.168  0.00  0.00     0.117 H 
ATOM     14  H9  DB8 d   1      -6.604   6.511  13.078  0.00  0.00     0.091 H 
ATOM     15  H10 DB8 d   1      -3.807   4.603   9.422  0.00  0.00     0.089 H 
ENDROOT
BRANCH  10  16
ATOM     16  NAU DB8 d   1      -2.694   2.841  10.798  0.00  0.00    -0.353 N 
ATOM     17  H26 DB8 d   1      -2.816   3.292   9.880  0.00  0.00     0.166 HD
BRANCH  16  18
ATOM     18  CBB DB8 d   1      -1.795   1.811  10.834  0.00  0.00     0.057 A 
ATOM     19  CAJ DB8 d   1      -0.423   2.086  10.631  0.00  0.00    -0.022 A 
ATOM     20  CAX DB8 d   1       0.546   1.063  10.675  0.00  0.00     0.092 A 
ATOM     21  H8  DB8 d   1      -0.110   3.105  10.437  0.00  0.00     0.091 H 
ATOM     22  CAY DB8 d   1       0.112  -0.254  10.926  0.00  0.00     0.069 A 
ATOM     23 CL1  DB8 d   1       1.243  -1.504  10.997  0.00  0.00    -0.081 Cl
ATOM     24  CAI DB8 d   1      -1.255  -0.552  11.131  0.00  0.00    -0.036 A 
ATOM     25  CAZ DB8 d   1      -2.215   0.478  11.076  0.00  0.00     0.062 A 
ATOM     26  H7  DB8 d   1      -1.564  -1.572  11.330  0.00  0.00     0.088 H 
ATOM     27 CL2  DB8 d   1      -3.858   0.097  11.329  0.00  0.00    -0.082 Cl
BRANCH  20  28
ATOM     28  O02 DB8 d   1       1.890   1.303  10.477  0.00  0.00    -0.354 OA
BRANCH  28  29
ATOM     29  C01 DB8 d   1       2.324   2.583   9.956  0.00  0.00     0.010 C 
ATOM     30  H29 DB8 d   1       3.420   2.590   9.866  0.00  0.00     0.066 H 
ATOM     31  H30 DB8 d   1       2.007   3.384  10.640  0.00  0.00     0.066 H 
ATOM     32  H31 DB8 d   1       1.874   2.747   8.966  0.00  0.00     0.066 H 
ENDBRANCH  28  29
ENDBRANCH  20  28
ENDBRANCH  16  18
ENDBRANCH  10  16
BRANCH   8  33
ATOM     33  OAV DB8 d   1      -5.382   6.665   8.683  0.00  0.00    -0.353 OA
BRANCH  33  34
ATOM     34  CAA DB8 d   1      -4.308   6.508   7.709  0.00  0.00     0.010 C 
ATOM     35  H1  DB8 d   1      -4.581   7.023   6.776  0.00  0.00     0.066 H 
ATOM     36  H2  DB8 d   1      -4.151   5.439   7.505  0.00  0.00     0.066 H 
ATOM     37  H3  DB8 d   1      -3.382   6.944   8.111  0.00  0.00     0.066 H 
ENDBRANCH  33  34
ENDBRANCH   8  33
BRANCH   9  38
ATOM     38  OAW DB8 d   1      -6.903   7.683  10.710  0.00  0.00    -0.348 OA
BRANCH  38  39
ATOM     39  CAN DB8 d   1      -7.633   8.329  11.771  0.00  0.00     0.028 C 
ATOM     40  H13 DB8 d   1      -8.309   7.613  12.261  0.00  0.00     0.075 H 
ATOM     41  H14 DB8 d   1      -6.938   8.746  12.515  0.00  0.00     0.075 H 
BRANCH  39  42
ATOM     42  CAM DB8 d   1      -8.445   9.462  11.099  0.00  0.00    -0.022 C 
ATOM     43  H11 DB8 d   1      -9.188   9.838  11.818  0.00  0.00     0.038 H 
ATOM     44  H12 DB8 d   1      -7.756  10.275  10.825  0.00  0.00     0.038 H 
BRANCH  42  45
ATOM     45  CAC DB8 d   1      -9.186   8.986   9.821  0.00  0.00     0.086 C 
ATOM     46  H4  DB8 d   1      -9.705   8.043  10.046  0.00  0.00     0.076 H 
ATOM     47  H5  DB8 d   1      -8.444   8.816   9.027  0.00  0.00     0.076 H 
BRANCH  45  48
ATOM     48  NBH DB8 d   1     -10.193   9.981   9.330  0.00  0.00    -0.068 N 
ATOM     49  CAP DB8 d   1      -9.744  10.833   8.188  0.00  0.00     0.106 C 
ATOM     50  CAR DB8 d   1     -10.724  12.011   7.980  0.00  0.00     0.105 C 
ATOM     51  H18 DB8 d   1      -8.741  11.229   8.403  0.00  0.00     0.078 H 
ATOM     52  H19 DB8 d   1      -9.709  10.224   7.273  0.00  0.00     0.078 H 
ATOM     53  NBI DB8 d   1     -12.144  11.552   7.862  0.00  0.00    -0.072 N 
ATOM     54  H22 DB8 d   1     -10.447  12.544   7.059  0.00  0.00     0.078 H 
ATOM     55  H23 DB8 d   1     -10.643  12.695   8.838  0.00  0.00     0.078 H 
ATOM     56  CAS DB8 d   1     -12.564  10.578   8.916  0.00  0.00     0.105 C 
ATOM     57  H28 DB8 d   1     -12.210  11.062   6.984  0.00  0.00     0.279 HD
ATOM     58  CAQ DB8 d   1     -11.547   9.420   9.048  0.00  0.00     0.106 C 
ATOM     59  H24 DB8 d   1     -12.637  11.103   9.880  0.00  0.00     0.078 H 
ATOM     60  H25 DB8 d   1     -13.547  10.163   8.649  0.00  0.00     0.078 H 
ATOM     61  H20 DB8 d   1     -11.519   8.847   8.109  0.00  0.00     0.078 H 
ATOM     62  H21 DB8 d   1     -11.849   8.758   9.873  0.00  0.00     0.078 H 
ATOM     63  H27 DB8 d   1     -10.320  10.614  10.104  0.00  0.00     0.280 HD
BRANCH  53  64
ATOM     64  CAO DB8 d   1     -13.082  12.704   7.783  0.00  0.00     0.066 C 
ATOM     65  H15 DB8 d   1     -12.744  13.399   7.000  0.00  0.00     0.068 H 
ATOM     66  H16 DB8 d   1     -13.104  13.226   8.751  0.00  0.00     0.068 H 
ATOM     67  H17 DB8 d   1     -14.091  12.339   7.539  0.00  0.00     0.068 H 
ENDBRANCH  53  64
ENDBRANCH  45  48
ENDBRANCH  42  45
ENDBRANCH  39  42
ENDBRANCH  38  39
ENDBRANCH   9  38
TORSDOF 12
