REMARK  12 active torsions:
REMARK  status: ('A' for Active; 'I' for Inactive)
REMARK    1  A    between atoms: OAV_20  and  CAA_1 
REMARK    2  A    between atoms: CAX_22  and  O02_2 
REMARK    3  A    between atoms: O02_2  and  C01_35 
REMARK    4  A    between atoms: CAM_11  and  CAC_3 
REMARK    5  A    between atoms: CAC_3  and  NBH_32 
REMARK    6  A    between atoms: CAN_12  and  CAM_11 
REMARK    7  A    between atoms: OAW_21  and  CAN_12 
REMARK    8  A    between atoms: NBI_34  and  CAO_13 
REMARK    9  A    between atoms: NAU_19  and  CBB_26 
REMARK   10  A    between atoms: CBE_29  and  NAU_19 
REMARK   11  A    between atoms: CBC_27  and  OAV_20 
REMARK   12  A    between atoms: CBD_28  and  OAW_21 
ROOT
ATOM      1  NAD XZN d   1      -2.651   1.426  15.075  0.00  0.00    -0.191 NA
ATOM      2  CAG XZN d   1      -3.247   2.320  14.671  0.00  0.00     0.103 C 
ATOM      3  CAH XZN d   1      -4.796   3.954  15.112  0.00  0.00     0.025 A 
ATOM      4  CAK XZN d   1      -6.320   6.629  13.204  0.00  0.00    -0.019 A 
ATOM      5  CAL XZN d   1      -4.651   5.541  11.215  0.00  0.00    -0.034 A 
ATOM      6  NAT XZN d   1      -5.543   5.011  14.740  0.00  0.00    -0.259 NA
ATOM      7  CBA XZN d   1      -3.924   3.333  14.197  0.00  0.00     0.089 A 
ATOM      8  CBC XZN d   1      -5.470   6.652  10.923  0.00  0.00     0.102 A 
ATOM      9  CBD XZN d   1      -6.309   7.199  11.920  0.00  0.00     0.104 A 
ATOM     10  CBE XZN d   1      -3.840   3.829  12.851  0.00  0.00     0.067 A 
ATOM     11  CBF XZN d   1      -5.501   5.525  13.491  0.00  0.00     0.071 A 
ATOM     12  CBG XZN d   1      -4.646   4.954  12.505  0.00  0.00     0.024 A 
ATOM     13  H6  XZN d   1      -4.867   3.577  16.126  0.00  0.00     0.117 H 
ATOM     14  H7  XZN d   1      -6.962   7.042  13.974  0.00  0.00     0.091 H 
ATOM     15  H8  XZN d   1      -4.015   5.129  10.440  0.00  0.00     0.089 H 
ENDROOT
BRANCH  10  16
ATOM     16  NAU XZN d   1      -2.997   3.257  11.915  0.00  0.00    -0.354 N 
ATOM     17  H24 XZN d   1      -2.686   3.914  11.186  0.00  0.00     0.166 HD
BRANCH  16  18
ATOM     18  CBB XZN d   1      -2.490   1.986  11.762  0.00  0.00     0.035 A 
ATOM     19  CAZ XZN d   1      -1.157   1.690  11.393  0.00  0.00    -0.033 A 
ATOM     20  CAI XZN d   1      -0.712   0.359  11.265  0.00  0.00     0.071 A 
ATOM     21  H25 XZN d   1      -0.465   2.502  11.205  0.00  0.00     0.089 H 
ATOM     22 CL2  XZN d   1       0.902   0.085  10.821  0.00  0.00    -0.081 Cl
ATOM     23  CAX XZN d   1      -1.602  -0.715  11.506  0.00  0.00     0.111 A 
ATOM     24  CAY XZN d   1      -2.936  -0.434  11.873  0.00  0.00     0.071 A 
ATOM     25 CL1  XZN d   1      -4.053  -1.674  12.176  0.00  0.00    -0.081 Cl
ATOM     26  CAJ XZN d   1      -3.367   0.901  11.988  0.00  0.00    -0.033 A 
ATOM     27  H27 XZN d   1      -4.398   1.102  12.257  0.00  0.00     0.089 H 
BRANCH  23  28
ATOM     28  O02 XZN d   1      -1.165  -2.011  11.382  0.00  0.00    -0.352 OA
BRANCH  28  29
ATOM     29  C01 XZN d   1      -0.560  -2.538  12.583  0.00  0.00     0.011 C 
ATOM     30  H29 XZN d   1      -0.237  -3.575  12.406  0.00  0.00     0.067 H 
ATOM     31  H30 XZN d   1      -1.293  -2.517  13.403  0.00  0.00     0.067 H 
ATOM     32  H31 XZN d   1       0.311  -1.924  12.855  0.00  0.00     0.067 H 
ENDBRANCH  28  29
ENDBRANCH  23  28
ENDBRANCH  16  18
ENDBRANCH  10  16
BRANCH   8  33
ATOM     33  OAV XZN d   1      -5.452   7.192   9.667  0.00  0.00    -0.353 OA
BRANCH  33  34
ATOM     34  CAA XZN d   1      -4.119   7.539   9.250  0.00  0.00     0.010 C 
ATOM     35  H1  XZN d   1      -4.152   7.968   8.238  0.00  0.00     0.066 H 
ATOM     36  H2  XZN d   1      -3.490   6.637   9.246  0.00  0.00     0.066 H 
ATOM     37  H3  XZN d   1      -3.697   8.277   9.948  0.00  0.00     0.066 H 
ENDBRANCH  33  34
ENDBRANCH   8  33
BRANCH   9  38
ATOM     38  OAW XZN d   1      -7.113   8.274  11.645  0.00  0.00    -0.348 OA
BRANCH  38  39
ATOM     39  CAN XZN d   1      -7.931   8.720  12.748  0.00  0.00     0.028 C 
ATOM     40  H11 XZN d   1      -8.463   7.858  13.177  0.00  0.00     0.075 H 
ATOM     41  H12 XZN d   1      -7.288   9.174  13.517  0.00  0.00     0.075 H 
BRANCH  39  42
ATOM     42  CAM XZN d   1      -8.963   9.767  12.261  0.00  0.00    -0.022 C 
ATOM     43  H9  XZN d   1      -9.960   9.469  12.618  0.00  0.00     0.038 H 
ATOM     44  H10 XZN d   1      -8.698  10.745  12.688  0.00  0.00     0.038 H 
BRANCH  42  45
ATOM     45  CAC XZN d   1      -9.011   9.899  10.714  0.00  0.00     0.086 C 
ATOM     46  H4  XZN d   1      -8.982   8.889  10.279  0.00  0.00     0.076 H 
ATOM     47  H5  XZN d   1      -8.126  10.465  10.387  0.00  0.00     0.076 H 
BRANCH  45  48
ATOM     48  NBH XZN d   1     -10.235  10.599  10.202  0.00  0.00    -0.068 N 
ATOM     49  CAQ XZN d   1     -10.206  12.086  10.383  0.00  0.00     0.106 C 
ATOM     50  CAS XZN d   1     -11.485  12.762   9.831  0.00  0.00     0.105 C 
ATOM     51  H16 XZN d   1     -10.120  12.312  11.456  0.00  0.00     0.078 H 
ATOM     52  H17 XZN d   1      -9.332  12.492   9.852  0.00  0.00     0.078 H 
ATOM     53  NBI XZN d   1     -11.682  12.375   8.406  0.00  0.00    -0.072 N 
ATOM     54  H20 XZN d   1     -11.381  13.855   9.902  0.00  0.00     0.078 H 
ATOM     55  H21 XZN d   1     -12.354  12.437  10.422  0.00  0.00     0.078 H 
ATOM     56  CAR XZN d   1     -11.830  10.898   8.268  0.00  0.00     0.105 C 
ATOM     57  H28 XZN d   1     -12.556  12.783   8.113  0.00  0.00     0.279 HD
ATOM     58  CAP XZN d   1     -10.553  10.202   8.791  0.00  0.00     0.106 C 
ATOM     59  H22 XZN d   1     -12.698  10.560   8.853  0.00  0.00     0.078 H 
ATOM     60  H23 XZN d   1     -11.980  10.642   7.209  0.00  0.00     0.078 H 
ATOM     61  H18 XZN d   1      -9.707  10.479   8.145  0.00  0.00     0.078 H 
ATOM     62  H19 XZN d   1     -10.701   9.113   8.753  0.00  0.00     0.078 H 
ATOM     63  H26 XZN d   1     -11.001  10.268  10.768  0.00  0.00     0.280 HD
BRANCH  53  64
ATOM     64  CAO XZN d   1     -10.636  12.934   7.509  0.00  0.00     0.066 C 
ATOM     65  H13 XZN d   1     -10.572  14.023   7.654  0.00  0.00     0.068 H 
ATOM     66  H14 XZN d   1     -10.897  12.718   6.462  0.00  0.00     0.068 H 
ATOM     67  H15 XZN d   1      -9.665  12.475   7.747  0.00  0.00     0.068 H 
ENDBRANCH  53  64
ENDBRANCH  45  48
ENDBRANCH  42  45
ENDBRANCH  39  42
ENDBRANCH  38  39
ENDBRANCH   9  38
TORSDOF 12
