REMARK  10 active torsions:
REMARK  status: ('A' for Active; 'I' for Inactive)
REMARK    1  A    between atoms: C3_3  and  C2_2 
REMARK       I    between atoms: N2_22  and  C3_3 
REMARK    2  A    between atoms: N6_4  and  C20_16 
REMARK    3  A    between atoms: C9_7  and  C10_8 
REMARK    4  A    between atoms: N_18  and  C11_9 
REMARK    5  A    between atoms: C13_11  and  N5_30 
REMARK    6  A    between atoms: C14_12  and  C15_13 
REMARK    7  A    between atoms: C20_16  and  C21_17 
REMARK    8  A    between atoms: C21_17  and  O1_33 
REMARK    9  A    between atoms: C_19  and  N_18 
REMARK   10  A    between atoms: N2_22  and  C4_23 
ROOT
ATOM      1  C11 1N1 d   1      26.431   7.878   0.536  0.00  0.00     0.135 A 
ATOM      2  C12 1N1 d   1      26.055   9.177   0.903  0.00  0.00     0.006 A 
ATOM      3  C13 1N1 d   1      24.927   9.319   1.712  0.00  0.00     0.131 A 
ATOM      4  C14 1N1 d   1      24.641   7.017   1.760  0.00  0.00     0.126 A 
ATOM      5  N3  1N1 d   1      24.259   8.234   2.117  0.00  0.00    -0.216 NA
ATOM      6  N4  1N1 d   1      25.707   6.831   0.982  0.00  0.00    -0.216 NA
ATOM      7  H8  1N1 d   1      26.620  10.040   0.571  0.00  0.00     0.095 H 
ENDROOT
BRANCH   1   8
ATOM      8  N   1N1 d   1      27.606   7.740  -0.302  0.00  0.00    -0.320 N 
ATOM      9  H20 1N1 d   1      28.091   8.572  -0.668  0.00  0.00     0.169 HD
BRANCH   8  10
ATOM     10  C   1N1 d   1      28.074   6.437  -0.608  0.00  0.00     0.172 A 
ATOM     11  N1  1N1 d   1      29.116   6.229  -1.351  0.00  0.00    -0.235 NA
ATOM     12  C1  1N1 d   1      29.438   4.957  -1.540  0.00  0.00     0.027 A 
ATOM     13  C2  1N1 d   1      28.573   4.077  -0.891  0.00  0.00     0.094 A 
ATOM     14  H1  1N1 d   1      30.288   4.634  -2.139  0.00  0.00     0.117 H 
ATOM     15  S   1N1 d   1      27.347   4.944  -0.031  0.00  0.00    -0.045 SA
BRANCH  13  16
ATOM     16  C3  1N1 d   1      28.596   2.601  -0.886  0.00  0.00     0.264 C 
ATOM     17  N2  1N1 d   1      29.736   2.001  -1.466  0.00  0.00    -0.320 N 
ATOM     18  H21 1N1 d   1      30.471   2.568  -1.838  0.00  0.00     0.169 HD
ATOM     19  O   1N1 d   1      27.684   1.953  -0.403  0.00  0.00    -0.267 OA
BRANCH  17  20
ATOM     20  C4  1N1 d   1      29.831   0.549  -1.517  0.00  0.00     0.062 A 
ATOM     21  C9  1N1 d   1      30.644  -0.133  -0.603  0.00  0.00    -0.034 A 
ATOM     22  C8  1N1 d   1      30.763  -1.507  -0.693  0.00  0.00    -0.075 A 
ATOM     23  C7  1N1 d   1      30.076  -2.171  -1.690  0.00  0.00    -0.081 A 
ATOM     24  H4  1N1 d   1      31.385  -2.054   0.007  0.00  0.00     0.084 H 
ATOM     25  C6  1N1 d   1      29.259  -1.490  -2.596  0.00  0.00    -0.060 A 
ATOM     26  H3  1N1 d   1      30.173  -3.248  -1.772  0.00  0.00     0.083 H 
ATOM     27  C5  1N1 d   1      29.138  -0.120  -2.511  0.00  0.00     0.061 A 
ATOM     28  H22 1N1 d   1      28.723  -2.037  -3.363  0.00  0.00     0.086 H 
ATOM     29 CL   1N1 d   1      28.154   0.743  -3.650  0.00  0.00    -0.082 Cl
BRANCH  21  30
ATOM     30  C10 1N1 d   1      31.400   0.648   0.445  0.00  0.00    -0.049 C 
ATOM     31  H5  1N1 d   1      31.982  -0.045   1.070  0.00  0.00     0.033 H 
ATOM     32  H6  1N1 d   1      30.688   1.200   1.075  0.00  0.00     0.033 H 
ATOM     33  H7  1N1 d   1      32.081   1.358  -0.047  0.00  0.00     0.033 H 
ENDBRANCH  21  30
ENDBRANCH  17  20
ENDBRANCH  13  16
ENDBRANCH   8  10
ENDBRANCH   1   8
BRANCH   3  34
ATOM     34  N5  1N1 d   1      24.512  10.655   2.131  0.00  0.00    -0.362 N 
ATOM     35  C16 1N1 d   1      23.898  10.628   3.426  0.00  0.00     0.019 C 
ATOM     36  C17 1N1 d   1      23.230  11.910   3.706  0.00  0.00     0.098 C 
ATOM     37  H12 1N1 d   1      24.670  10.447   4.189  0.00  0.00     0.066 H 
ATOM     38  H13 1N1 d   1      23.155   9.818   3.458  0.00  0.00     0.066 H 
ATOM     39  N6  1N1 d   1      24.191  12.977   3.522  0.00  0.00    -0.066 N 
ATOM     40  H23 1N1 d   1      22.386  12.047   3.015  0.00  0.00     0.078 H 
ATOM     41  H24 1N1 d   1      22.860  11.918   4.742  0.00  0.00     0.078 H 
ATOM     42  C18 1N1 d   1      24.588  13.086   2.110  0.00  0.00     0.098 C 
ATOM     43  H2  1N1 d   1      23.586  13.777   3.619  0.00  0.00     0.280 HD
ATOM     44  C19 1N1 d   1      25.305  11.809   1.724  0.00  0.00     0.019 C 
ATOM     45  H25 1N1 d   1      25.261  13.946   1.977  0.00  0.00     0.078 H 
ATOM     46  H26 1N1 d   1      23.695  13.217   1.481  0.00  0.00     0.078 H 
ATOM     47  H14 1N1 d   1      25.450  11.787   0.634  0.00  0.00     0.066 H 
ATOM     48  H15 1N1 d   1      26.284  11.774   2.224  0.00  0.00     0.066 H 
BRANCH  39  49
ATOM     49  C20 1N1 d   1      25.203  13.332   4.533  0.00  0.00     0.103 C 
ATOM     50  H16 1N1 d   1      26.189  13.450   4.060  0.00  0.00     0.079 H 
ATOM     51  H17 1N1 d   1      25.259  12.552   5.307  0.00  0.00     0.079 H 
BRANCH  49  52
ATOM     52  C21 1N1 d   1      24.754  14.639   5.139  0.00  0.00     0.039 C 
ATOM     53  H18 1N1 d   1      24.736  15.414   4.358  0.00  0.00     0.076 H 
ATOM     54  H19 1N1 d   1      25.459  14.932   5.931  0.00  0.00     0.076 H 
BRANCH  52  55
ATOM     55  O1  1N1 d   1      23.486  14.508   5.681  0.00  0.00    -0.399 OA
ATOM     56  H27 1N1 d   1      23.217  15.337   6.058  0.00  0.00     0.209 HD
ENDBRANCH  52  55
ENDBRANCH  49  52
ENDBRANCH  39  49
ENDBRANCH   3  34
BRANCH   4  57
ATOM     57  C15 1N1 d   1      23.851   5.854   2.223  0.00  0.00    -0.019 C 
ATOM     58  H9  1N1 d   1      23.017   6.203   2.849  0.00  0.00     0.037 H 
ATOM     59  H10 1N1 d   1      24.495   5.184   2.811  0.00  0.00     0.037 H 
ATOM     60  H11 1N1 d   1      23.453   5.311   1.353  0.00  0.00     0.037 H 
ENDBRANCH   4  57
TORSDOF 10
