REMARK  11 active torsions:
REMARK  status: ('A' for Active; 'I' for Inactive)
REMARK    1  A    between atoms: C13_2  and  O02_25 
REMARK    2  A    between atoms: C16_26  and  C17_4 
REMARK    3  A    between atoms: C01_9  and  C02_10 
REMARK       I    between atoms: N01_14  and  C01_9 
REMARK    4  A    between atoms: C03_11  and  C04_12 
REMARK    5  A    between atoms: C04_12  and  N02_15 
REMARK    6  A    between atoms: C12_23  and  N01_14 
REMARK    7  A    between atoms: N02_15  and  C05_16 
REMARK    8  A    between atoms: N02_15  and  C06_17 
REMARK    9  A    between atoms: N05_29  and  C09_21 
REMARK   10  A    between atoms: O02_25  and  C16_26 
REMARK   11  A    between atoms: N05_29  and  C19_30 
ROOT
ATOM      1  C10 93J d   1      18.764  14.062   8.684  0.00  0.00     0.023 A 
ATOM      2  C13 93J d   1      17.706  11.476   9.211  0.00  0.00     0.097 A 
ATOM      3  C15 93J d   1      19.465  13.141   9.522  0.00  0.00     0.071 A 
ATOM      4  N03 93J d   1      20.652  13.490  10.075  0.00  0.00    -0.259 NA
ATOM      5  C07 93J d   1      21.185  14.729   9.856  0.00  0.00     0.025 A 
ATOM      6  C08 93J d   1      20.540  15.696   9.034  0.00  0.00     0.089 A 
ATOM      7  C09 93J d   1      19.287  15.379   8.418  0.00  0.00     0.067 A 
ATOM      8  C11 93J d   1      17.539  13.635   8.133  0.00  0.00    -0.040 A 
ATOM      9  C12 93J d   1      16.989  12.362   8.382  0.00  0.00     0.069 A 
ATOM     10  C14 93J d   1      18.940  11.859   9.774  0.00  0.00    -0.020 A 
ATOM     11  C18 93J d   1      21.186  16.844   8.935  0.00  0.00     0.103 C 
ATOM     12  N04 93J d   1      21.758  17.844   8.847  0.00  0.00    -0.191 NA
ATOM     13  H18 93J d   1      22.129  14.984  10.323  0.00  0.00     0.117 H 
ATOM     14  H19 93J d   1      16.996  14.317   7.489  0.00  0.00     0.088 H 
ATOM     15  H20 93J d   1      19.486  11.165  10.402  0.00  0.00     0.091 H 
ENDROOT
BRANCH   7  16
ATOM     16  N05 93J d   1      18.609  16.274   7.555  0.00  0.00    -0.354 N 
ATOM     17  H23 93J d   1      17.581  16.223   7.507  0.00  0.00     0.166 HD
BRANCH  16  18
ATOM     18  C19 93J d   1      19.264  17.224   6.764  0.00  0.00     0.034 A 
ATOM     19  C20 93J d   1      20.520  17.003   6.109  0.00  0.00    -0.033 A 
ATOM     20  C21 93J d   1      21.170  18.028   5.373  0.00  0.00     0.074 A 
ATOM     21  H4  93J d   1      20.986  16.027   6.178  0.00  0.00     0.089 H 
ATOM     22  C22 93J d   1      20.577  19.294   5.276  0.00  0.00     0.138 A 
ATOM     23 CL1  93J d   1      22.661  17.768   4.601  0.00  0.00    -0.081 Cl
ATOM     24  C23 93J d   1      19.342  19.540   5.903  0.00  0.00    -0.042 A 
ATOM     25  F01 93J d   1      21.182  20.236   4.605  0.00  0.00    -0.204 F 
ATOM     26  C24 93J d   1      18.698  18.523   6.643  0.00  0.00    -0.054 A 
ATOM     27  H24 93J d   1      18.881  20.517   5.818  0.00  0.00     0.088 H 
ATOM     28  H5  93J d   1      17.753  18.737   7.129  0.00  0.00     0.087 H 
ENDBRANCH  16  18
ENDBRANCH   7  16
BRANCH   9  29
ATOM     29  N01 93J d   1      15.791  11.965   7.847  0.00  0.00    -0.321 N 
ATOM     30  C01 93J d   1      14.728  12.736   7.462  0.00  0.00     0.245 C 
ATOM     31  O01 93J d   1      14.901  13.893   7.011  0.00  0.00    -0.268 OA
ATOM     32  H10 93J d   1      15.679  10.979   7.721  0.00  0.00     0.169 HD
BRANCH  30  33
ATOM     33  C02 93J d   1      13.439  12.230   7.554  0.00  0.00    -0.019 C 
ATOM     34  C03 93J d   1      12.395  12.720   6.857  0.00  0.00    -0.073 C 
ATOM     35  H7  93J d   1      12.566  13.557   6.181  0.00  0.00     0.079 H 
ATOM     36  H6  93J d   1      13.262  11.392   8.226  0.00  0.00     0.091 H 
BRANCH  34  37
ATOM     37  C04 93J d   1      11.047  12.179   6.968  0.00  0.00     0.098 C 
ATOM     38  H8  93J d   1      10.616  12.510   7.925  0.00  0.00     0.082 H 
ATOM     39  H9  93J d   1      11.110  11.081   6.955  0.00  0.00     0.082 H 
BRANCH  37  40
ATOM     40  N02 93J d   1      10.133  12.617   5.857  0.00  0.00    -0.076 N 
ATOM     41  H11 93J d   1       9.514  11.837   5.703  0.00  0.00     0.279 HD
BRANCH  40  42
ATOM     42  C05 93J d   1      10.810  12.844   4.538  0.00  0.00     0.066 C 
ATOM     43  H12 93J d   1      10.065  13.160   3.793  0.00  0.00     0.068 H 
ATOM     44  H13 93J d   1      11.288  11.911   4.206  0.00  0.00     0.068 H 
ATOM     45  H14 93J d   1      11.574  13.628   4.648  0.00  0.00     0.068 H 
ENDBRANCH  40  42
BRANCH  40  46
ATOM     46  C06 93J d   1       9.250  13.756   6.254  0.00  0.00     0.066 C 
ATOM     47  H15 93J d   1       8.782  13.536   7.225  0.00  0.00     0.068 H 
ATOM     48  H16 93J d   1       8.468  13.896   5.493  0.00  0.00     0.068 H 
ATOM     49  H17 93J d   1       9.850  14.674   6.336  0.00  0.00     0.068 H 
ENDBRANCH  40  46
ENDBRANCH  37  40
ENDBRANCH  34  37
ENDBRANCH  30  33
ENDBRANCH   9  29
BRANCH   2  50
ATOM     50  O02 93J d   1      17.200  10.233   9.466  0.00  0.00    -0.349 OA
BRANCH  50  51
ATOM     51  C16 93J d   1      17.889   9.405  10.418  0.00  0.00     0.023 C 
ATOM     52  H21 93J d   1      18.922   9.211  10.093  0.00  0.00     0.074 H 
ATOM     53  H22 93J d   1      17.899   9.876  11.412  0.00  0.00     0.074 H 
BRANCH  51  54
ATOM     54  C17 93J d   1      17.067   8.106  10.436  0.00  0.00    -0.056 C 
ATOM     55  H1  93J d   1      17.519   7.396  11.145  0.00  0.00     0.030 H 
ATOM     56  H2  93J d   1      17.058   7.664   9.429  0.00  0.00     0.030 H 
ATOM     57  H3  93J d   1      16.036   8.329  10.748  0.00  0.00     0.030 H 
ENDBRANCH  51  54
ENDBRANCH  50  51
ENDBRANCH   2  50
TORSDOF 11
