REMARK  12 active torsions:
REMARK  status: ('A' for Active; 'I' for Inactive)
REMARK    1  A    between atoms: OAV_20  and  CAA_1 
REMARK    2  A    between atoms: CAX_22  and  O02_2 
REMARK    3  A    between atoms: O02_2  and  C01_35 
REMARK    4  A    between atoms: CAM_11  and  CAC_3 
REMARK    5  A    between atoms: CAC_3  and  NBH_32 
REMARK    6  A    between atoms: CAN_12  and  CAM_11 
REMARK    7  A    between atoms: OAW_21  and  CAN_12 
REMARK    8  A    between atoms: NBI_34  and  CAO_13 
REMARK    9  A    between atoms: NAU_19  and  CBB_26 
REMARK   10  A    between atoms: CBE_29  and  NAU_19 
REMARK   11  A    between atoms: CBC_27  and  OAV_20 
REMARK   12  A    between atoms: CBD_28  and  OAW_21 
ROOT
ATOM      1  NAD XZN d   1       4.019   1.164  -1.523  0.00  0.00    -0.191 NA
ATOM      2  CAG XZN d   1       5.087   0.769  -1.625  0.00  0.00     0.103 C 
ATOM      3  CAH XZN d   1       7.365   1.108  -1.669  0.00  0.00     0.025 A 
ATOM      4  CAK XZN d   1      10.179  -1.152  -1.583  0.00  0.00    -0.019 A 
ATOM      5  CAL XZN d   1       8.083  -3.022  -1.774  0.00  0.00    -0.034 A 
ATOM      6  NAT XZN d   1       8.611   0.636  -1.640  0.00  0.00    -0.259 NA
ATOM      7  CBA XZN d   1       6.275   0.242  -1.733  0.00  0.00     0.089 A 
ATOM      8  CBC XZN d   1       9.397  -3.449  -1.696  0.00  0.00     0.102 A 
ATOM      9  CBD XZN d   1      10.411  -2.532  -1.584  0.00  0.00     0.104 A 
ATOM     10  CBE XZN d   1       6.458  -1.154  -1.825  0.00  0.00     0.067 A 
ATOM     11  CBF XZN d   1       8.856  -0.702  -1.655  0.00  0.00     0.071 A 
ATOM     12  CBG XZN d   1       7.782  -1.632  -1.769  0.00  0.00     0.024 A 
ATOM     13  H6  XZN d   1       7.197   2.179  -1.643  0.00  0.00     0.117 H 
ATOM     14  H7  XZN d   1      11.003  -0.450  -1.528  0.00  0.00     0.091 H 
ATOM     15  H8  XZN d   1       7.281  -3.749  -1.839  0.00  0.00     0.089 H 
ENDROOT
BRANCH  10  16
ATOM     16  NAU XZN d   1       5.374  -2.001  -1.998  0.00  0.00    -0.354 N 
ATOM     17  H24 XZN d   1       5.395  -2.927  -1.548  0.00  0.00     0.166 HD
BRANCH  16  18
ATOM     18  CBB XZN d   1       4.252  -1.651  -2.759  0.00  0.00     0.035 A 
ATOM     19  CAZ XZN d   1       4.289  -0.827  -3.908  0.00  0.00    -0.033 A 
ATOM     20  CAI XZN d   1       3.133  -0.412  -4.557  0.00  0.00     0.071 A 
ATOM     21  H25 XZN d   1       5.250  -0.509  -4.295  0.00  0.00     0.089 H 
ATOM     22 CL2  XZN d   1       3.270   0.541  -5.962  0.00  0.00    -0.081 Cl
ATOM     23  CAX XZN d   1       1.891  -0.817  -4.088  0.00  0.00     0.111 A 
ATOM     24  CAY XZN d   1       1.819  -1.622  -2.969  0.00  0.00     0.071 A 
ATOM     25 CL1  XZN d   1       0.308  -2.149  -2.408  0.00  0.00    -0.081 Cl
ATOM     26  CAJ XZN d   1       2.980  -2.030  -2.325  0.00  0.00    -0.033 A 
ATOM     27  H27 XZN d   1       2.896  -2.667  -1.452  0.00  0.00     0.089 H 
BRANCH  23  28
ATOM     28  O02 XZN d   1       0.766  -0.432  -4.738  0.00  0.00    -0.352 OA
BRANCH  28  29
ATOM     29  C01 XZN d   1       0.249   0.836  -4.242  0.00  0.00     0.011 C 
ATOM     30  H29 XZN d   1      -0.661   1.104  -4.799  0.00  0.00     0.067 H 
ATOM     31  H30 XZN d   1       1.008   1.620  -4.380  0.00  0.00     0.067 H 
ATOM     32  H31 XZN d   1       0.009   0.741  -3.173  0.00  0.00     0.067 H 
ENDBRANCH  28  29
ENDBRANCH  23  28
ENDBRANCH  16  18
ENDBRANCH  10  16
BRANCH   8  33
ATOM     33  OAV XZN d   1       9.767  -4.757  -1.652  0.00  0.00    -0.353 OA
BRANCH  33  34
ATOM     34  CAA XZN d   1       8.730  -5.728  -1.458  0.00  0.00     0.010 C 
ATOM     35  H1  XZN d   1       9.170  -6.736  -1.443  0.00  0.00     0.066 H 
ATOM     36  H2  XZN d   1       8.003  -5.657  -2.280  0.00  0.00     0.066 H 
ATOM     37  H3  XZN d   1       8.222  -5.536  -0.502  0.00  0.00     0.066 H 
ENDBRANCH  33  34
ENDBRANCH   8  33
BRANCH   9  38
ATOM     38  OAW XZN d   1      11.637  -3.063  -1.466  0.00  0.00    -0.348 OA
BRANCH  38  39
ATOM     39  CAN XZN d   1      12.759  -2.183  -1.434  0.00  0.00     0.028 C 
ATOM     40  H11 XZN d   1      12.894  -1.701  -2.413  0.00  0.00     0.075 H 
ATOM     41  H12 XZN d   1      12.617  -1.412  -0.662  0.00  0.00     0.075 H 
BRANCH  39  42
ATOM     42  CAM XZN d   1      13.981  -3.059  -1.097  0.00  0.00    -0.022 C 
ATOM     43  H9  XZN d   1      14.886  -2.435  -1.121  0.00  0.00     0.038 H 
ATOM     44  H10 XZN d   1      13.853  -3.480  -0.089  0.00  0.00     0.038 H 
BRANCH  42  45
ATOM     45  CAC XZN d   1      14.140  -4.210  -2.103  0.00  0.00     0.086 C 
ATOM     46  H4  XZN d   1      14.237  -3.770  -3.107  0.00  0.00     0.076 H 
ATOM     47  H5  XZN d   1      13.229  -4.825  -2.059  0.00  0.00     0.076 H 
BRANCH  45  48
ATOM     48  NBH XZN d   1      15.321  -5.116  -1.879  0.00  0.00    -0.068 N 
ATOM     49  CAQ XZN d   1      15.561  -5.696  -0.528  0.00  0.00     0.106 C 
ATOM     50  CAS XZN d   1      16.822  -6.594  -0.599  0.00  0.00     0.105 C 
ATOM     51  H16 XZN d   1      15.721  -4.887   0.200  0.00  0.00     0.078 H 
ATOM     52  H17 XZN d   1      14.693  -6.298  -0.223  0.00  0.00     0.078 H 
ATOM     53  NBI XZN d   1      16.585  -7.674  -1.595  0.00  0.00    -0.072 N 
ATOM     54  H20 XZN d   1      17.016  -7.038   0.389  0.00  0.00     0.078 H 
ATOM     55  H21 XZN d   1      17.689  -5.991  -0.907  0.00  0.00     0.078 H 
ATOM     56  CAR XZN d   1      16.382  -7.053  -2.902  0.00  0.00     0.105 C 
ATOM     57  H28 XZN d   1      15.742  -8.162  -1.334  0.00  0.00     0.279 HD
ATOM     58  CAP XZN d   1      15.090  -6.265  -2.787  0.00  0.00     0.106 C 
ATOM     59  H22 XZN d   1      17.220  -6.382  -3.142  0.00  0.00     0.078 H 
ATOM     60  H23 XZN d   1      16.293  -7.823  -3.683  0.00  0.00     0.078 H 
ATOM     61  H18 XZN d   1      14.298  -6.909  -2.377  0.00  0.00     0.078 H 
ATOM     62  H19 XZN d   1      14.789  -5.899  -3.780  0.00  0.00     0.078 H 
ATOM     63  H26 XZN d   1      16.152  -4.613  -2.147  0.00  0.00     0.280 HD
BRANCH  53  64
ATOM     64  CAO XZN d   1      17.688  -8.677  -1.658  0.00  0.00     0.066 C 
ATOM     65  H13 XZN d   1      17.826  -9.133  -0.667  0.00  0.00     0.068 H 
ATOM     66  H14 XZN d   1      18.619  -8.179  -1.965  0.00  0.00     0.068 H 
ATOM     67  H15 XZN d   1      17.432  -9.458  -2.389  0.00  0.00     0.068 H 
ENDBRANCH  53  64
ENDBRANCH  45  48
ENDBRANCH  42  45
ENDBRANCH  39  42
ENDBRANCH  38  39
ENDBRANCH   9  38
TORSDOF 12
