REMARK  11 active torsions:
REMARK  status: ('A' for Active; 'I' for Inactive)
REMARK    1  A    between atoms: C01_1  and  N02_2 
REMARK    2  A    between atoms: N05_5  and  C08_8 
REMARK    3  A    between atoms: C11_11  and  N12_12 
REMARK    4  A    between atoms: N12_12  and  C13_13 
REMARK    5  A    between atoms: N19_19  and  C20_20 
REMARK    6  A    between atoms: C20_20  and  C21_21 
REMARK    7  A    between atoms: N23_23  and  C26_26 
REMARK    8  A    between atoms: C28_28  and  C32_32 
REMARK    9  A    between atoms: C32_32  and  C33_33 
REMARK   10  A    between atoms: C32_32  and  C34_34 
REMARK   11  A    between atoms: C32_32  and  O35_35 
ROOT
ATOM      1  C13 8X7 d   1     -14.597   0.268   2.237  0.00  0.00     0.728 A 
ATOM      2  N14 8X7 d   1     -14.963  -1.039   2.249  0.00  0.00    -0.074 NA
ATOM      3  C15 8X7 d   1     -16.250  -1.442   2.426  0.00  0.00     0.040 A 
ATOM      4  C16 8X7 d   1     -17.225  -0.452   2.604  0.00  0.00     0.100 A 
ATOM      5  C17 8X7 d   1     -18.626  -0.473   2.803  0.00  0.00     0.278 A 
ATOM      6  O18 8X7 d   1     -19.455  -1.443   2.891  0.00  0.00    -0.265 OA
ATOM      7  N19 8X7 d   1     -19.003   0.835   2.898  0.00  0.00    -0.243 N 
ATOM      8  N23 8X7 d   1     -17.948   1.635   2.792  0.00  0.00    -0.213 N 
ATOM      9  C24 8X7 d   1     -16.857   0.871   2.598  0.00  0.00     0.187 A 
ATOM     10  N25 8X7 d   1     -15.565   1.207   2.415  0.00  0.00    -0.042 NA
ATOM     11  H16 8X7 d   1     -16.512  -2.494   2.429  0.00  0.00     0.117 H 
ENDROOT
BRANCH   1  12
ATOM     12  N12 8X7 d   1     -13.281   0.560   2.049  0.00  0.00    -0.188 N 
ATOM     13  H15 8X7 d   1     -12.652  -0.248   1.940  0.00  0.00     0.184 HD
BRANCH  12  14
ATOM     14  C11 8X7 d   1     -12.688   1.792   1.986  0.00  0.00     0.049 A 
ATOM     15  C10 8X7 d   1     -13.342   3.024   1.782  0.00  0.00    -0.054 A 
ATOM     16  C09 8X7 d   1     -12.625   4.226   1.740  0.00  0.00    -0.055 A 
ATOM     17  H14 8X7 d   1     -14.418   3.041   1.655  0.00  0.00     0.087 H 
ATOM     18  C08 8X7 d   1     -11.212   4.272   1.898  0.00  0.00     0.030 A 
ATOM     19  H13 8X7 d   1     -13.165   5.153   1.582  0.00  0.00     0.087 H 
ATOM     20  C37 8X7 d   1     -10.577   3.019   2.103  0.00  0.00    -0.055 A 
ATOM     21  C36 8X7 d   1     -11.293   1.813   2.147  0.00  0.00    -0.054 A 
ATOM     22  H33 8X7 d   1      -9.501   2.993   2.230  0.00  0.00     0.087 H 
ATOM     23  H32 8X7 d   1     -10.761   0.882   2.308  0.00  0.00     0.087 H 
BRANCH  18  24
ATOM     24  N05 8X7 d   1     -10.486   5.474   1.859  0.00  0.00    -0.378 N 
ATOM     25  C04 8X7 d   1     -11.001   6.690   1.246  0.00  0.00     0.018 C 
ATOM     26  C03 8X7 d   1     -10.842   7.886   2.215  0.00  0.00     0.098 C 
ATOM     27  H7  8X7 d   1     -10.442   6.895   0.321  0.00  0.00     0.066 H 
ATOM     28  H8  8X7 d   1     -12.066   6.554   1.008  0.00  0.00     0.066 H 
ATOM     29  N02 8X7 d   1      -9.408   8.046   2.587  0.00  0.00    -0.072 N 
ATOM     30  H5  8X7 d   1     -11.197   8.804   1.724  0.00  0.00     0.078 H 
ATOM     31  H6  8X7 d   1     -11.437   7.703   3.122  0.00  0.00     0.078 H 
ATOM     32  C07 8X7 d   1      -8.842   6.789   3.167  0.00  0.00     0.098 C 
ATOM     33  H4  8X7 d   1      -8.908   8.205   1.726  0.00  0.00     0.279 HD
ATOM     34  C06 8X7 d   1      -9.072   5.596   2.196  0.00  0.00     0.018 C 
ATOM     35  H11 8X7 d   1      -9.337   6.577   4.126  0.00  0.00     0.078 H 
ATOM     36  H12 8X7 d   1      -7.762   6.920   3.332  0.00  0.00     0.078 H 
ATOM     37  H9  8X7 d   1      -8.494   5.763   1.275  0.00  0.00     0.066 H 
ATOM     38  H10 8X7 d   1      -8.734   4.667   2.678  0.00  0.00     0.066 H 
BRANCH  29  39
ATOM     39  C01 8X7 d   1      -9.173   9.252   3.424  0.00  0.00     0.066 C 
ATOM     40  H1  8X7 d   1      -9.616  10.131   2.933  0.00  0.00     0.068 H 
ATOM     41  H2  8X7 d   1      -8.091   9.408   3.547  0.00  0.00     0.068 H 
ATOM     42  H3  8X7 d   1      -9.638   9.110   4.411  0.00  0.00     0.068 H 
ENDBRANCH  29  39
ENDBRANCH  18  24
ENDBRANCH  12  14
ENDBRANCH   1  12
BRANCH   8  43
ATOM     43  C26 8X7 d   1     -17.874   3.001   2.788  0.00  0.00     0.151 A 
ATOM     44  N27 8X7 d   1     -18.900   3.654   2.210  0.00  0.00    -0.231 NA
ATOM     45  C28 8X7 d   1     -19.012   4.997   2.074  0.00  0.00     0.070 A 
ATOM     46  C29 8X7 d   1     -17.961   5.796   2.571  0.00  0.00    -0.056 A 
ATOM     47  C30 8X7 d   1     -16.853   5.173   3.170  0.00  0.00    -0.077 A 
ATOM     48  H22 8X7 d   1     -18.008   6.876   2.492  0.00  0.00     0.086 H 
ATOM     49  C31 8X7 d   1     -16.793   3.771   3.273  0.00  0.00    -0.037 A 
ATOM     50  H23 8X7 d   1     -16.039   5.777   3.555  0.00  0.00     0.083 H 
ATOM     51  H24 8X7 d   1     -15.930   3.289   3.718  0.00  0.00     0.089 H 
BRANCH  45  52
ATOM     52  C32 8X7 d   1     -20.238   5.550   1.432  0.00  0.00     0.095 C 
BRANCH  52  53
ATOM     53  C33 8X7 d   1     -21.432   5.565   2.427  0.00  0.00    -0.043 C 
ATOM     54  H25 8X7 d   1     -22.321   5.977   1.927  0.00  0.00     0.032 H 
ATOM     55  H26 8X7 d   1     -21.177   6.190   3.296  0.00  0.00     0.032 H 
ATOM     56  H27 8X7 d   1     -21.643   4.539   2.762  0.00  0.00     0.032 H 
ENDBRANCH  52  53
BRANCH  52  57
ATOM     57  C34 8X7 d   1     -20.611   4.678   0.199  0.00  0.00    -0.043 C 
ATOM     58  H28 8X7 d   1     -19.769   4.664  -0.508  0.00  0.00     0.032 H 
ATOM     59  H29 8X7 d   1     -21.498   5.102  -0.295  0.00  0.00     0.032 H 
ATOM     60  H30 8X7 d   1     -20.830   3.652   0.528  0.00  0.00     0.032 H 
ENDBRANCH  52  57
BRANCH  52  61
ATOM     61  O35 8X7 d   1     -20.018   6.891   0.980  0.00  0.00    -0.384 OA
ATOM     62  H31 8X7 d   1     -19.817   7.446   1.724  0.00  0.00     0.211 HD
ENDBRANCH  52  61
ENDBRANCH  45  52
ENDBRANCH   8  43
BRANCH   7  63
ATOM     63  C20 8X7 d   1     -20.378   1.214   3.130  0.00  0.00     0.033 C 
ATOM     64  H17 8X7 d   1     -21.037   0.710   2.408  0.00  0.00     0.073 H 
ATOM     65  H18 8X7 d   1     -20.492   2.304   3.031  0.00  0.00     0.073 H 
BRANCH  63  66
ATOM     66  C21 8X7 d   1     -20.707   0.798   4.480  0.00  0.00    -0.093 C 
ATOM     67  C22 8X7 d   1     -21.751   0.017   4.782  0.00  0.00    -0.123 C 
ATOM     68  H20 8X7 d   1     -21.943  -0.259   5.818  0.00  0.00     0.066 H 
ATOM     69  H21 8X7 d   1     -22.409  -0.342   3.992  0.00  0.00     0.066 H 
ATOM     70  H19 8X7 d   1     -20.069   1.140   5.293  0.00  0.00     0.078 H 
ENDBRANCH  63  66
ENDBRANCH   7  63
TORSDOF 11
