REMARK  8 active torsions:
REMARK  status: ('A' for Active; 'I' for Inactive)
REMARK       I    between atoms: C2_2  and  N3_3 
REMARK    1  A    between atoms: C2_2  and  C5_5 
REMARK    2  A    between atoms: N3_3  and  C4_4 
REMARK    3  A    between atoms: N7_7  and  C8_8 
REMARK    4  A    between atoms: C14_14  and  C15_15 
REMARK    5  A    between atoms: C14_14  and  C16_16 
REMARK    6  A    between atoms: N21_21  and  C22_22 
REMARK    7  A    between atoms: C25_25  and  N28_28 
REMARK    8  A    between atoms: N31_31  and  C32_32 
ROOT
ATOM      1  C5  P48 d   1       3.534  -3.595  -2.407  0.00  0.00     0.154 A 
ATOM      2  N6  P48 d   1       4.433  -4.579  -2.476  0.00  0.00    -0.166 NA
ATOM      3  N7  P48 d   1       5.676  -4.018  -2.513  0.00  0.00    -0.271 N 
ATOM      4  C9  P48 d   1       5.626  -2.686  -2.508  0.00  0.00     0.092 A 
ATOM      5  C10 P48 d   1       4.211  -2.283  -2.425  0.00  0.00     0.017 A 
ATOM      6  C11 P48 d   1       6.717  -1.701  -2.432  0.00  0.00     0.112 A 
ATOM      7  C12 P48 d   1       6.372  -0.344  -2.553  0.00  0.00    -0.007 A 
ATOM      8  C13 P48 d   1       4.946   0.081  -2.919  0.00  0.00    -0.027 C 
ATOM      9  C14 P48 d   1       3.831  -0.799  -2.343  0.00  0.00    -0.012 C 
ATOM     10  N17 P48 d   1       7.978  -2.094  -2.122  0.00  0.00    -0.060 NA
ATOM     11  C18 P48 d   1       8.967  -1.187  -1.969  0.00  0.00     0.727 A 
ATOM     12  N19 P48 d   1       8.652   0.132  -2.120  0.00  0.00    -0.074 NA
ATOM     13  C20 P48 d   1       7.406   0.568  -2.392  0.00  0.00     0.029 A 
ATOM     14  N21 P48 d   1      10.250  -1.520  -1.686  0.00  0.00    -0.188 N 
ATOM     15  H8  P48 d   1       4.858   0.066  -4.015  0.00  0.00     0.042 H 
ATOM     16  H9  P48 d   1       4.793   1.107  -2.553  0.00  0.00     0.042 H 
ATOM     17  H16 P48 d   1       7.212   1.630  -2.485  0.00  0.00     0.116 H 
ATOM     18  H17 P48 d   1      10.848  -0.721  -1.432  0.00  0.00     0.184 HD
ENDROOT
BRANCH  14  19
ATOM     19  C22 P48 d   1      10.899  -2.736  -1.677  0.00  0.00     0.049 A 
ATOM     20  C23 P48 d   1      12.306  -2.790  -1.754  0.00  0.00    -0.054 A 
ATOM     21  C24 P48 d   1      12.994  -3.988  -1.746  0.00  0.00    -0.055 A 
ATOM     22  H18 P48 d   1      12.865  -1.863  -1.821  0.00  0.00     0.087 H 
ATOM     23  C25 P48 d   1      12.317  -5.216  -1.688  0.00  0.00     0.030 A 
ATOM     24  H19 P48 d   1      14.077  -3.979  -1.785  0.00  0.00     0.087 H 
ATOM     25  C26 P48 d   1      10.888  -5.195  -1.609  0.00  0.00    -0.055 A 
ATOM     26  C27 P48 d   1      10.185  -3.966  -1.591  0.00  0.00    -0.054 A 
ATOM     27  H20 P48 d   1      10.339  -6.128  -1.562  0.00  0.00     0.087 H 
ATOM     28  H21 P48 d   1       9.104  -3.961  -1.512  0.00  0.00     0.087 H 
BRANCH  23  29
ATOM     29  N28 P48 d   1      13.053  -6.427  -1.696  0.00  0.00    -0.378 N 
ATOM     30  C29 P48 d   1      12.393  -7.743  -1.703  0.00  0.00     0.018 C 
ATOM     31  C30 P48 d   1      12.911  -8.295  -3.014  0.00  0.00     0.098 C 
ATOM     32  H22 P48 d   1      11.297  -7.649  -1.705  0.00  0.00     0.066 H 
ATOM     33  H23 P48 d   1      12.707  -8.361  -0.849  0.00  0.00     0.066 H 
ATOM     34  N31 P48 d   1      14.331  -8.567  -2.773  0.00  0.00    -0.072 N 
ATOM     35  H24 P48 d   1      12.790  -7.556  -3.820  0.00  0.00     0.078 H 
ATOM     36  H25 P48 d   1      12.380  -9.220  -3.281  0.00  0.00     0.078 H 
ATOM     37  C33 P48 d   1      15.147  -7.679  -1.951  0.00  0.00     0.098 C 
ATOM     38  H26 P48 d   1      14.655  -8.232  -3.667  0.00  0.00     0.279 HD
ATOM     39  C34 P48 d   1      14.481  -6.313  -2.093  0.00  0.00     0.018 C 
ATOM     40  H30 P48 d   1      16.182  -7.648  -2.321  0.00  0.00     0.078 H 
ATOM     41  H31 P48 d   1      15.143  -8.007  -0.901  0.00  0.00     0.078 H 
ATOM     42  H32 P48 d   1      14.988  -5.586  -1.442  0.00  0.00     0.066 H 
ATOM     43  H33 P48 d   1      14.547  -5.977  -3.138  0.00  0.00     0.066 H 
BRANCH  34  44
ATOM     44  C32 P48 d   1      14.832  -9.932  -2.899  0.00  0.00     0.066 C 
ATOM     45  H27 P48 d   1      15.911  -9.948  -2.684  0.00  0.00     0.068 H 
ATOM     46  H28 P48 d   1      14.657 -10.294  -3.923  0.00  0.00     0.068 H 
ATOM     47  H29 P48 d   1      14.306 -10.583  -2.185  0.00  0.00     0.068 H 
ENDBRANCH  34  44
ENDBRANCH  23  29
ENDBRANCH  14  19
BRANCH   3  48
ATOM     48  C8  P48 d   1       6.784  -4.980  -2.627  0.00  0.00     0.003 C 
ATOM     49  H5  P48 d   1       7.740  -4.437  -2.649  0.00  0.00     0.059 H 
ATOM     50  H6  P48 d   1       6.671  -5.561  -3.554  0.00  0.00     0.059 H 
ATOM     51  H7  P48 d   1       6.769  -5.661  -1.763  0.00  0.00     0.059 H 
ENDBRANCH   3  48
BRANCH   1  52
ATOM     52  C2  P48 d   1       2.102  -3.835  -2.348  0.00  0.00     0.272 C 
ATOM     53  O1  P48 d   1       1.376  -2.948  -1.921  0.00  0.00    -0.266 OA
ATOM     54  N3  P48 d   1       1.694  -5.040  -2.694  0.00  0.00    -0.360 N 
ATOM     55  H1  P48 d   1       2.389  -5.700  -2.980  0.00  0.00     0.162 HD
BRANCH  54  56
ATOM     56  C4  P48 d   1       0.304  -5.482  -2.690  0.00  0.00    -0.018 C 
ATOM     57  H2  P48 d   1       0.251  -6.529  -3.023  0.00  0.00     0.056 H 
ATOM     58  H3  P48 d   1      -0.283  -4.851  -3.373  0.00  0.00     0.056 H 
ATOM     59  H4  P48 d   1      -0.104  -5.400  -1.672  0.00  0.00     0.056 H 
ENDBRANCH  54  56
ENDBRANCH   1  52
BRANCH   9  60
ATOM     60  C15 P48 d   1       3.594  -0.413  -0.894  0.00  0.00    -0.065 C 
ATOM     61  H10 P48 d   1       2.795  -1.041  -0.473  0.00  0.00     0.028 H 
ATOM     62  H11 P48 d   1       3.296   0.645  -0.840  0.00  0.00     0.028 H 
ATOM     63  H12 P48 d   1       4.519  -0.563  -0.318  0.00  0.00     0.028 H 
ENDBRANCH   9  60
BRANCH   9  64
ATOM     64  C16 P48 d   1       2.643  -0.487  -3.232  0.00  0.00    -0.065 C 
ATOM     65  H13 P48 d   1       2.870  -0.786  -4.266  0.00  0.00     0.028 H 
ATOM     66  H14 P48 d   1       2.435   0.593  -3.200  0.00  0.00     0.028 H 
ATOM     67  H15 P48 d   1       1.762  -1.041  -2.875  0.00  0.00     0.028 H 
ENDBRANCH   9  64
TORSDOF 8
