REMARK  8 active torsions:
REMARK  status: ('A' for Active; 'I' for Inactive)
REMARK    1  A    between atoms: C01_1  and  C02_2 
REMARK       I    between atoms: C02_2  and  N04_4 
REMARK    2  A    between atoms: N04_4  and  C05_5 
REMARK    3  A    between atoms: C05_5  and  C06_6 
REMARK       I    between atoms: C06_6  and  N08_8 
REMARK    4  A    between atoms: C17_17  and  N19_19 
REMARK    5  A    between atoms: N19_19  and  C20_20 
REMARK    6  A    between atoms: C23_23  and  C31_31 
REMARK    7  A    between atoms: C24_24  and  N26_26 
REMARK    8  A    between atoms: N26_26  and  C27_27 
ROOT
ATOM      1  C06 34W d   1      -9.621  10.303   8.041  0.00  0.00     0.238 C 
ATOM      2  O07 34W d   1      -9.584   9.958   6.828  0.00  0.00    -0.272 OA
ATOM      3  N08 34W d   1      -8.473  10.206   8.797  0.00  0.00    -0.333 N 
ATOM      4  C09 34W d   1      -7.113  10.341   8.357  0.00  0.00     0.041 C 
ATOM      5  C10 34W d   1      -6.665  11.684   9.030  0.00  0.00    -0.040 C 
ATOM      6  C11 34W d   1      -7.573  11.746  10.289  0.00  0.00    -0.040 C 
ATOM      7  C12 34W d   1      -8.327  10.380  10.207  0.00  0.00     0.041 C 
ATOM      8  C13 34W d   1      -7.427   9.208  10.312  0.00  0.00    -0.025 A 
ATOM      9  C14 34W d   1      -6.662   9.185   9.144  0.00  0.00    -0.027 A 
ATOM     10  C15 34W d   1      -5.698   8.198   8.915  0.00  0.00    -0.072 A 
ATOM     11  C16 34W d   1      -5.526   7.216   9.915  0.00  0.00    -0.056 A 
ATOM     12  C17 34W d   1      -6.295   7.211  11.109  0.00  0.00     0.050 A 
ATOM     13  C18 34W d   1      -7.258   8.233  11.306  0.00  0.00    -0.048 A 
ATOM     14  H7  34W d   1      -6.916  10.293   7.276  0.00  0.00     0.080 H 
ATOM     15  H8  34W d   1      -6.847  12.542   8.366  0.00  0.00     0.036 H 
ATOM     16  H9  34W d   1      -5.601  11.654   9.308  0.00  0.00     0.036 H 
ATOM     17  H10 34W d   1      -8.273  12.593  10.237  0.00  0.00     0.036 H 
ATOM     18  H11 34W d   1      -6.976  11.819  11.210  0.00  0.00     0.036 H 
ATOM     19  H12 34W d   1      -9.232  10.339  10.831  0.00  0.00     0.080 H 
ATOM     20  H13 34W d   1      -5.107   8.187   8.007  0.00  0.00     0.084 H 
ATOM     21  H14 34W d   1      -4.783   6.441   9.767  0.00  0.00     0.086 H 
ATOM     22  H15 34W d   1      -7.854   8.260  12.211  0.00  0.00     0.087 H 
ENDROOT
BRANCH  12  23
ATOM     23  N19 34W d   1      -6.104   6.260  12.069  0.00  0.00    -0.188 N 
ATOM     24  H16 34W d   1      -6.668   6.434  12.913  0.00  0.00     0.184 HD
BRANCH  23  25
ATOM     25  C20 34W d   1      -5.341   5.132  12.173  0.00  0.00     0.728 A 
ATOM     26  N21 34W d   1      -5.412   4.348  13.273  0.00  0.00    -0.074 NA
ATOM     27  C22 34W d   1      -4.688   3.223  13.422  0.00  0.00     0.039 A 
ATOM     28  C23 34W d   1      -3.793   2.807  12.424  0.00  0.00     0.112 A 
ATOM     29  H17 34W d   1      -4.798   2.631  14.324  0.00  0.00     0.117 H 
ATOM     30  C24 34W d   1      -3.723   3.633  11.273  0.00  0.00     0.159 A 
ATOM     31  N25 34W d   1      -4.489   4.751  11.198  0.00  0.00    -0.044 NA
BRANCH  28  32
ATOM     32  C31 34W d   1      -3.010   1.554  12.605  0.00  0.00     0.422 C 
ATOM     33  F32 34W d   1      -1.643   1.734  12.575  0.00  0.00    -0.166 F 
ATOM     34  F33 34W d   1      -3.335   0.685  11.612  0.00  0.00    -0.166 F 
ATOM     35  F34 34W d   1      -3.286   0.942  13.789  0.00  0.00    -0.166 F 
ENDBRANCH  28  32
BRANCH  30  36
ATOM     36  N26 34W d   1      -2.896   3.337  10.237  0.00  0.00    -0.369 N 
ATOM     37  H18 34W d   1      -2.508   2.386  10.165  0.00  0.00     0.161 HD
BRANCH  36  38
ATOM     38  C27 34W d   1      -2.547   4.304   9.244  0.00  0.00     0.011 C 
ATOM     39  C28 34W d   1      -3.540   4.326   8.066  0.00  0.00    -0.046 C 
ATOM     40  C29 34W d   1      -2.333   4.445   7.129  0.00  0.00    -0.061 C 
ATOM     41  H20 34W d   1      -4.216   5.193   8.054  0.00  0.00     0.035 H 
ATOM     42  H21 34W d   1      -4.125   3.403   7.943  0.00  0.00     0.035 H 
ATOM     43  C30 34W d   1      -1.499   3.782   8.238  0.00  0.00    -0.046 C 
ATOM     44  H22 34W d   1      -2.039   5.477   6.887  0.00  0.00     0.033 H 
ATOM     45  H23 34W d   1      -2.412   3.860   6.201  0.00  0.00     0.033 H 
ATOM     46  H24 34W d   1      -1.434   2.686   8.170  0.00  0.00     0.035 H 
ATOM     47  H25 34W d   1      -0.490   4.202   8.367  0.00  0.00     0.035 H 
ATOM     48  H19 34W d   1      -2.326   5.278   9.705  0.00  0.00     0.072 H 
ENDBRANCH  36  38
ENDBRANCH  30  36
ENDBRANCH  23  25
ENDBRANCH  12  23
BRANCH   1  49
ATOM     49  C05 34W d   1     -10.904  10.807   8.607  0.00  0.00     0.069 C 
ATOM     50  H5  34W d   1     -11.155  10.197   9.487  0.00  0.00     0.078 H 
ATOM     51  H6  34W d   1     -10.757  11.853   8.915  0.00  0.00     0.078 H 
BRANCH  49  52
ATOM     52  N04 34W d   1     -12.009  10.759   7.699  0.00  0.00    -0.353 N 
ATOM     53  C02 34W d   1     -13.280  10.437   8.086  0.00  0.00     0.213 C 
ATOM     54  O03 34W d   1     -13.503   9.829   9.170  0.00  0.00    -0.274 OA
ATOM     55  H4  34W d   1     -11.844  10.971   6.736  0.00  0.00     0.162 HD
BRANCH  53  56
ATOM     56  C01 34W d   1     -14.427  10.796   7.230  0.00  0.00    -0.003 C 
ATOM     57  H1  34W d   1     -14.065  11.316   6.331  0.00  0.00     0.040 H 
ATOM     58  H2  34W d   1     -15.108  11.457   7.787  0.00  0.00     0.040 H 
ATOM     59  H3  34W d   1     -14.963   9.883   6.934  0.00  0.00     0.040 H 
ENDBRANCH  53  56
ENDBRANCH  49  52
ENDBRANCH   1  49
TORSDOF 8
