REMARK  9 active torsions:
REMARK  status: ('A' for Active; 'I' for Inactive)
REMARK    1  A    between atoms: C1_1  and  N2_2 
REMARK    2  A    between atoms: N5_5  and  C6_6 
REMARK    3  A    between atoms: C6_6  and  C7_7 
REMARK    4  A    between atoms: C7_7  and  O8_8 
REMARK    5  A    between atoms: O8_8  and  C9_9 
REMARK    6  A    between atoms: C11_11  and  O12_12 
REMARK    7  A    between atoms: O12_12  and  C13_13 
REMARK    8  A    between atoms: C20_20  and  N21_21 
REMARK    9  A    between atoms: N21_21  and  C22_22 
ROOT
ATOM      1  C9  H8H d   1     -13.138   2.747   1.862  0.00  0.00     0.073 A 
ATOM      2  C10 H8H d   1     -14.149   3.700   1.978  0.00  0.00    -0.018 A 
ATOM      3  C11 H8H d   1     -15.458   3.333   2.248  0.00  0.00     0.088 A 
ATOM      4  C19 H8H d   1     -15.784   1.965   2.416  0.00  0.00     0.072 A 
ATOM      5  C20 H8H d   1     -17.116   1.477   2.694  0.00  0.00     0.144 A 
ATOM      6  N32 H8H d   1     -17.284   0.153   2.826  0.00  0.00    -0.223 NA
ATOM      7  C33 H8H d   1     -16.290  -0.680   2.706  0.00  0.00     0.089 A 
ATOM      8  N34 H8H d   1     -15.053  -0.286   2.449  0.00  0.00    -0.241 NA
ATOM      9  C35 H8H d   1     -14.744   1.001   2.298  0.00  0.00     0.077 A 
ATOM     10  C36 H8H d   1     -13.436   1.396   2.021  0.00  0.00    -0.022 A 
ATOM     11  H14 H8H d   1     -13.906   4.749   1.855  0.00  0.00     0.092 H 
ATOM     12  H29 H8H d   1     -16.484  -1.740   2.821  0.00  0.00     0.146 H 
ATOM     13  H30 H8H d   1     -12.652   0.653   1.929  0.00  0.00     0.091 H 
ENDROOT
BRANCH   1  14
ATOM     14  O8  H8H d   1     -11.895   3.248   1.591  0.00  0.00    -0.349 OA
BRANCH  14  15
ATOM     15  C7  H8H d   1     -10.867   2.273   1.591  0.00  0.00     0.049 C 
ATOM     16  H12 H8H d   1     -10.732   1.876   2.608  0.00  0.00     0.077 H 
ATOM     17  H13 H8H d   1     -11.134   1.452   0.909  0.00  0.00     0.077 H 
BRANCH  15  18
ATOM     18  C6  H8H d   1      -9.582   2.929   1.124  0.00  0.00     0.103 C 
ATOM     19  H10 H8H d   1      -8.902   2.146   0.758  0.00  0.00     0.079 H 
ATOM     20  H11 H8H d   1      -9.820   3.621   0.303  0.00  0.00     0.079 H 
BRANCH  18  21
ATOM     21  N5  H8H d   1      -8.907   3.674   2.178  0.00  0.00    -0.066 N 
ATOM     22  C4  H8H d   1      -7.553   3.936   1.632  0.00  0.00     0.106 C 
ATOM     23  C3  H8H d   1      -6.744   4.878   2.549  0.00  0.00     0.105 C 
ATOM     24  H7  H8H d   1      -7.015   2.981   1.537  0.00  0.00     0.078 H 
ATOM     25  H8  H8H d   1      -7.652   4.401   0.640  0.00  0.00     0.078 H 
ATOM     26  N2  H8H d   1      -7.502   6.143   2.744  0.00  0.00    -0.072 N 
ATOM     27  H5  H8H d   1      -6.582   4.393   3.523  0.00  0.00     0.078 H 
ATOM     28  H6  H8H d   1      -5.772   5.100   2.083  0.00  0.00     0.078 H 
ATOM     29  C38 H8H d   1      -8.854   5.878   3.315  0.00  0.00     0.105 C 
ATOM     30  H4  H8H d   1      -7.589   6.630   1.866  0.00  0.00     0.279 HD
ATOM     31  C37 H8H d   1      -9.622   4.966   2.346  0.00  0.00     0.106 C 
ATOM     32  H33 H8H d   1      -9.396   6.827   3.440  0.00  0.00     0.078 H 
ATOM     33  H34 H8H d   1      -8.754   5.381   4.291  0.00  0.00     0.078 H 
ATOM     34  H31 H8H d   1     -10.628   4.775   2.748  0.00  0.00     0.078 H 
ATOM     35  H32 H8H d   1      -9.706   5.464   1.369  0.00  0.00     0.078 H 
ATOM     36  H9  H8H d   1      -8.871   3.161   3.045  0.00  0.00     0.280 HD
BRANCH  26  37
ATOM     37  C1  H8H d   1      -6.759   6.964   3.724  0.00  0.00     0.066 C 
ATOM     38  H1  H8H d   1      -5.753   7.179   3.334  0.00  0.00     0.068 H 
ATOM     39  H2  H8H d   1      -6.674   6.415   4.673  0.00  0.00     0.068 H 
ATOM     40  H3  H8H d   1      -7.297   7.909   3.893  0.00  0.00     0.068 H 
ENDBRANCH  26  37
ENDBRANCH  18  21
ENDBRANCH  15  18
ENDBRANCH  14  15
ENDBRANCH   1  14
BRANCH   3  41
ATOM     41  O12 H8H d   1     -16.486   4.223   2.369  0.00  0.00    -0.345 OA
BRANCH  41  42
ATOM     42  C13 H8H d   1     -16.256   5.586   2.013  0.00  0.00     0.049 C 
ATOM     43  C14 H8H d   1     -16.279   5.579   0.476  0.00  0.00    -0.021 C 
ATOM     44  C15 H8H d   1     -17.163   6.650  -0.166  0.00  0.00     0.022 C 
ATOM     45  H16 H8H d   1     -16.642   4.595   0.145  0.00  0.00     0.040 H 
ATOM     46  H17 H8H d   1     -15.249   5.729   0.119  0.00  0.00     0.040 H 
ATOM     47  O16 H8H d   1     -18.370   6.808   0.575  0.00  0.00    -0.391 OA
ATOM     48  H18 H8H d   1     -17.407   6.349  -1.196  0.00  0.00     0.074 H 
ATOM     49  H19 H8H d   1     -16.620   7.606  -0.182  0.00  0.00     0.074 H 
ATOM     50  C17 H8H d   1     -18.176   7.309   1.890  0.00  0.00     0.022 C 
ATOM     51  C18 H8H d   1     -17.425   6.261   2.730  0.00  0.00    -0.021 C 
ATOM     52  H20 H8H d   1     -19.153   7.518   2.351  0.00  0.00     0.074 H 
ATOM     53  H21 H8H d   1     -17.585   8.236   1.846  0.00  0.00     0.074 H 
ATOM     54  H22 H8H d   1     -17.034   6.759   3.629  0.00  0.00     0.040 H 
ATOM     55  H23 H8H d   1     -18.142   5.481   3.026  0.00  0.00     0.040 H 
ATOM     56  H15 H8H d   1     -15.295   5.981   2.375  0.00  0.00     0.084 H 
ENDBRANCH  41  42
ENDBRANCH   3  41
BRANCH   5  57
ATOM     57  N21 H8H d   1     -18.222   2.331   2.837  0.00  0.00    -0.336 N 
ATOM     58  H24 H8H d   1     -18.072   3.343   2.716  0.00  0.00     0.168 HD
BRANCH  57  59
ATOM     59  C22 H8H d   1     -19.544   1.880   3.141  0.00  0.00     0.092 A 
ATOM     60  C23 H8H d   1     -19.821   1.046   4.229  0.00  0.00     0.133 A 
ATOM     61  O24 H8H d   1     -19.005   0.489   5.195  0.00  0.00    -0.321 OA
ATOM     62  C27 H8H d   1     -21.133   0.632   4.474  0.00  0.00     0.107 A 
ATOM     63  C25 H8H d   1     -19.787  -0.360   6.046  0.00  0.00     0.115 A 
ATOM     64  O26 H8H d   1     -21.131  -0.168   5.588  0.00  0.00    -0.323 OA
ATOM     65  H25 H8H d   1     -19.686  -0.058   7.099  0.00  0.00     0.118 H 
ATOM     66  H26 H8H d   1     -19.483  -1.411   5.935  0.00  0.00     0.118 H 
ATOM     67  C28 H8H d   1     -22.172   1.042   3.656  0.00  0.00    -0.046 A 
ATOM     68  C29 H8H d   1     -21.919   1.870   2.576  0.00  0.00    -0.057 A 
ATOM     69  H27 H8H d   1     -23.185   0.714   3.861  0.00  0.00     0.087 H 
ATOM     70  C30 H8H d   1     -20.618   2.277   2.328  0.00  0.00     0.063 A 
ATOM     71  H28 H8H d   1     -22.728   2.196   1.933  0.00  0.00     0.086 H 
ATOM     72 CL3  H8H d   1     -20.322   3.317   0.969  0.00  0.00    -0.082 Cl
ENDBRANCH  57  59
ENDBRANCH   5  57
TORSDOF 9
