REMARK  7 active torsions:
REMARK  status: ('A' for Active; 'I' for Inactive)
REMARK    1  A    between atoms: C11_12  and  C6_4 
REMARK    2  A    between atoms: C3_5  and  O2_17 
REMARK    3  A    between atoms: C7_6  and  O9_18 
REMARK    4  A    between atoms: C12_9  and  C11_12 
REMARK    5  A    between atoms: C12_9  and  O19_16 
REMARK    6  A    between atoms: O2_17  and  C1_10 
REMARK    7  A    between atoms: O9_18  and  C10_11 
ROOT
ATOM      1  C5  9AA d   1       1.189   4.992  83.593  0.00  0.00    -0.071 A 
ATOM      2  C4  9AA d   1       1.491   6.352  83.704  0.00  0.00    -0.050 A 
ATOM      3  C8  9AA d   1      -0.657   6.796  84.608  0.00  0.00    -0.018 A 
ATOM      4  C6  9AA d   1      -0.058   4.564  83.986  0.00  0.00    -0.019 A 
ATOM      5  C3  9AA d   1       0.581   7.227  84.200  0.00  0.00     0.070 A 
ATOM      6  C7  9AA d   1      -0.997   5.485  84.465  0.00  0.00     0.077 A 
ATOM      7  H1  9AA d   1       1.920   4.291  83.206  0.00  0.00     0.084 H 
ATOM      8  H2  9AA d   1       2.464   6.712  83.390  0.00  0.00     0.087 H 
ATOM      9  H3  9AA d   1      -1.361   7.497  85.042  0.00  0.00     0.092 H 
ENDROOT
BRANCH   4  10
ATOM     10  C11 9AA d   1      -0.422   3.090  83.846  0.00  0.00     0.017 C 
ATOM     11  H10 9AA d   1       0.308   2.636  83.159  0.00  0.00     0.048 H 
ATOM     12  H11 9AA d   1      -1.426   3.041  83.399  0.00  0.00     0.048 H 
BRANCH  10  13
ATOM     13  C12 9AA d   1      -0.446   2.265  85.071  0.00  0.00     0.221 C 
ATOM     14  C13 9AA d   1      -0.879   0.899  84.799  0.00  0.00     0.280 C 
ATOM     15  N15 9AA d   1      -2.003   0.555  85.540  0.00  0.00    -0.300 N 
ATOM     16  O14 9AA d   1      -0.404   0.091  83.990  0.00  0.00    -0.268 OA
ATOM     17  C16 9AA d   1      -2.297   1.700  86.268  0.00  0.00     0.177 C 
ATOM     18  H12 9AA d   1      -2.490  -0.319  85.547  0.00  0.00     0.171 HD
ATOM     19  N18 9AA d   1      -1.211   2.580  86.155  0.00  0.00    -0.327 N 
ATOM     20  S17 9AA d   1      -3.724   2.014  87.059  0.00  0.00    -0.041 SA
ATOM     21  H13 9AA d   1      -1.023   3.335  86.783  0.00  0.00     0.165 HD
BRANCH  13  22
ATOM     22  O19 9AA d   1       0.898   2.244  85.659  0.00  0.00    -0.363 OA
ATOM     23  H14 9AA d   1       1.534   2.031  84.986  0.00  0.00     0.213 HD
ENDBRANCH  13  22
ENDBRANCH  10  13
ENDBRANCH   4  10
BRANCH   6  24
ATOM     24  O9  9AA d   1      -2.196   4.935  84.825  0.00  0.00    -0.355 OA
BRANCH  24  25
ATOM     25  C10 9AA d   1      -3.173   5.852  85.304  0.00  0.00     0.010 C 
ATOM     26  H7  9AA d   1      -4.092   5.306  85.563  0.00  0.00     0.066 H 
ATOM     27  H8  9AA d   1      -3.395   6.593  84.522  0.00  0.00     0.066 H 
ATOM     28  H9  9AA d   1      -2.787   6.365  86.197  0.00  0.00     0.066 H 
ENDBRANCH  24  25
ENDBRANCH   6  24
BRANCH   5  29
ATOM     29  O2  9AA d   1       0.759   8.598  84.430  0.00  0.00    -0.356 OA
BRANCH  29  30
ATOM     30  C1  9AA d   1       2.089   9.122  84.277  0.00  0.00     0.010 C 
ATOM     31  H4  9AA d   1       2.084  10.202  84.486  0.00  0.00     0.066 H 
ATOM     32  H5  9AA d   1       2.435   8.949  83.247  0.00  0.00     0.066 H 
ATOM     33  H6  9AA d   1       2.766   8.616  84.981  0.00  0.00     0.066 H 
ENDBRANCH  29  30
ENDBRANCH   5  29
TORSDOF 7
