REMARK  0 active torsions:
REMARK  status: ('A' for Active; 'I' for Inactive)
ROOT
ATOM      1  C01 MOL d   1      35.220  46.383  -3.477  0.00  0.00    -0.081 A 
ATOM      2  C02 MOL d   1      36.378  46.383  -2.730  0.00  0.00    -0.072 A 
ATOM      3  C03 MOL d   1      36.324  46.383  -1.357  0.00  0.00    -0.024 A 
ATOM      4  C04 MOL d   1      37.500  46.384  -0.529  0.00  0.00    -0.071 A 
ATOM      5  C05 MOL d   1      37.418  46.386   0.816  0.00  0.00    -0.071 A 
ATOM      6  C06 MOL d   1      36.153  46.383   1.498  0.00  0.00    -0.024 A 
ATOM      7  C07 MOL d   1      36.049  46.382   2.870  0.00  0.00    -0.072 A 
ATOM      8  C08 MOL d   1      34.808  46.383   3.477  0.00  0.00    -0.081 A 
ATOM      9  C09 MOL d   1      33.663  46.379   2.723  0.00  0.00    -0.072 A 
ATOM     10  C10 MOL d   1      33.736  46.378   1.351  0.00  0.00    -0.024 A 
ATOM     11  C11 MOL d   1      34.987  46.380   0.713  0.00  0.00    -0.004 A 
ATOM     12  C12 MOL d   1      35.074  46.379  -0.712  0.00  0.00    -0.004 A 
ATOM     13  C13 MOL d   1      33.903  46.378  -1.487  0.00  0.00    -0.024 A 
ATOM     14  C14 MOL d   1      33.991  46.377  -2.859  0.00  0.00    -0.072 A 
ATOM     15  C15 MOL d   1      32.638  46.377  -0.809  0.00  0.00    -0.071 A 
ATOM     16  C16 MOL d   1      32.558  46.375   0.535  0.00  0.00    -0.071 A 
ATOM     17  H1  MOL d   1      35.278  46.388  -4.559  0.00  0.00     0.083 H 
ATOM     18  H2  MOL d   1      37.340  46.383  -3.230  0.00  0.00     0.084 H 
ATOM     19  H3  MOL d   1      38.477  46.383  -0.999  0.00  0.00     0.084 H 
ATOM     20  H4  MOL d   1      38.331  46.390   1.400  0.00  0.00     0.084 H 
ATOM     21  H5  MOL d   1      36.946  46.380   3.478  0.00  0.00     0.084 H 
ATOM     22  H6  MOL d   1      34.739  46.387   4.559  0.00  0.00     0.083 H 
ATOM     23  H7  MOL d   1      32.695  46.377   3.212  0.00  0.00     0.084 H 
ATOM     24  H8  MOL d   1      33.087  46.371  -3.457  0.00  0.00     0.084 H 
ATOM     25  H9  MOL d   1      31.725  46.378  -1.393  0.00  0.00     0.084 H 
ATOM     26  H10 MOL d   1      31.583  46.371   1.009  0.00  0.00     0.084 H 
ENDROOT
TORSDOF 0
