REMARK  13 active torsions:
REMARK  status: ('A' for Active; 'I' for Inactive)
REMARK    1  A    between atoms: CA_2  and  CB_5 
REMARK    2  A    between atoms: CB_5  and  CG_6 
REMARK    3  A    between atoms: CA_13  and  CB_16 
REMARK    4  A    between atoms: CB_16  and  CG_17 
REMARK    5  A    between atoms: C02_32  and  O01_31 
REMARK    6  A    between atoms: C03_33  and  C02_32 
REMARK    7  A    between atoms: C02_32  and  O02_42 
REMARK    8  A    between atoms: C02_32  and  C30_43 
REMARK    9  A    between atoms: C04_34  and  C03_33 
REMARK   10  A    between atoms: C05_35  and  C04_34 
REMARK   11  A    between atoms: C06_36  and  C05_35 
REMARK   12  A    between atoms: C07_37  and  C06_36 
REMARK   13  A    between atoms: C08_38  and  C07_37 
ROOT
ATOM      1  N   PHE d   1       4.844  -4.949 -32.703  0.00  0.00    -0.346 N 
ATOM      2  CA  PHE d   1       4.472  -3.917 -33.607  0.00  0.00     0.093 C 
ATOM      3  C   PHE d   1       4.511  -4.611 -34.995  0.00  0.00     0.241 C 
ATOM      4  O   PHE d   1       3.568  -4.528 -35.774  0.00  0.00    -0.271 OA
ATOM      5  N   PHE d   1       5.618  -5.326 -35.371  0.00  0.00    -0.346 N 
ATOM      6  CA  PHE d   1       5.774  -5.930 -36.677  0.00  0.00     0.093 C 
ATOM      7  C   PHE d   1       5.004  -7.223 -36.906  0.00  0.00     0.243 C 
ATOM      8  O   PHE d   1       4.407  -7.320 -37.964  0.00  0.00    -0.271 OA
ATOM      9  H1  PHE d   1       5.810  -5.199 -32.632  0.00  0.00     0.163 HD
ATOM     10  H2  PHE d   1       3.457  -3.566 -33.368  0.00  0.00     0.088 H 
ATOM     11  H10 PHE d   1       6.358  -5.436 -34.707  0.00  0.00     0.163 HD
ATOM     12  H11 PHE d   1       5.379  -5.205 -37.404  0.00  0.00     0.088 H 
ATOM     13  N   CPI d   1       5.006  -8.336 -36.040  0.00  0.00    -0.337 N 
ATOM     14  CE  CPI d   1       4.166  -9.491 -36.405  0.00  0.00    -0.001 C 
ATOM     15  CD  CPI d   1       4.729 -10.839 -35.980  0.00  0.00    -0.050 C 
ATOM     16  CG  CPI d   1       5.233 -10.804 -34.566  0.00  0.00    -0.061 C 
ATOM     17  CB  CPI d   1       6.232  -9.685 -34.387  0.00  0.00    -0.038 C 
ATOM     18  CA  CPI d   1       5.666  -8.314 -34.746  0.00  0.00     0.091 C 
ATOM     19  C   CPI d   1       4.690  -7.774 -33.688  0.00  0.00     0.241 C 
ATOM     20  O   CPI d   1       3.515  -7.523 -33.932  0.00  0.00    -0.271 OA
ATOM     21  H19 CPI d   1       4.047  -9.498 -37.498  0.00  0.00     0.064 H 
ATOM     22  H20 CPI d   1       3.182  -9.364 -35.930  0.00  0.00     0.064 H 
ATOM     23  H21 CPI d   1       5.560 -11.106 -36.649  0.00  0.00     0.035 H 
ATOM     24  H22 CPI d   1       3.937 -11.598 -36.058  0.00  0.00     0.035 H 
ATOM     25  H23 CPI d   1       5.718 -11.763 -34.331  0.00  0.00     0.033 H 
ATOM     26  H24 CPI d   1       4.385 -10.645 -33.883  0.00  0.00     0.033 H 
ATOM     27  H25 CPI d   1       7.101  -9.885 -35.032  0.00  0.00     0.036 H 
ATOM     28  H26 CPI d   1       6.553  -9.667 -33.335  0.00  0.00     0.036 H 
ATOM     29  H27 CPI d   1       6.513  -7.615 -34.808  0.00  0.00     0.087 H 
ATOM     30  C08 5OM d   1       4.421  -6.918 -31.340  0.00  0.00     0.089 C 
ATOM     31  N09 5OM d   1       5.179  -7.585 -32.420  0.00  0.00    -0.346 N 
ATOM     32  C27 5OM d   1       3.936  -5.615 -31.926  0.00  0.00     0.241 C 
ATOM     33  O28 5OM d   1       2.798  -5.200 -31.724  0.00  0.00    -0.271 OA
ATOM     34  H39 5OM d   1       3.550  -7.530 -31.063  0.00  0.00     0.087 H 
ATOM     35  H40 5OM d   1       6.100  -7.917 -32.215  0.00  0.00     0.163 HD
ENDROOT
BRANCH  30  36
ATOM     36  C07 5OM d   1       5.287  -6.764 -30.125  0.00  0.00    -0.038 C 
ATOM     37  H37 5OM d   1       5.669  -7.757 -29.844  0.00  0.00     0.036 H 
ATOM     38  H38 5OM d   1       6.130  -6.106 -30.382  0.00  0.00     0.036 H 
BRANCH  36  39
ATOM     39  C06 5OM d   1       4.572  -6.175 -28.931  0.00  0.00    -0.063 C 
ATOM     40  H35 5OM d   1       4.207  -5.171 -29.192  0.00  0.00     0.033 H 
ATOM     41  H36 5OM d   1       3.719  -6.819 -28.671  0.00  0.00     0.033 H 
BRANCH  39  42
ATOM     42  C05 5OM d   1       5.484  -6.069 -27.743  0.00  0.00    -0.065 C 
ATOM     43  H33 5OM d   1       5.944  -7.053 -27.568  0.00  0.00     0.033 H 
ATOM     44  H34 5OM d   1       6.269  -5.333 -27.971  0.00  0.00     0.033 H 
BRANCH  42  45
ATOM     45  C04 5OM d   1       4.774  -5.637 -26.472  0.00  0.00    -0.060 C 
ATOM     46  H31 5OM d   1       4.182  -4.735 -26.687  0.00  0.00     0.033 H 
ATOM     47  H32 5OM d   1       4.104  -6.447 -26.149  0.00  0.00     0.033 H 
BRANCH  45  48
ATOM     48  C03 5OM d   1       5.742  -5.327 -25.346  0.00  0.00    -0.011 C 
ATOM     49  H29 5OM d   1       6.552  -6.071 -25.376  0.00  0.00     0.041 H 
ATOM     50  H30 5OM d   1       6.159  -4.324 -25.519  0.00  0.00     0.041 H 
BRANCH  48  51
ATOM     51  C02 5OM d   1       5.124  -5.352 -23.951  0.00  0.00     0.188 C 
BRANCH  51  52
ATOM     52  O01 5OM d   1       4.075  -4.396 -23.887  0.00  0.00    -0.363 OA
ATOM     53  H28 5OM d   1       4.424  -3.532 -24.071  0.00  0.00     0.213 HD
ENDBRANCH  51  52
BRANCH  51  54
ATOM     54  O02 5OM d   1       4.531  -6.584 -23.671  0.00  0.00    -0.363 OA
ATOM     55  H41 5OM d   1       5.192  -7.266 -23.700  0.00  0.00     0.213 HD
ENDBRANCH  51  54
BRANCH  51  56
ATOM     56  C30 5OM d   1       6.110  -5.042 -22.811  0.00  0.00     0.112 A 
ATOM     57  C31 5OM d   1       7.403  -4.338 -23.019  0.00  0.00     0.049 A 
ATOM     58  O32 5OM d   1       7.362  -5.767 -22.885  0.00  0.00    -0.376 OA
ATOM     59  H43 5OM d   1       7.830  -3.721 -22.215  0.00  0.00     0.078 H 
ATOM     60  H44 5OM d   1       7.632  -3.882 -23.993  0.00  0.00     0.078 H 
ATOM     61  H42 5OM d   1       5.566  -4.904 -21.865  0.00  0.00     0.095 H 
ENDBRANCH  51  56
ENDBRANCH  48  51
ENDBRANCH  45  48
ENDBRANCH  42  45
ENDBRANCH  39  42
ENDBRANCH  36  39
ENDBRANCH  30  36
BRANCH   2  62
ATOM     62  CB  PHE d   1       5.412  -2.709 -33.651  0.00  0.00    -0.014 C 
ATOM     63  H3  PHE d   1       6.436  -3.074 -33.819  0.00  0.00     0.043 H 
ATOM     64  H4  PHE d   1       5.360  -2.195 -32.680  0.00  0.00     0.043 H 
BRANCH  62  65
ATOM     65  CG  PHE d   1       5.080  -1.712 -34.734  0.00  0.00    -0.056 A 
ATOM     66  CD1 PHE d   1       5.818  -1.642 -35.915  0.00  0.00    -0.077 A 
ATOM     67  CE1 PHE d   1       5.473  -0.760 -36.934  0.00  0.00    -0.082 A 
ATOM     68  H5  PHE d   1       6.679  -2.288 -36.042  0.00  0.00     0.084 H 
ATOM     69  CZ  PHE d   1       4.359   0.053 -36.810  0.00  0.00    -0.083 A 
ATOM     70  H7  PHE d   1       6.080  -0.709 -37.831  0.00  0.00     0.083 H 
ATOM     71  CE2 PHE d   1       3.589  -0.044 -35.673  0.00  0.00    -0.082 A 
ATOM     72  H9  PHE d   1       4.098   0.754 -37.595  0.00  0.00     0.083 H 
ATOM     73  CD2 PHE d   1       3.930  -0.927 -34.660  0.00  0.00    -0.077 A 
ATOM     74  H8  PHE d   1       2.707   0.577 -35.569  0.00  0.00     0.083 H 
ATOM     75  H6  PHE d   1       3.288  -1.009 -33.791  0.00  0.00     0.084 H 
ENDBRANCH  62  65
ENDBRANCH   2  62
BRANCH   6  76
ATOM     76  CB  PHE d   1       7.257  -6.118 -36.979  0.00  0.00    -0.014 C 
ATOM     77  H12 PHE d   1       7.354  -6.853 -37.791  0.00  0.00     0.043 H 
ATOM     78  H13 PHE d   1       7.748  -6.505 -36.074  0.00  0.00     0.043 H 
BRANCH  76  79
ATOM     79  CG  PHE d   1       7.953  -4.873 -37.391  0.00  0.00    -0.056 A 
ATOM     80  CD1 PHE d   1       8.634  -4.099 -36.453  0.00  0.00    -0.077 A 
ATOM     81  CE1 PHE d   1       9.246  -2.913 -36.808  0.00  0.00    -0.082 A 
ATOM     82  H14 PHE d   1       8.684  -4.435 -35.424  0.00  0.00     0.084 H 
ATOM     83  CZ  PHE d   1       9.222  -2.481 -38.113  0.00  0.00    -0.083 A 
ATOM     84  H16 PHE d   1       9.748  -2.319 -36.053  0.00  0.00     0.083 H 
ATOM     85  CE2 PHE d   1       8.549  -3.236 -39.051  0.00  0.00    -0.082 A 
ATOM     86  H18 PHE d   1       9.723  -1.563 -38.400  0.00  0.00     0.083 H 
ATOM     87  CD2 PHE d   1       7.926  -4.423 -38.696  0.00  0.00    -0.077 A 
ATOM     88  H17 PHE d   1       8.507  -2.897 -40.080  0.00  0.00     0.083 H 
ATOM     89  H15 PHE d   1       7.412  -5.005 -39.452  0.00  0.00     0.084 H 
ENDBRANCH  76  79
ENDBRANCH   6  76
TORSDOF 13
