REMARK  6 active torsions:
REMARK  status: ('A' for Active; 'I' for Inactive)
REMARK    1  A    between atoms: C15_15  and  C01_1 
REMARK    2  A    between atoms: C21_21  and  C04_4 
REMARK    3  A    between atoms: N19_19  and  C13_13 
REMARK    4  A    between atoms: C15_15  and  N14_14 
REMARK    5  A    between atoms: C16_16  and  C15_15 
REMARK    6  A    between atoms: C18_18  and  C16_16 
ROOT
ATOM      1  C17 5DZ d   1     -21.204  19.474  -9.908  0.00  0.00    -0.043 C 
ATOM      2  C18 5DZ d   1     -20.772  19.040 -11.337  0.00  0.00     0.056 C 
ATOM      3  N19 5DZ d   1     -19.932  20.217 -11.830  0.00  0.00    -0.261 N 
ATOM      4  N20 5DZ d   1     -20.256  21.266 -11.086  0.00  0.00    -0.165 NA
ATOM      5  C21 5DZ d   1     -20.948  20.814  -9.874  0.00  0.00     0.151 C 
ATOM      6  H11 5DZ d   1     -21.616  18.851  -9.116  0.00  0.00     0.084 H 
ATOM      7  H12 5DZ d   1     -21.645  18.854 -11.980  0.00  0.00     0.082 H 
ENDROOT
BRANCH   2   8
ATOM      8  C16 5DZ d   1     -19.922  17.893 -11.298  0.00  0.00    -0.005 C 
ATOM      9  H9  5DZ d   1     -19.595  17.659 -12.322  0.00  0.00     0.040 H 
ATOM     10  H10 5DZ d   1     -19.044  18.123 -10.676  0.00  0.00     0.040 H 
BRANCH   8  11
ATOM     11  C15 5DZ d   1     -20.628  16.677 -10.719  0.00  0.00     0.184 C 
ATOM     12  H8  5DZ d   1     -21.346  16.981  -9.943  0.00  0.00     0.101 H 
BRANCH  11  13
ATOM     13  C01 5DZ d   1     -19.544  15.787 -10.127  0.00  0.00     0.204 C 
ATOM     14  O02 5DZ d   1     -19.264  14.681 -10.666  0.00  0.00    -0.646 OA
ATOM     15  O03 5DZ d   1     -18.928  16.172  -9.097  0.00  0.00    -0.646 OA
ENDBRANCH  11  13
BRANCH  11  16
ATOM     16  N14 5DZ d   1     -21.316  15.962 -11.776  0.00  0.00    -0.065 N 
ATOM     17  H5  5DZ d   1     -22.034  16.551 -12.168  0.00  0.00     0.275 HD
ATOM     18  H6  5DZ d   1     -21.736  15.127 -11.399  0.00  0.00     0.275 HD
ATOM     19  H7  5DZ d   1     -20.657  15.711 -12.496  0.00  0.00     0.275 HD
ENDBRANCH  11  16
ENDBRANCH   8  11
ENDBRANCH   2   8
BRANCH   3  20
ATOM     20  C13 5DZ d   1     -18.946  20.159 -12.880  0.00  0.00     0.053 A 
ATOM     21  C08 5DZ d   1     -17.575  20.777 -12.632  0.00  0.00    -0.053 A 
ATOM     22  C09 5DZ d   1     -16.511  20.708 -13.727  0.00  0.00    -0.043 A 
ATOM     23  H1  5DZ d   1     -17.357  21.261 -11.687  0.00  0.00     0.087 H 
ATOM     24  C10 5DZ d   1     -16.839  20.017 -15.049  0.00  0.00     0.116 A 
ATOM     25  H2  5DZ d   1     -15.532  21.146 -13.567  0.00  0.00     0.088 H 
ATOM     26  F07 5DZ d   1     -15.892  19.960 -16.024  0.00  0.00    -0.206 F 
ATOM     27  C11 5DZ d   1     -18.213  19.400 -15.284  0.00  0.00    -0.043 A 
ATOM     28  C12 5DZ d   1     -19.270  19.472 -14.194  0.00  0.00    -0.053 A 
ATOM     29  H3  5DZ d   1     -18.436  18.911 -16.226  0.00  0.00     0.088 H 
ATOM     30  H4  5DZ d   1     -20.249  19.035 -14.354  0.00  0.00     0.087 H 
ENDBRANCH   3  20
BRANCH   5  31
ATOM     31  C04 5DZ d   1     -20.787  21.569  -8.559  0.00  0.00     0.230 C 
ATOM     32  O05 5DZ d   1     -21.514  21.273  -7.573  0.00  0.00    -0.643 OA
ATOM     33  O06 5DZ d   1     -19.932  22.488  -8.474  0.00  0.00    -0.643 OA
ENDBRANCH   5  31
TORSDOF 6
