REMARK  6 active torsions:
REMARK  status: ('A' for Active; 'I' for Inactive)
REMARK    1  A    between atoms: C15_15  and  C01_1 
REMARK    2  A    between atoms: C21_21  and  C04_4 
REMARK    3  A    between atoms: N19_19  and  C13_13 
REMARK    4  A    between atoms: C15_15  and  N14_14 
REMARK    5  A    between atoms: C16_16  and  C15_15 
REMARK    6  A    between atoms: C18_18  and  C16_16 
ROOT
ATOM      1  C17 5DX d   1      21.808 106.461 377.127  0.00  0.00    -0.012 C 
ATOM      2  C18 5DX d   1      20.985 105.868 378.289  0.00  0.00     0.039 C 
ATOM      3  N19 5DX d   1      20.069 107.050 378.603  0.00  0.00    -0.269 N 
ATOM      4  N20 5DX d   1      20.245 108.005 377.721  0.00  0.00    -0.198 NA
ATOM      5  C21 5DX d   1      20.898 107.361 376.617  0.00  0.00     0.136 C 
ATOM      6  H11 5DX d   1      22.080 105.694 376.387  0.00  0.00     0.040 H 
ATOM      7  H12 5DX d   1      22.718 106.962 377.487  0.00  0.00     0.040 H 
ATOM      8  H13 5DX d   1      21.610 105.530 379.129  0.00  0.00     0.076 H 
ATOM      9  H14 5DX d   1      20.135 106.707 376.170  0.00  0.00     0.095 H 
ENDROOT
BRANCH   2  10
ATOM     10  C16 5DX d   1      20.056 104.840 377.840  0.00  0.00    -0.008 C 
ATOM     11  H9  5DX d   1      19.260 104.750 378.594  0.00  0.00     0.040 H 
ATOM     12  H10 5DX d   1      19.621 105.170 376.885  0.00  0.00     0.040 H 
BRANCH  10  13
ATOM     13  C15 5DX d   1      20.666 103.441 377.625  0.00  0.00     0.184 C 
ATOM     14  H8  5DX d   1      21.552 103.504 376.976  0.00  0.00     0.101 H 
BRANCH  13  15
ATOM     15  C01 5DX d   1      19.594 102.566 376.975  0.00  0.00     0.204 C 
ATOM     16  O02 5DX d   1      19.286 101.416 377.426  0.00  0.00    -0.646 OA
ATOM     17  O03 5DX d   1      18.980 102.991 375.967  0.00  0.00    -0.646 OA
ENDBRANCH  13  15
BRANCH  13  18
ATOM     18  N14 5DX d   1      21.031 102.891 378.907  0.00  0.00    -0.065 N 
ATOM     19  H5  5DX d   1      21.738 103.470 379.332  0.00  0.00     0.275 HD
ATOM     20  H6  5DX d   1      21.392 101.958 378.782  0.00  0.00     0.275 HD
ATOM     21  H7  5DX d   1      20.219 102.860 379.503  0.00  0.00     0.275 HD
ENDBRANCH  13  18
ENDBRANCH  10  13
ENDBRANCH   2  10
BRANCH   3  22
ATOM     22  C13 5DX d   1      18.996 107.060 379.534  0.00  0.00     0.053 A 
ATOM     23  C08 5DX d   1      17.913 108.043 379.173  0.00  0.00    -0.054 A 
ATOM     24  C09 5DX d   1      16.713 108.079 380.060  0.00  0.00    -0.064 A 
ATOM     25  H1  5DX d   1      18.001 108.693 378.310  0.00  0.00     0.087 H 
ATOM     26  C10 5DX d   1      16.635 107.130 381.240  0.00  0.00     0.011 A 
ATOM     27  H2  5DX d   1      15.906 108.776 379.863  0.00  0.00     0.085 H 
ATOM     28 BR7  5DX d   1      15.035 107.216 382.320  0.00  0.00    -0.051 Br
ATOM     29  C11 5DX d   1      17.717 106.127 381.578  0.00  0.00    -0.064 A 
ATOM     30  C12 5DX d   1      18.936 106.099 380.698  0.00  0.00    -0.054 A 
ATOM     31  H3  5DX d   1      17.617 105.454 382.422  0.00  0.00     0.085 H 
ATOM     32  H4  5DX d   1      19.749 105.409 380.893  0.00  0.00     0.087 H 
ENDBRANCH   3  22
BRANCH   5  33
ATOM     33  C04 5DX d   1      21.184 108.331 375.487  0.00  0.00     0.200 C 
ATOM     34  O05 5DX d   1      22.017 108.039 374.580  0.00  0.00    -0.646 OA
ATOM     35  O06 5DX d   1      20.550 109.421 375.527  0.00  0.00    -0.646 OA
ENDBRANCH   5  33
TORSDOF 6
