REMARK  16 active torsions:
REMARK  status: ('A' for Active; 'I' for Inactive)
REMARK    1  A    between atoms: C22_12  and  C23_26 
REMARK    2  A    between atoms: C43_43  and  C24_13 
REMARK    3  A    between atoms: O56_56  and  C28_15 
REMARK    4  A    between atoms: C42_42  and  C25_27 
REMARK    5  A    between atoms: C27_28  and  N51_51 
REMARK    6  A    between atoms: O57_57  and  C29_29 
REMARK    7  A    between atoms: C30_30  and  C33_33 
REMARK    8  A    between atoms: C31_31  and  C44_44 
REMARK    9  A    between atoms: C32_32  and  C39_39 
REMARK   10  A    between atoms: C34_34  and  C40_40 
REMARK       I    between atoms: N52_52  and  C34_34 
REMARK   11  A    between atoms: N50_50  and  C41_41 
REMARK   12  A    between atoms: C45_45  and  C42_42 
REMARK   13  A    between atoms: N49_49  and  C43_43 
REMARK   14  A    between atoms: C44_44  and  O56_56 
REMARK   15  A    between atoms: C46_46  and  C45_45 
REMARK   16  A    between atoms: C46_46  and  O57_57 
ROOT
ATOM      1  C8  9EA d   1     -31.142   7.910   7.315  0.00  0.00    -0.070 A 
ATOM      2  C10 9EA d   1     -30.064   7.941   9.465  0.00  0.00    -0.070 A 
ATOM      3  C21 9EA d   1     -32.298   7.451   7.923  0.00  0.00     0.000 A 
ATOM      4  C22 9EA d   1     -31.205   7.511  10.099  0.00  0.00     0.006 A 
ATOM      5  C26 9EA d   1     -32.323   7.271   9.302  0.00  0.00     0.057 A 
ATOM      6  C3  9EA d   1     -30.035   8.133   8.104  0.00  0.00    -0.081 A 
ATOM      7  C25 9EA d   1     -33.572   7.121   7.382  0.00  0.00    -0.012 A 
ATOM      8  C30 9EA d   1     -34.374   6.736   8.435  0.00  0.00     0.120 A 
ATOM      9  N49 9EA d   1     -33.597   6.826   9.569  0.00  0.00    -0.335 N 
ATOM     10  H5  9EA d   1     -31.109   8.089   6.246  0.00  0.00     0.084 H 
ATOM     11  H6  9EA d   1     -29.171   8.132  10.049  0.00  0.00     0.084 H 
ATOM     12  H12 9EA d   1     -29.115   8.469   7.639  0.00  0.00     0.083 H 
ENDROOT
BRANCH   4  13
ATOM     13  C23 9EA d   1     -31.168   7.402  11.545  0.00  0.00     0.029 A 
ATOM     14  C31 9EA d   1     -31.806   8.252  12.485  0.00  0.00     0.092 A 
ATOM     15  N48 9EA d   1     -31.554   7.867  13.739  0.00  0.00    -0.174 NA
ATOM     16  N50 9EA d   1     -30.754   6.799  13.598  0.00  0.00    -0.278 N 
ATOM     17  C32 9EA d   1     -30.464   6.479  12.299  0.00  0.00     0.039 A 
BRANCH  14  18
ATOM     18  C44 9EA d   1     -32.657   9.430  12.233  0.00  0.00     0.068 C 
ATOM     19  H40 9EA d   1     -32.828   9.538  11.152  0.00  0.00     0.085 H 
ATOM     20  H41 9EA d   1     -32.161  10.333  12.618  0.00  0.00     0.085 H 
BRANCH  18  21
ATOM     21  O56 9EA d   1     -33.896   9.248  12.895  0.00  0.00    -0.345 OA
BRANCH  21  22
ATOM     22  C28 9EA d   1     -34.852  10.250  12.711  0.00  0.00     0.069 A 
ATOM     23  C15 9EA d   1     -36.022  10.037  13.402  0.00  0.00    -0.049 A 
ATOM     24  C12 9EA d   1     -37.067  10.930  13.317  0.00  0.00    -0.060 A 
ATOM     25  H8  9EA d   1     -36.123   9.154  14.022  0.00  0.00     0.087 H 
ATOM     26  C27 9EA d   1     -36.995  12.075  12.533  0.00  0.00     0.010 A 
ATOM     27  H15 9EA d   1     -37.973  10.734  13.879  0.00  0.00     0.086 H 
ATOM     28  C13 9EA d   1     -35.796  12.278  11.864  0.00  0.00    -0.060 A 
ATOM     29  C16 9EA d   1     -34.741  11.392  11.941  0.00  0.00    -0.049 A 
ATOM     30  H7  9EA d   1     -35.684  13.169  11.256  0.00  0.00     0.086 H 
ATOM     31  H17 9EA d   1     -33.825  11.592  11.397  0.00  0.00     0.087 H 
BRANCH  26  32
ATOM     32  N51 9EA d   1     -38.103  12.988  12.450  0.00  0.00    -0.280 NA
ATOM     33  C35 9EA d   1     -39.408  12.322  12.523  0.00  0.00    -0.002 C 
ATOM     34  C37 9EA d   1     -40.513  13.347  12.705  0.00  0.00     0.009 C 
ATOM     35  H19 9EA d   1     -39.582  11.762  11.592  0.00  0.00     0.058 H 
ATOM     36  H20 9EA d   1     -39.413  11.627  13.376  0.00  0.00     0.058 H 
ATOM     37  N52 9EA d   1     -40.415  14.428  11.736  0.00  0.00    -0.350 N 
ATOM     38  H23 9EA d   1     -40.443  13.770  13.718  0.00  0.00     0.066 H 
ATOM     39  H24 9EA d   1     -41.485  12.847  12.583  0.00  0.00     0.066 H 
ATOM     40  C34 9EA d   1     -41.582  15.019  11.271  0.00  0.00     0.215 C 
ATOM     41  C38 9EA d   1     -39.103  14.990  11.450  0.00  0.00     0.009 C 
ATOM     42  O54 9EA d   1     -42.584  14.427  10.880  0.00  0.00    -0.274 OA
ATOM     43  C36 9EA d   1     -38.043  13.911  11.318  0.00  0.00    -0.002 C 
ATOM     44  H25 9EA d   1     -39.156  15.555  10.507  0.00  0.00     0.066 H 
ATOM     45  H26 9EA d   1     -38.820  15.668  12.268  0.00  0.00     0.066 H 
ATOM     46  H21 9EA d   1     -37.050  14.382  11.288  0.00  0.00     0.058 H 
ATOM     47  H22 9EA d   1     -38.211  13.351  10.386  0.00  0.00     0.058 H 
BRANCH  40  48
ATOM     48  C40 9EA d   1     -41.547  16.520  11.319  0.00  0.00    -0.003 C 
ATOM     49  H30 9EA d   1     -42.498  16.921  10.938  0.00  0.00     0.040 H 
ATOM     50  H31 9EA d   1     -40.718  16.888  10.696  0.00  0.00     0.040 H 
ATOM     51  H32 9EA d   1     -41.399  16.850  12.358  0.00  0.00     0.040 H 
ENDBRANCH  40  48
ENDBRANCH  26  32
ENDBRANCH  21  22
ENDBRANCH  18  21
ENDBRANCH  14  18
BRANCH  16  52
ATOM     52  C41 9EA d   1     -30.294   6.117  14.795  0.00  0.00     0.003 C 
ATOM     53  H33 9EA d   1     -30.704   6.620  15.684  0.00  0.00     0.059 H 
ATOM     54  H34 9EA d   1     -29.195   6.144  14.833  0.00  0.00     0.059 H 
ATOM     55  H35 9EA d   1     -30.635   5.071  14.775  0.00  0.00     0.059 H 
ENDBRANCH  16  52
BRANCH  17  56
ATOM     56  C39 9EA d   1     -29.586   5.341  11.947  0.00  0.00    -0.035 C 
ATOM     57  H27 9EA d   1     -29.495   5.273  10.853  0.00  0.00     0.035 H 
ATOM     58  H28 9EA d   1     -30.020   4.409  12.338  0.00  0.00     0.035 H 
ATOM     59  H29 9EA d   1     -28.591   5.495  12.389  0.00  0.00     0.035 H 
ENDBRANCH  17  56
ENDBRANCH   4  13
BRANCH   9  60
ATOM     60  C43 9EA d   1     -34.067   6.333  10.856  0.00  0.00     0.026 C 
ATOM     61  H38 9EA d   1     -33.738   7.018  11.651  0.00  0.00     0.072 H 
ATOM     62  H39 9EA d   1     -35.166   6.282  10.848  0.00  0.00     0.072 H 
BRANCH  60  63
ATOM     63  C24 9EA d   1     -33.510   4.969  11.115  0.00  0.00    -0.022 A 
ATOM     64  C11 9EA d   1     -32.989   4.147  10.127  0.00  0.00    -0.072 A 
ATOM     65  C5  9EA d   1     -32.499   2.905  10.466  0.00  0.00    -0.065 A 
ATOM     66  H14 9EA d   1     -32.968   4.479   9.095  0.00  0.00     0.084 H 
ATOM     67  C17 9EA d   1     -32.545   2.519  11.783  0.00  0.00     0.002 A 
ATOM     68  H2  9EA d   1     -32.086   2.247   9.710  0.00  0.00     0.085 H 
ATOM     69  N47 9EA d   1     -33.041   3.279  12.764  0.00  0.00    -0.273 NA
ATOM     70  H9  9EA d   1     -32.156   1.541  12.042  0.00  0.00     0.114 H 
ATOM     71  C18 9EA d   1     -33.505   4.481  12.404  0.00  0.00     0.009 A 
ATOM     72  H18 9EA d   1     -33.907   5.118  13.184  0.00  0.00     0.115 H 
ENDBRANCH  60  63
ENDBRANCH   9  60
BRANCH   7  73
ATOM     73  C42 9EA d   1     -33.963   7.242   5.951  0.00  0.00    -0.036 C 
ATOM     74  H36 9EA d   1     -33.297   7.982   5.484  0.00  0.00     0.040 H 
ATOM     75  H37 9EA d   1     -35.000   7.608   5.917  0.00  0.00     0.040 H 
BRANCH  73  76
ATOM     76  C45 9EA d   1     -33.895   5.972   5.123  0.00  0.00    -0.041 C 
ATOM     77  H42 9EA d   1     -34.388   6.152   4.156  0.00  0.00     0.036 H 
ATOM     78  H43 9EA d   1     -34.423   5.170   5.660  0.00  0.00     0.036 H 
BRANCH  76  79
ATOM     79  C46 9EA d   1     -32.473   5.532   4.869  0.00  0.00     0.026 C 
ATOM     80  H44 9EA d   1     -32.477   4.566   4.342  0.00  0.00     0.075 H 
ATOM     81  H45 9EA d   1     -31.946   5.424   5.828  0.00  0.00     0.075 H 
BRANCH  79  82
ATOM     82  O57 9EA d   1     -31.812   6.504   4.072  0.00  0.00    -0.350 OA
BRANCH  82  83
ATOM     83  C29 9EA d   1     -30.519   6.177   3.655  0.00  0.00     0.079 A 
ATOM     84  C20 9EA d   1     -29.930   7.097   2.800  0.00  0.00     0.007 A 
ATOM     85  C7  9EA d   1     -30.597   8.244   2.396  0.00  0.00    -0.070 A 
ATOM     86  C19 9EA d   1     -28.648   6.871   2.330  0.00  0.00    -0.023 A 
ATOM     87  C2  9EA d   1     -29.996   9.143   1.543  0.00  0.00    -0.082 A 
ATOM     88  H4  9EA d   1     -31.602   8.435   2.755  0.00  0.00     0.085 H 
ATOM     89  C1  9EA d   1     -28.714   8.915   1.087  0.00  0.00    -0.082 A 
ATOM     90  H11 9EA d   1     -30.532  10.032   1.229  0.00  0.00     0.083 H 
ATOM     91  C6  9EA d   1     -28.047   7.776   1.480  0.00  0.00    -0.072 A 
ATOM     92  H10 9EA d   1     -28.235   9.627   0.424  0.00  0.00     0.083 H 
ATOM     93  H3  9EA d   1     -27.042   7.589   1.119  0.00  0.00     0.084 H 
ATOM     94  C9  9EA d   1     -27.957   5.739   2.714  0.00  0.00    -0.072 A 
ATOM     95  C4  9EA d   1     -28.548   4.827   3.562  0.00  0.00    -0.080 A 
ATOM     96  H13 9EA d   1     -26.951   5.568   2.349  0.00  0.00     0.084 H 
ATOM     97  C14 9EA d   1     -29.827   5.033   4.034  0.00  0.00    -0.050 A 
ATOM     98  H1  9EA d   1     -28.002   3.939   3.861  0.00  0.00     0.083 H 
ATOM     99  H16 9EA d   1     -30.289   4.309   4.695  0.00  0.00     0.087 H 
ENDBRANCH  82  83
ENDBRANCH  79  82
ENDBRANCH  76  79
ENDBRANCH  73  76
ENDBRANCH   7  73
BRANCH   8 100
ATOM    100  C33 9EA d   1     -35.764   6.340   8.428  0.00  0.00     0.227 C 
ATOM    101  O53 9EA d   1     -36.620   6.727   9.202  0.00  0.00    -0.643 OA
ATOM    102  O55 9EA d   1     -36.073   5.474   7.453  0.00  0.00    -0.643 OA
ENDBRANCH   8 100
TORSDOF 16
