REMARK  2 active torsions:
REMARK  status: ('A' for Active; 'I' for Inactive)
REMARK    1  A    between atoms: N1_6  and  C11_2 
REMARK       I    between atoms: C8_5  and  N1_6 
REMARK       I    between atoms: N7_13  and  C8_5 
REMARK    2  A    between atoms: C4_7  and  N7_13 
ROOT
ATOM      1  C8  9EG d   1     -37.804  22.009   0.035  0.00  0.00     0.325 C 
ATOM      2  N1  9EG d   1     -38.974  22.085   0.694  0.00  0.00    -0.309 N 
ATOM      3  N7  9EG d   1     -37.100  20.868   0.318  0.00  0.00    -0.309 N 
ATOM      4  O9  9EG d   1     -37.415  22.875  -0.734  0.00  0.00    -0.247 OA
ATOM      5  H2  9EG d   1     -39.172  21.328   1.316  0.00  0.00     0.170 HD
ATOM      6  H7  9EG d   1     -37.540  20.247   0.967  0.00  0.00     0.170 HD
ENDROOT
BRANCH   2   7
ATOM      7  C11 9EG d   1     -39.927  23.061   0.625  0.00  0.00     0.038 A 
ATOM      8  C12 9EG d   1     -41.159  22.706   1.127  0.00  0.00    -0.034 A 
ATOM      9  C13 9EG d   1     -42.210  23.600   1.085  0.00  0.00     0.058 A 
ATOM     10  H1  9EG d   1     -41.304  21.721   1.557  0.00  0.00     0.089 H 
ATOM     11 CL2  9EG d   1     -43.786  23.106   1.753  0.00  0.00    -0.082 Cl
ATOM     12  C14 9EG d   1     -42.065  24.848   0.548  0.00  0.00     0.055 A 
ATOM     13  C15 9EG d   1     -40.853  25.231   0.021  0.00  0.00    -0.058 A 
ATOM     14 CL3  9EG d   1     -43.486  25.965   0.540  0.00  0.00    -0.083 Cl
ATOM     15  C16 9EG d   1     -39.791  24.350   0.042  0.00  0.00    -0.055 A 
ATOM     16  H8  9EG d   1     -40.733  26.219  -0.408  0.00  0.00     0.086 H 
ATOM     17  H9  9EG d   1     -38.842  24.645  -0.391  0.00  0.00     0.087 H 
ENDBRANCH   2   7
BRANCH   3  18
ATOM     18  C4  9EG d   1     -35.891  20.452  -0.151  0.00  0.00     0.036 A 
ATOM     19  C5  9EG d   1     -35.333  20.893  -1.352  0.00  0.00    -0.056 A 
ATOM     20  C6  9EG d   1     -34.077  20.481  -1.728  0.00  0.00    -0.060 A 
ATOM     21  H3  9EG d   1     -35.894  21.564  -1.992  0.00  0.00     0.087 H 
ATOM     22  C1  9EG d   1     -33.347  19.613  -0.927  0.00  0.00     0.034 A 
ATOM     23  H4  9EG d   1     -33.652  20.837  -2.659  0.00  0.00     0.086 H 
ATOM     24 CL1  9EG d   1     -31.695  19.125  -1.447  0.00  0.00    -0.084 Cl
ATOM     25  C2  9EG d   1     -33.878  19.180   0.291  0.00  0.00    -0.060 A 
ATOM     26  C3  9EG d   1     -35.153  19.590   0.663  0.00  0.00    -0.056 A 
ATOM     27  H5  9EG d   1     -33.301  18.531   0.940  0.00  0.00     0.086 H 
ATOM     28  H6  9EG d   1     -35.579  19.237   1.595  0.00  0.00     0.087 H 
ENDBRANCH   3  18
TORSDOF 2
