REMARK  2 active torsions:
REMARK  status: ('A' for Active; 'I' for Inactive)
REMARK    1  A    between atoms: N1_6  and  C11_2 
REMARK       I    between atoms: C8_5  and  N1_6 
REMARK       I    between atoms: N7_13  and  C8_5 
REMARK    2  A    between atoms: C4_7  and  N7_13 
ROOT
ATOM      1  C8  9EG d   1      -7.465  23.929   5.626  0.00  0.00     0.325 C 
ATOM      2  N1  9EG d   1      -7.716  23.082   6.633  0.00  0.00    -0.309 N 
ATOM      3  N7  9EG d   1      -8.315  23.794   4.601  0.00  0.00    -0.309 N 
ATOM      4  O9  9EG d   1      -6.568  24.785   5.651  0.00  0.00    -0.247 OA
ATOM      5  H2  9EG d   1      -8.415  22.387   6.465  0.00  0.00     0.170 HD
ATOM      6  H7  9EG d   1      -9.032  23.107   4.724  0.00  0.00     0.170 HD
ENDROOT
BRANCH   2   7
ATOM      7  C11 9EG d   1      -7.129  23.062   7.855  0.00  0.00     0.038 A 
ATOM      8  C12 9EG d   1      -7.844  22.509   8.909  0.00  0.00    -0.034 A 
ATOM      9  C13 9EG d   1      -7.277  22.459  10.189  0.00  0.00     0.058 A 
ATOM     10  H1  9EG d   1      -8.840  22.116   8.742  0.00  0.00     0.089 H 
ATOM     11 CL2  9EG d   1      -8.232  21.757  11.547  0.00  0.00    -0.082 Cl
ATOM     12  C14 9EG d   1      -6.031  23.021  10.426  0.00  0.00     0.055 A 
ATOM     13  C15 9EG d   1      -5.292  23.585   9.388  0.00  0.00    -0.058 A 
ATOM     14 CL3  9EG d   1      -5.302  22.975  12.069  0.00  0.00    -0.083 Cl
ATOM     15  C16 9EG d   1      -5.866  23.630   8.118  0.00  0.00    -0.055 A 
ATOM     16  H8  9EG d   1      -4.297  23.978   9.563  0.00  0.00     0.086 H 
ATOM     17  H9  9EG d   1      -5.327  24.114   7.312  0.00  0.00     0.087 H 
ENDBRANCH   2   7
BRANCH   3  18
ATOM     18  C4  9EG d   1      -8.340  24.466   3.406  0.00  0.00     0.036 A 
ATOM     19  C5  9EG d   1      -8.857  23.765   2.320  0.00  0.00    -0.056 A 
ATOM     20  C6  9EG d   1      -8.902  24.352   1.045  0.00  0.00    -0.060 A 
ATOM     21  H3  9EG d   1      -9.228  22.756   2.460  0.00  0.00     0.087 H 
ATOM     22  C1  9EG d   1      -8.446  25.668   0.871  0.00  0.00     0.034 A 
ATOM     23  H4  9EG d   1      -9.287  23.792   0.200  0.00  0.00     0.086 H 
ATOM     24 CL1  9EG d   1      -8.535  26.411  -0.751  0.00  0.00    -0.084 Cl
ATOM     25  C2  9EG d   1      -7.945  26.401   1.944  0.00  0.00    -0.060 A 
ATOM     26  C3  9EG d   1      -7.868  25.776   3.203  0.00  0.00    -0.056 A 
ATOM     27  H5  9EG d   1      -7.622  27.427   1.813  0.00  0.00     0.086 H 
ATOM     28  H6  9EG d   1      -7.435  26.317   4.036  0.00  0.00     0.087 H 
ENDBRANCH   3  18
TORSDOF 2
