REMARK  15 active torsions:
REMARK  status: ('A' for Active; 'I' for Inactive)
REMARK    1  A    between atoms: O11_44  and  C10_1 
REMARK    2  A    between atoms: C26_7  and  C22_5 
REMARK    3  A    between atoms: C02_9  and  N35_41 
REMARK    4  A    between atoms: C09_16  and  C08_15 
REMARK    5  A    between atoms: C12_17  and  O11_44 
REMARK    6  A    between atoms: C32_22  and  C53_37 
REMARK    7  A    between atoms: S29_53  and  C32_22 
REMARK       I    between atoms: N35_41  and  C36_25 
REMARK    8  A    between atoms: C36_25  and  O38_51 
REMARK    9  A    between atoms: C39_26  and  C40_27 
REMARK   10  A    between atoms: C39_26  and  C41_28 
REMARK   11  A    between atoms: C39_26  and  C42_29 
REMARK   12  A    between atoms: O38_51  and  C39_26 
REMARK   13  A    between atoms: C46_32  and  O47_52 
REMARK   14  A    between atoms: O47_52  and  C48_33 
REMARK   15  A    between atoms: N28_40  and  S29_53 
ROOT
ATOM      1  C13 9H4 d   1     -12.869 -18.230  16.841  0.00  0.00    -0.011 C 
ATOM      2  C20 9H4 d   1     -15.570 -24.564  15.964  0.00  0.00    -0.050 C 
ATOM      3  C21 9H4 d   1     -14.494 -25.526  15.389  0.00  0.00    -0.106 C 
ATOM      4  C22 9H4 d   1     -12.253 -22.619  14.401  0.00  0.00     0.109 A 
ATOM      5  C24 9H4 d   1     -13.085 -20.714  15.720  0.00  0.00     0.241 C 
ATOM      6  C01 9H4 d   1     -15.048 -18.422  17.349  0.00  0.00     0.023 C 
ATOM      7  C02 9H4 d   1     -17.215 -20.407  16.271  0.00  0.00     0.091 C 
ATOM      8  C03 9H4 d   1     -16.543 -22.271  17.845  0.00  0.00    -0.063 C 
ATOM      9  C04 9H4 d   1     -15.524 -24.581  17.518  0.00  0.00    -0.062 C 
ATOM     10  C05 9H4 d   1     -13.490 -25.154  14.553  0.00  0.00    -0.100 C 
ATOM     11  C06 9H4 d   1     -13.303 -23.690  14.108  0.00  0.00    -0.003 A 
ATOM     12  C07 9H4 d   1     -12.485 -23.079  12.953  0.00  0.00    -0.024 A 
ATOM     13  C12 9H4 d   1     -13.845 -17.460  17.088  0.00  0.00     0.064 C 
ATOM     14  C14 9H4 d   1     -13.578 -19.249  15.770  0.00  0.00     0.094 C 
ATOM     15  C16 9H4 d   1     -15.809 -20.369  15.633  0.00  0.00     0.243 C 
ATOM     16  C18 9H4 d   1     -17.513 -21.836  16.699  0.00  0.00    -0.038 C 
ATOM     17  C19 9H4 d   1     -16.744 -23.795  18.091  0.00  0.00    -0.065 C 
ATOM     18  N15 9H4 d   1     -14.815 -19.406  16.175  0.00  0.00    -0.334 N 
ATOM     19  N23 9H4 d   1     -12.528 -21.192  14.451  0.00  0.00    -0.342 N 
ATOM     20  O17 9H4 d   1     -15.538 -21.095  14.721  0.00  0.00    -0.271 OA
ATOM     21  O25 9H4 d   1     -13.204 -21.450  16.662  0.00  0.00    -0.271 OA
ATOM     22  H1  9H4 d   1     -12.527 -18.759  17.743  0.00  0.00     0.040 H 
ATOM     23  H2  9H4 d   1     -12.024 -17.688  16.391  0.00  0.00     0.040 H 
ATOM     24  H3  9H4 d   1     -16.566 -24.887  15.626  0.00  0.00     0.038 H 
ATOM     25  H4  9H4 d   1     -15.374 -23.543  15.605  0.00  0.00     0.038 H 
ATOM     26  H5  9H4 d   1     -14.549 -26.575  15.677  0.00  0.00     0.076 H 
ATOM     27  H6  9H4 d   1     -16.016 -17.906  17.271  0.00  0.00     0.068 H 
ATOM     28  H7  9H4 d   1     -14.976 -18.920  18.327  0.00  0.00     0.068 H 
ATOM     29  H8  9H4 d   1     -17.273 -19.717  17.125  0.00  0.00     0.087 H 
ATOM     30  H9  9H4 d   1     -16.774 -21.711  18.763  0.00  0.00     0.033 H 
ATOM     31  H10 9H4 d   1     -15.502 -22.075  17.548  0.00  0.00     0.033 H 
ATOM     32  H11 9H4 d   1     -14.592 -24.109  17.861  0.00  0.00     0.033 H 
ATOM     33  H12 9H4 d   1     -15.560 -25.621  17.873  0.00  0.00     0.033 H 
ATOM     34  H13 9H4 d   1     -12.798 -25.911  14.187  0.00  0.00     0.077 H 
ATOM     35  H14 9H4 d   1     -14.333 -23.309  14.171  0.00  0.00     0.050 H 
ATOM     36  H15 9H4 d   1     -11.723 -23.682  12.438  0.00  0.00     0.038 H 
ATOM     37  H16 9H4 d   1     -12.969 -22.405  12.231  0.00  0.00     0.038 H 
ATOM     38  H20 9H4 d   1     -13.624 -16.767  17.913  0.00  0.00     0.086 H 
ATOM     39  H21 9H4 d   1     -13.522 -18.804  14.766  0.00  0.00     0.088 H 
ATOM     40  H22 9H4 d   1     -17.382 -22.508  15.838  0.00  0.00     0.036 H 
ATOM     41  H23 9H4 d   1     -18.551 -21.898  17.058  0.00  0.00     0.036 H 
ATOM     42  H24 9H4 d   1     -17.664 -24.129  17.589  0.00  0.00     0.033 H 
ATOM     43  H25 9H4 d   1     -16.827 -23.984  19.172  0.00  0.00     0.033 H 
ATOM     44  H48 9H4 d   1     -12.351 -20.583  13.678  0.00  0.00     0.163 HD
ENDROOT
BRANCH  13  45
ATOM     45  O11 9H4 d   1     -14.345 -16.764  15.857  0.00  0.00    -0.326 OA
BRANCH  45  46
ATOM     46  C10 9H4 d   1     -13.649 -15.582  15.595  0.00  0.00     0.190 A 
ATOM     47  C09 9H4 d   1     -13.920 -14.841  14.273  0.00  0.00     0.084 A 
ATOM     48  N52 9H4 d   1     -13.213 -13.611  13.973  0.00  0.00    -0.247 NA
ATOM     49  C51 9H4 d   1     -12.239 -13.107  14.955  0.00  0.00     0.086 A 
ATOM     50  C44 9H4 d   1     -11.995 -13.855  16.241  0.00  0.00     0.091 A 
ATOM     51  C50 9H4 d   1     -11.460 -11.796  14.666  0.00  0.00    -0.050 A 
ATOM     52  C45 9H4 d   1     -10.986 -13.344  17.284  0.00  0.00    -0.021 A 
ATOM     53  N43 9H4 d   1     -12.695 -15.100  16.565  0.00  0.00    -0.221 NA
ATOM     54  C46 9H4 d   1     -10.208 -12.059  17.000  0.00  0.00     0.070 A 
ATOM     55  H39 9H4 d   1     -10.829 -13.888  18.208  0.00  0.00     0.091 H 
ATOM     56  C49 9H4 d   1     -10.451 -11.283  15.698  0.00  0.00    -0.048 A 
ATOM     57  H43 9H4 d   1      -9.905 -10.366  15.508  0.00  0.00     0.087 H 
ATOM     58  H44 9H4 d   1     -11.628 -11.250  13.745  0.00  0.00     0.087 H 
BRANCH  47  59
ATOM     59  C08 9H4 d   1     -14.943 -15.408  13.289  0.00  0.00    -0.031 C 
ATOM     60  H17 9H4 d   1     -15.006 -14.753  12.407  0.00  0.00     0.035 H 
ATOM     61  H18 9H4 d   1     -15.928 -15.463  13.775  0.00  0.00     0.035 H 
ATOM     62  H19 9H4 d   1     -14.631 -16.415  12.976  0.00  0.00     0.035 H 
ENDBRANCH  47  59
BRANCH  54  63
ATOM     63  O47 9H4 d   1      -9.289 -11.585  17.946  0.00  0.00    -0.356 OA
BRANCH  63  64
ATOM     64  C48 9H4 d   1      -8.937 -12.433  19.034  0.00  0.00     0.010 C 
ATOM     65  H40 9H4 d   1      -8.212 -11.918  19.681  0.00  0.00     0.066 H 
ATOM     66  H41 9H4 d   1      -8.489 -13.360  18.646  0.00  0.00     0.066 H 
ATOM     67  H42 9H4 d   1      -9.838 -12.677  19.615  0.00  0.00     0.066 H 
ENDBRANCH  63  64
ENDBRANCH  54  63
ENDBRANCH  45  46
ENDBRANCH  13  45
BRANCH   7  68
ATOM     68  N35 9H4 d   1     -18.180 -20.073  15.276  0.00  0.00    -0.324 N 
ATOM     69  C36 9H4 d   1     -18.449 -18.686  14.890  0.00  0.00     0.362 C 
ATOM     70  O37 9H4 d   1     -17.979 -17.748  15.457  0.00  0.00    -0.238 OA
ATOM     71  H50 9H4 d   1     -18.689 -20.808  14.828  0.00  0.00     0.165 HD
BRANCH  69  72
ATOM     72  O38 9H4 d   1     -19.323 -18.586  13.794  0.00  0.00    -0.294 OA
BRANCH  72  73
ATOM     73  C39 9H4 d   1     -19.745 -17.302  13.327  0.00  0.00     0.061 C 
BRANCH  73  74
ATOM     74  C40 9H4 d   1     -20.661 -17.598  12.109  0.00  0.00    -0.048 C 
ATOM     75  H30 9H4 d   1     -21.030 -16.651  11.689  0.00  0.00     0.031 H 
ATOM     76  H31 9H4 d   1     -21.514 -18.213  12.432  0.00  0.00     0.031 H 
ATOM     77  H32 9H4 d   1     -20.088 -18.140  11.342  0.00  0.00     0.031 H 
ENDBRANCH  73  74
BRANCH  73  78
ATOM     78  C41 9H4 d   1     -18.528 -16.465  12.850  0.00  0.00    -0.048 C 
ATOM     79  H33 9H4 d   1     -17.872 -16.250  13.707  0.00  0.00     0.031 H 
ATOM     80  H34 9H4 d   1     -18.882 -15.520  12.413  0.00  0.00     0.031 H 
ATOM     81  H35 9H4 d   1     -17.967 -17.032  12.092  0.00  0.00     0.031 H 
ENDBRANCH  73  78
BRANCH  73  82
ATOM     82  C42 9H4 d   1     -20.553 -16.574  14.432  0.00  0.00    -0.048 C 
ATOM     83  H36 9H4 d   1     -21.403 -17.202  14.739  0.00  0.00     0.031 H 
ATOM     84  H37 9H4 d   1     -20.927 -15.616  14.042  0.00  0.00     0.031 H 
ATOM     85  H38 9H4 d   1     -19.903 -16.388  15.300  0.00  0.00     0.031 H 
ENDBRANCH  73  82
ENDBRANCH  72  73
ENDBRANCH  69  72
ENDBRANCH   7  68
BRANCH   4  86
ATOM     86  C26 9H4 d   1     -10.971 -23.194  15.012  0.00  0.00     0.194 C 
ATOM     87  N28 9H4 d   1     -10.284 -22.504  15.829  0.00  0.00    -0.263 N 
ATOM     88  H49 9H4 d   1     -10.535 -21.567  16.073  0.00  0.00     0.180 HD
ATOM     89  O27 9H4 d   1     -10.590 -24.483  14.669  0.00  0.00    -0.174 OA
BRANCH  87  90
ATOM     90  S29 9H4 d   1      -8.921 -23.263  16.478  0.00  0.00     0.240 S 
ATOM     91  O30 9H4 d   1      -7.918 -23.755  15.516  0.00  0.00    -0.205 OA
ATOM     92  O31 9H4 d   1      -9.372 -24.431  17.252  0.00  0.00    -0.205 OA
BRANCH  90  93
ATOM     93  C32 9H4 d   1      -8.223 -22.109  17.690  0.00  0.00     0.079 A 
ATOM     94  C33 9H4 d   1      -7.111 -21.184  17.195  0.00  0.00    -0.042 A 
ATOM     95  C34 9H4 d   1      -6.771 -22.398  18.071  0.00  0.00    -0.042 A 
ATOM     96  H26 9H4 d   1      -7.018 -20.167  17.604  0.00  0.00     0.035 H 
ATOM     97  H27 9H4 d   1      -6.833 -21.178  16.131  0.00  0.00     0.035 H 
ATOM     98  H28 9H4 d   1      -6.249 -23.262  17.635  0.00  0.00     0.035 H 
ATOM     99  H29 9H4 d   1      -6.434 -22.251  19.108  0.00  0.00     0.035 H 
BRANCH  93 100
ATOM    100  C53 9H4 d   1      -9.191 -21.563  18.765  0.00  0.00    -0.054 C 
ATOM    101  H45 9H4 d   1      -8.648 -20.879  19.434  0.00  0.00     0.029 H 
ATOM    102  H46 9H4 d   1      -9.599 -22.400  19.350  0.00  0.00     0.029 H 
ATOM    103  H47 9H4 d   1     -10.014 -21.021  18.276  0.00  0.00     0.029 H 
ENDBRANCH  93 100
ENDBRANCH  90  93
ENDBRANCH  87  90
ENDBRANCH   4  86
TORSDOF 15
