REMARK  12 active torsions:
REMARK  status: ('A' for Active; 'I' for Inactive)
REMARK    1  A    between atoms: C10_1  and  C09_16 
REMARK    2  A    between atoms: C13_2  and  O12_45 
REMARK    3  A    between atoms: C02_9  and  N36_42 
REMARK    4  A    between atoms: O12_45  and  C11_17 
REMARK    5  A    between atoms: C27_22  and  C23_20 
REMARK    6  A    between atoms: S30_53  and  C33_23 
REMARK       I    between atoms: N36_42  and  C37_26 
REMARK    7  A    between atoms: C37_26  and  O39_52 
REMARK    8  A    between atoms: C40_27  and  C41_28 
REMARK    9  A    between atoms: C40_27  and  C42_29 
REMARK   10  A    between atoms: C40_27  and  C43_30 
REMARK   11  A    between atoms: O39_52  and  C40_27 
REMARK   12  A    between atoms: N29_41  and  S30_53 
ROOT
ATOM      1  C13 9H7 d   1     -13.901 -17.279  17.024  0.00  0.00     0.059 C 
ATOM      2  C15 9H7 d   1     -13.362 -19.139  15.646  0.00  0.00     0.094 C 
ATOM      3  C17 9H7 d   1     -15.914 -20.160  15.672  0.00  0.00     0.243 C 
ATOM      4  C20 9H7 d   1     -16.687 -23.295  18.501  0.00  0.00    -0.065 C 
ATOM      5  C21 9H7 d   1     -15.787 -24.274  16.350  0.00  0.00    -0.050 C 
ATOM      6  C22 9H7 d   1     -14.795 -25.308  15.745  0.00  0.00    -0.106 C 
ATOM      7  C01 9H7 d   1     -15.061 -17.973  17.163  0.00  0.00     0.023 C 
ATOM      8  C02 9H7 d   1     -17.332 -20.126  16.242  0.00  0.00     0.091 C 
ATOM      9  C03 9H7 d   1     -16.466 -21.842  17.975  0.00  0.00    -0.063 C 
ATOM     10  C04 9H7 d   1     -15.594 -24.222  17.887  0.00  0.00    -0.062 C 
ATOM     11  C05 9H7 d   1     -13.729 -24.951  14.978  0.00  0.00    -0.100 C 
ATOM     12  C06 9H7 d   1     -13.387 -23.469  14.637  0.00  0.00    -0.003 A 
ATOM     13  C07 9H7 d   1     -12.677 -23.787  13.313  0.00  0.00    -0.024 A 
ATOM     14  C14 9H7 d   1     -12.744 -18.419  16.580  0.00  0.00    -0.012 C 
ATOM     15  C19 9H7 d   1     -17.580 -21.482  16.923  0.00  0.00    -0.038 C 
ATOM     16  C23 9H7 d   1     -12.164 -22.651  14.192  0.00  0.00     0.109 A 
ATOM     17  C25 9H7 d   1     -12.999 -20.636  15.641  0.00  0.00     0.241 C 
ATOM     18  N16 9H7 d   1     -14.907 -19.161  16.137  0.00  0.00    -0.334 N 
ATOM     19  N24 9H7 d   1     -12.504 -21.201  14.384  0.00  0.00    -0.342 N 
ATOM     20  O18 9H7 d   1     -15.594 -20.999  14.887  0.00  0.00    -0.271 OA
ATOM     21  O26 9H7 d   1     -13.150 -21.313  16.606  0.00  0.00    -0.271 OA
ATOM     22  H2  9H7 d   1     -13.624 -16.771  17.959  0.00  0.00     0.086 H 
ATOM     23  H3  9H7 d   1     -13.224 -18.693  14.650  0.00  0.00     0.088 H 
ATOM     24  H4  9H7 d   1     -17.684 -23.649  18.201  0.00  0.00     0.033 H 
ATOM     25  H5  9H7 d   1     -16.609 -23.307  19.598  0.00  0.00     0.033 H 
ATOM     26  H6  9H7 d   1     -16.819 -24.576  16.119  0.00  0.00     0.038 H 
ATOM     27  H7  9H7 d   1     -15.590 -23.280  15.921  0.00  0.00     0.038 H 
ATOM     28  H8  9H7 d   1     -14.961 -26.366  15.944  0.00  0.00     0.076 H 
ATOM     29  H9  9H7 d   1     -15.928 -17.345  16.909  0.00  0.00     0.068 H 
ATOM     30  H10 9H7 d   1     -15.171 -18.352  18.190  0.00  0.00     0.068 H 
ATOM     31  H11 9H7 d   1     -17.425 -19.308  16.972  0.00  0.00     0.087 H 
ATOM     32  H12 9H7 d   1     -15.477 -21.772  17.498  0.00  0.00     0.033 H 
ATOM     33  H13 9H7 d   1     -16.517 -21.137  18.817  0.00  0.00     0.033 H 
ATOM     34  H14 9H7 d   1     -15.690 -25.235  18.306  0.00  0.00     0.033 H 
ATOM     35  H15 9H7 d   1     -14.596 -23.822  18.121  0.00  0.00     0.033 H 
ATOM     36  H16 9H7 d   1     -13.086 -25.737  14.585  0.00  0.00     0.077 H 
ATOM     37  H17 9H7 d   1     -14.285 -22.854  14.794  0.00  0.00     0.050 H 
ATOM     38  H18 9H7 d   1     -13.171 -23.561  12.357  0.00  0.00     0.038 H 
ATOM     39  H19 9H7 d   1     -12.090 -24.712  13.213  0.00  0.00     0.038 H 
ATOM     40  H22 9H7 d   1     -12.461 -19.047  17.438  0.00  0.00     0.040 H 
ATOM     41  H23 9H7 d   1     -11.847 -17.931  16.171  0.00  0.00     0.040 H 
ATOM     42  H24 9H7 d   1     -17.602 -22.265  16.151  0.00  0.00     0.036 H 
ATOM     43  H25 9H7 d   1     -18.552 -21.446  17.437  0.00  0.00     0.036 H 
ATOM     44  H52 9H7 d   1     -12.385 -20.584  13.606  0.00  0.00     0.163 HD
ENDROOT
BRANCH   1  45
ATOM     45  O12 9H7 d   1     -14.049 -16.348  15.978  0.00  0.00    -0.350 OA
BRANCH  45  46
ATOM     46  C11 9H7 d   1     -13.174 -15.231  16.102  0.00  0.00     0.225 A 
ATOM     47  C10 9H7 d   1     -13.105 -14.159  14.973  0.00  0.00     0.182 A 
ATOM     48  N51 9H7 d   1     -12.215 -13.014  15.097  0.00  0.00    -0.056 N 
ATOM     49  H1  9H7 d   1     -12.307 -14.738  14.485  0.00  0.00     0.099 H 
ATOM     50  C50 9H7 d   1     -11.381 -12.866  16.310  0.00  0.00     0.130 A 
ATOM     51  H57 9H7 d   1     -12.790 -12.188  15.034  0.00  0.00     0.278 HD
ATOM     52  H58 9H7 d   1     -11.585 -13.046  14.311  0.00  0.00     0.278 HD
ATOM     53  C45 9H7 d   1     -11.445 -13.898  17.418  0.00  0.00     0.132 A 
ATOM     54  C49 9H7 d   1     -10.432 -11.640  16.436  0.00  0.00    -0.036 A 
ATOM     55  H49 9H7 d   1     -12.186 -12.296  16.797  0.00  0.00     0.087 H 
ATOM     56  C46 9H7 d   1     -10.556 -13.741  18.692  0.00  0.00    -0.036 A 
ATOM     57  N44 9H7 d   1     -12.343 -15.066  17.289  0.00  0.00    -0.040 N 
ATOM     58  H40 9H7 d   1     -12.250 -13.328  17.905  0.00  0.00     0.087 H 
ATOM     59  C47 9H7 d   1      -9.619 -12.531  18.818  0.00  0.00    -0.063 A 
ATOM     60  H41 9H7 d   1      -9.926 -14.641  18.755  0.00  0.00     0.036 H 
ATOM     61  H42 9H7 d   1     -11.237 -13.709  19.555  0.00  0.00     0.036 H 
ATOM     62  C48 9H7 d   1      -9.561 -11.482  17.690  0.00  0.00    -0.063 A 
ATOM     63  H43 9H7 d   1      -8.600 -12.929  18.935  0.00  0.00     0.033 H 
ATOM     64  H44 9H7 d   1      -9.911 -11.997  19.734  0.00  0.00     0.033 H 
ATOM     65  H45 9H7 d   1      -8.517 -11.446  17.346  0.00  0.00     0.033 H 
ATOM     66  H46 9H7 d   1      -9.832 -10.517  18.143  0.00  0.00     0.033 H 
ATOM     67  H55 9H7 d   1     -11.761 -15.886  17.351  0.00  0.00     0.280 HD
ATOM     68  H56 9H7 d   1     -12.969 -15.038  18.079  0.00  0.00     0.280 HD
ATOM     69  H47 9H7 d   1      -9.749 -11.675  15.575  0.00  0.00     0.036 H 
ATOM     70  H48 9H7 d   1     -11.061 -10.740  16.369  0.00  0.00     0.036 H 
ATOM     71  H21 9H7 d   1     -12.372 -15.805  15.615  0.00  0.00     0.133 H 
BRANCH  47  72
ATOM     72  C09 9H7 d   1     -13.959 -14.254  13.696  0.00  0.00     0.017 A 
ATOM     73  C08 9H7 d   1     -14.166 -13.158  12.748  0.00  0.00    -0.068 A 
ATOM     74  C52 9H7 d   1     -15.125 -13.707  11.577  0.00  0.00    -0.076 A 
ATOM     75  H20 9H7 d   1     -13.748 -12.155  12.821  0.00  0.00     0.085 H 
ATOM     76  C54 9H7 d   1     -15.457 -15.100  11.861  0.00  0.00    -0.044 A 
ATOM     77  H50 9H7 d   1     -15.469 -13.135  10.717  0.00  0.00     0.084 H 
ATOM     78  S53 9H7 d   1     -14.746 -15.499  13.196  0.00  0.00    -0.104 SA
ATOM     79  H51 9H7 d   1     -16.087 -15.746  11.252  0.00  0.00     0.095 H 
ENDBRANCH  47  72
ENDBRANCH  45  46
ENDBRANCH   1  45
BRANCH   8  80
ATOM     80  N36 9H7 d   1     -18.302 -19.946  15.181  0.00  0.00    -0.324 N 
ATOM     81  C37 9H7 d   1     -18.558 -18.602  14.637  0.00  0.00     0.362 C 
ATOM     82  O38 9H7 d   1     -18.057 -17.650  15.150  0.00  0.00    -0.238 OA
ATOM     83  H54 9H7 d   1     -18.798 -20.735  14.818  0.00  0.00     0.165 HD
BRANCH  81  84
ATOM     84  O39 9H7 d   1     -19.387 -18.497  13.484  0.00  0.00    -0.294 OA
BRANCH  84  85
ATOM     85  C40 9H7 d   1     -19.958 -17.225  13.170  0.00  0.00     0.061 C 
BRANCH  85  86
ATOM     86  C41 9H7 d   1     -20.549 -16.553  14.438  0.00  0.00    -0.048 C 
ATOM     87  H31 9H7 d   1     -20.981 -15.578  14.169  0.00  0.00     0.031 H 
ATOM     88  H32 9H7 d   1     -19.752 -16.408  15.182  0.00  0.00     0.031 H 
ATOM     89  H33 9H7 d   1     -21.333 -17.197  14.862  0.00  0.00     0.031 H 
ENDBRANCH  85  86
BRANCH  85  90
ATOM     90  C42 9H7 d   1     -21.118 -17.489  12.173  0.00  0.00    -0.048 C 
ATOM     91  H34 9H7 d   1     -20.720 -17.966  11.265  0.00  0.00     0.031 H 
ATOM     92  H35 9H7 d   1     -21.596 -16.535  11.906  0.00  0.00     0.031 H 
ATOM     93  H36 9H7 d   1     -21.860 -18.153  12.641  0.00  0.00     0.031 H 
ENDBRANCH  85  90
BRANCH  85  94
ATOM     94  C43 9H7 d   1     -18.901 -16.305  12.498  0.00  0.00    -0.048 C 
ATOM     95  H37 9H7 d   1     -18.078 -16.116  13.203  0.00  0.00     0.031 H 
ATOM     96  H38 9H7 d   1     -19.370 -15.350  12.219  0.00  0.00     0.031 H 
ATOM     97  H39 9H7 d   1     -18.506 -16.797  11.597  0.00  0.00     0.031 H 
ENDBRANCH  85  94
ENDBRANCH  84  85
ENDBRANCH  81  84
ENDBRANCH   8  80
BRANCH  16  98
ATOM     98  C27 9H7 d   1     -10.923 -23.123  14.977  0.00  0.00     0.194 C 
ATOM     99  N29 9H7 d   1     -10.316 -22.360  15.795  0.00  0.00    -0.263 N 
ATOM    100  H53 9H7 d   1     -10.595 -21.421  15.997  0.00  0.00     0.180 HD
ATOM    101  O28 9H7 d   1     -10.417 -24.391  14.768  0.00  0.00    -0.174 OA
BRANCH  99 102
ATOM    102  S30 9H7 d   1      -8.971 -23.129  16.504  0.00  0.00     0.236 S 
ATOM    103  O31 9H7 d   1      -8.103 -23.730  15.483  0.00  0.00    -0.205 OA
ATOM    104  O32 9H7 d   1      -9.424 -24.269  17.318  0.00  0.00    -0.205 OA
BRANCH 102 105
ATOM    105  C33 9H7 d   1      -8.094 -21.892  17.547  0.00  0.00     0.063 A 
ATOM    106  C34 9H7 d   1      -6.835 -21.294  16.921  0.00  0.00    -0.046 A 
ATOM    107  C35 9H7 d   1      -6.716 -22.321  18.056  0.00  0.00    -0.046 A 
ATOM    108  H27 9H7 d   1      -6.577 -20.240  17.103  0.00  0.00     0.035 H 
ATOM    109  H28 9H7 d   1      -6.545 -21.570  15.896  0.00  0.00     0.035 H 
ATOM    110  H29 9H7 d   1      -6.342 -23.334  17.845  0.00  0.00     0.035 H 
ATOM    111  H30 9H7 d   1      -6.374 -22.004  19.052  0.00  0.00     0.035 H 
ATOM    112  H26 9H7 d   1      -8.786 -21.296  18.160  0.00  0.00     0.066 H 
ENDBRANCH 102 105
ENDBRANCH  99 102
ENDBRANCH  16  98
TORSDOF 12
