REMARK  13 active torsions:
REMARK  status: ('A' for Active; 'I' for Inactive)
REMARK    1  A    between atoms: O3B_13  and  C1'_1 
REMARK    2  A    between atoms: C2'_2  and  O2'_3 
REMARK    3  A    between atoms: C3'_4  and  O3'_5 
REMARK    4  A    between atoms: C4'_6  and  O4'_7 
REMARK    5  A    between atoms: PB_10  and  O3B_13 
REMARK    6  A    between atoms: PB_10  and  O3A_14 
REMARK    7  A    between atoms: O3A_14  and  PA_15 
REMARK    8  A    between atoms: PA_15  and  O5D_18 
REMARK    9  A    between atoms: O5D_18  and  C5D_19 
REMARK   10  A    between atoms: C5D_19  and  C4D_20 
REMARK   11  A    between atoms: C3D_22  and  O3D_23 
REMARK   12  A    between atoms: C2D_24  and  O2D_25 
REMARK   13  A    between atoms: C1D_26  and  N1_27 
ROOT
ATOM      1  O5D UDX d   1      21.115  -9.904  24.884  0.00  0.00    -0.287 OA
ENDROOT
BRANCH   1   2
ATOM      2  PA  UDX d   1      19.890 -10.232  23.888  0.00  0.00     0.417 P 
ATOM      3  O1A UDX d   1      19.856  -9.224  22.768  0.00  0.00    -0.624 OA
ATOM      4  O2A UDX d   1      20.015 -11.652  23.415  0.00  0.00    -0.624 OA
BRANCH   2   5
ATOM      5  O3A UDX d   1      18.597 -10.186  24.861  0.00  0.00    -0.180 OA
BRANCH   5   6
ATOM      6  PB  UDX d   1      17.904  -8.892  25.509  0.00  0.00     0.420 P 
ATOM      7  O1B UDX d   1      18.852  -7.815  26.007  0.00  0.00    -0.624 OA
ATOM      8  O2B UDX d   1      16.978  -8.270  24.498  0.00  0.00    -0.624 OA
BRANCH   6   9
ATOM      9  O3B UDX d   1      17.016  -9.503  26.700  0.00  0.00    -0.256 OA
BRANCH   9  10
ATOM     10  C1' UDX d   1      15.589  -9.552  26.467  0.00  0.00     0.170 C 
ATOM     11  C2' UDX d   1      14.767  -9.813  27.737  0.00  0.00     0.110 C 
ATOM     12  C3' UDX d   1      14.857 -11.249  28.242  0.00  0.00     0.091 C 
ATOM     13  H2  UDX d   1      13.714  -9.599  27.501  0.00  0.00     0.094 H 
ATOM     14  C4' UDX d   1      14.681 -12.226  27.074  0.00  0.00     0.083 C 
ATOM     15  H4  UDX d   1      15.845 -11.420  28.696  0.00  0.00     0.091 H 
ATOM     16  C5' UDX d   1      15.627 -11.862  25.936  0.00  0.00     0.049 C 
ATOM     17  H6  UDX d   1      13.644 -12.152  26.714  0.00  0.00     0.090 H 
ATOM     18  O5' UDX d   1      15.274 -10.552  25.482  0.00  0.00    -0.355 OA
ATOM     19  H8  UDX d   1      15.521 -12.585  25.114  0.00  0.00     0.078 H 
ATOM     20  H9  UDX d   1      16.666 -11.867  26.296  0.00  0.00     0.078 H 
ATOM     21  H1  UDX d   1      15.287  -8.571  26.071  0.00  0.00     0.134 H 
BRANCH  11  22
ATOM     22  O2' UDX d   1      15.184  -8.952  28.789  0.00  0.00    -0.388 OA
ATOM     23  H3  UDX d   1      16.102  -9.107  28.979  0.00  0.00     0.210 HD
ENDBRANCH  11  22
BRANCH  12  24
ATOM     24  O3' UDX d   1      13.841 -11.410  29.250  0.00  0.00    -0.390 OA
ATOM     25  H5  UDX d   1      13.998 -10.796  29.957  0.00  0.00     0.210 HD
ENDBRANCH  12  24
BRANCH  14  26
ATOM     26  O4' UDX d   1      14.931 -13.576  27.467  0.00  0.00    -0.391 OA
ATOM     27  H7  UDX d   1      14.324 -13.822  28.155  0.00  0.00     0.210 HD
ENDBRANCH  14  26
ENDBRANCH   9  10
ENDBRANCH   6   9
ENDBRANCH   5   6
ENDBRANCH   2   5
ENDBRANCH   1   2
BRANCH   1  28
ATOM     28  C5D UDX d   1      21.506 -10.849  25.877  0.00  0.00     0.058 C 
ATOM     29  H10 UDX d   1      21.144 -11.852  25.608  0.00  0.00     0.079 H 
ATOM     30  H11 UDX d   1      21.095 -10.561  26.856  0.00  0.00     0.079 H 
BRANCH  28  31
ATOM     31  C4D UDX d   1      23.032 -10.836  25.924  0.00  0.00     0.089 C 
ATOM     32  O4D UDX d   1      23.516 -11.605  27.026  0.00  0.00    -0.353 OA
ATOM     33  C1D UDX d   1      24.694 -12.290  26.602  0.00  0.00     0.141 C 
ATOM     34  C2D UDX d   1      24.421 -12.658  25.157  0.00  0.00     0.105 C 
ATOM     35  H17 UDX d   1      25.571 -11.628  26.648  0.00  0.00     0.123 H 
ATOM     36  C3D UDX d   1      23.598 -11.479  24.664  0.00  0.00     0.091 C 
ATOM     37  H15 UDX d   1      23.841 -13.591  25.095  0.00  0.00     0.093 H 
ATOM     38  H13 UDX d   1      22.790 -11.832  24.006  0.00  0.00     0.091 H 
ATOM     39  H12 UDX d   1      23.383  -9.797  26.009  0.00  0.00     0.090 H 
BRANCH  33  40
ATOM     40  N1  UDX d   1      24.906 -13.408  27.510  0.00  0.00    -0.280 N 
ATOM     41  C6  UDX d   1      24.013 -14.389  27.608  0.00  0.00    -0.008 A 
ATOM     42  C5  UDX d   1      24.235 -15.423  28.502  0.00  0.00    -0.002 A 
ATOM     43  H18 UDX d   1      23.116 -14.379  26.991  0.00  0.00     0.112 H 
ATOM     44  C4  UDX d   1      25.379 -15.423  29.291  0.00  0.00     0.250 A 
ATOM     45  H20 UDX d   1      23.514 -16.235  28.587  0.00  0.00     0.094 H 
ATOM     46  N3  UDX d   1      26.251 -14.420  29.187  0.00  0.00    -0.275 N 
ATOM     47  O4  UDX d   1      25.579 -16.359  30.105  0.00  0.00    -0.268 OA
ATOM     48  C2  UDX d   1      26.047 -13.420  28.327  0.00  0.00     0.331 A 
ATOM     49  H19 UDX d   1      27.070 -14.417  29.762  0.00  0.00     0.173 HD
ATOM     50  O2  UDX d   1      26.881 -12.497  28.231  0.00  0.00    -0.246 OA
ENDBRANCH  33  40
BRANCH  34  51
ATOM     51  O2D UDX d   1      25.631 -12.814  24.414  0.00  0.00    -0.388 OA
ATOM     52  H16 UDX d   1      26.157 -12.028  24.499  0.00  0.00     0.210 HD
ENDBRANCH  34  51
BRANCH  36  53
ATOM     53  O3D UDX d   1      24.383 -10.502  23.970  0.00  0.00    -0.390 OA
ATOM     54  H14 UDX d   1      25.091 -10.209  24.532  0.00  0.00     0.210 HD
ENDBRANCH  36  53
ENDBRANCH  28  31
ENDBRANCH   1  28
TORSDOF 13
