REMARK  10 active torsions:
REMARK  status: ('A' for Active; 'I' for Inactive)
REMARK    1  A    between atoms: NAS_26  and  C6_3 
REMARK    2  A    between atoms: NAR_25  and  C1_9 
REMARK    3  A    between atoms: C2_10  and  NAR_25 
REMARK    4  A    between atoms: OAT_28  and  CAB_11 
REMARK    5  A    between atoms: OAU_29  and  CAC_12 
REMARK    6  A    between atoms: NBC_27  and  CAD_13 
REMARK    7  A    between atoms: NAR_25  and  CAK_17 
REMARK    8  A    between atoms: CAW_22  and  OAT_28 
REMARK    9  A    between atoms: CAX_23  and  OAU_29 
REMARK   10  A    between atoms: CBB_24  and  NAS_26 
ROOT
ATOM      1  C4  9HG d   1      20.889 -14.746  -2.870  0.00  0.00     0.092 A 
ATOM      2  C5  9HG d   1      21.065 -13.508  -2.247  0.00  0.00     0.042 A 
ATOM      3  C6  9HG d   1      21.836 -12.530  -2.895  0.00  0.00     0.155 A 
ATOM      4  N1  9HG d   1      22.392 -12.812  -4.090  0.00  0.00    -0.044 NA
ATOM      5  N3  9HG d   1      21.457 -14.969  -4.076  0.00  0.00    -0.062 NA
ATOM      6  C2  9HG d   1      22.206 -14.013  -4.670  0.00  0.00     0.727 A 
ATOM      7  CAE 9HG d   1      20.131 -15.754  -2.266  0.00  0.00    -0.019 A 
ATOM      8  CAF 9HG d   1      20.469 -13.270  -1.010  0.00  0.00    -0.032 A 
ATOM      9  CAW 9HG d   1      19.541 -15.509  -1.029  0.00  0.00     0.103 A 
ATOM     10  CAX 9HG d   1      19.716 -14.280  -0.408  0.00  0.00     0.102 A 
ATOM     11  H19 9HG d   1      20.005 -16.713  -2.754  0.00  0.00     0.091 H 
ATOM     12  H20 9HG d   1      20.589 -12.310  -0.520  0.00  0.00     0.089 H 
ENDROOT
BRANCH   3  13
ATOM     13  NAS 9HG d   1      22.054 -11.303  -2.361  0.00  0.00    -0.369 N 
ATOM     14  H33 9HG d   1      21.650 -11.057  -1.446  0.00  0.00     0.161 HD
BRANCH  13  15
ATOM     15  CBB 9HG d   1      22.870 -10.327  -3.096  0.00  0.00     0.014 C 
ATOM     16  CAL 9HG d   1      23.786  -9.619  -2.099  0.00  0.00    -0.024 C 
ATOM     17  CAN 9HG d   1      24.434  -8.386  -2.731  0.00  0.00     0.085 C 
ATOM     18  H24 9HG d   1      23.194  -9.307  -1.226  0.00  0.00     0.038 H 
ATOM     19  H25 9HG d   1      24.575 -10.315  -1.778  0.00  0.00     0.038 H 
ATOM     20  NBC 9HG d   1      23.383  -7.460  -3.164  0.00  0.00    -0.075 N 
ATOM     21  H28 9HG d   1      25.037  -8.691  -3.599  0.00  0.00     0.076 H 
ATOM     22  H29 9HG d   1      25.080  -7.890  -1.992  0.00  0.00     0.076 H 
ATOM     23  CAO 9HG d   1      22.582  -8.111  -4.210  0.00  0.00     0.085 C 
ATOM     24  H34 9HG d   1      22.797  -7.223  -2.379  0.00  0.00     0.279 HD
ATOM     25  CAM 9HG d   1      21.863  -9.313  -3.604  0.00  0.00    -0.024 C 
ATOM     26  H30 9HG d   1      21.843  -7.399  -4.606  0.00  0.00     0.076 H 
ATOM     27  H31 9HG d   1      23.241  -8.447  -5.025  0.00  0.00     0.076 H 
ATOM     28  H26 9HG d   1      21.231  -9.783  -4.372  0.00  0.00     0.038 H 
ATOM     29  H27 9HG d   1      21.234  -8.976  -2.767  0.00  0.00     0.038 H 
ATOM     30  H32 9HG d   1      23.444 -10.792  -3.911  0.00  0.00     0.072 H 
BRANCH  20  31
ATOM     31  CAD 9HG d   1      23.979  -6.238  -3.724  0.00  0.00     0.066 C 
ATOM     32  H16 9HG d   1      24.583  -5.738  -2.953  0.00  0.00     0.068 H 
ATOM     33  H17 9HG d   1      23.180  -5.561  -4.060  0.00  0.00     0.068 H 
ATOM     34  H18 9HG d   1      24.620  -6.501  -4.578  0.00  0.00     0.068 H 
ENDBRANCH  20  31
ENDBRANCH  13  15
ENDBRANCH   3  13
BRANCH   6  35
ATOM     35  NAR 9HG d   1      22.789 -14.289  -5.902  0.00  0.00    -0.214 N 
BRANCH  35  36
ATOM     36  C1  9HG d   1      23.571 -13.275  -6.598  0.00  0.00    -0.002 C 
ATOM     37  H7  9HG d   1      23.588 -12.351  -6.001  0.00  0.00     0.057 H 
ATOM     38  H8  9HG d   1      23.116 -13.070  -7.578  0.00  0.00     0.057 H 
ATOM     39  H9  9HG d   1      24.599 -13.639  -6.740  0.00  0.00     0.057 H 
ENDBRANCH  35  36
BRANCH  35  40
ATOM     40  CAK 9HG d   1      22.595 -15.622  -6.464  0.00  0.00     0.028 C 
ATOM     41  C8  9HG d   1      22.783 -15.550  -7.970  0.00  0.00    -0.045 C 
ATOM     42  C3  9HG d   1      23.394 -16.892  -8.347  0.00  0.00    -0.063 C 
ATOM     43  H3  9HG d   1      21.816 -15.408  -8.475  0.00  0.00     0.036 H 
ATOM     44  H4  9HG d   1      23.461 -14.726  -8.237  0.00  0.00     0.036 H 
ATOM     45  C7  9HG d   1      24.219 -17.326  -7.140  0.00  0.00    -0.063 C 
ATOM     46  H5  9HG d   1      22.603 -17.628  -8.555  0.00  0.00     0.033 H 
ATOM     47  H6  9HG d   1      24.038 -16.785  -9.232  0.00  0.00     0.033 H 
ATOM     48  CAJ 9HG d   1      23.740 -16.493  -5.954  0.00  0.00    -0.045 C 
ATOM     49  H1  9HG d   1      25.287 -17.141  -7.325  0.00  0.00     0.033 H 
ATOM     50  H2  9HG d   1      24.062 -18.396  -6.939  0.00  0.00     0.033 H 
ATOM     51  H21 9HG d   1      24.559 -15.861  -5.579  0.00  0.00     0.036 H 
ATOM     52  H22 9HG d   1      23.385 -17.151  -5.147  0.00  0.00     0.036 H 
ATOM     53  H23 9HG d   1      21.610 -16.032  -6.195  0.00  0.00     0.073 H 
ENDBRANCH  35  40
ENDBRANCH   6  35
BRANCH  10  54
ATOM     54  OAU 9HG d   1      19.126 -14.079   0.807  0.00  0.00    -0.353 OA
BRANCH  54  55
ATOM     55  CAC 9HG d   1      19.564 -12.997   1.641  0.00  0.00     0.010 C 
ATOM     56  H13 9HG d   1      18.979 -12.992   2.572  0.00  0.00     0.066 H 
ATOM     57  H14 9HG d   1      19.419 -12.044   1.111  0.00  0.00     0.066 H 
ATOM     58  H15 9HG d   1      20.630 -13.126   1.879  0.00  0.00     0.066 H 
ENDBRANCH  54  55
ENDBRANCH  10  54
BRANCH   9  59
ATOM     59  OAT 9HG d   1      18.782 -16.463  -0.398  0.00  0.00    -0.353 OA
BRANCH  59  60
ATOM     60  CAB 9HG d   1      18.616 -17.740  -1.025  0.00  0.00     0.010 C 
ATOM     61  H10 9HG d   1      17.985 -18.380  -0.391  0.00  0.00     0.066 H 
ATOM     62  H11 9HG d   1      19.600 -18.213  -1.160  0.00  0.00     0.066 H 
ATOM     63  H12 9HG d   1      18.136 -17.607  -2.006  0.00  0.00     0.066 H 
ENDBRANCH  59  60
ENDBRANCH   9  59
TORSDOF 10
