REMARK  15 active torsions:
REMARK  status: ('A' for Active; 'I' for Inactive)
REMARK    1  A    between atoms: C10_1  and  C11_2 
REMARK    2  A    between atoms: C11_2  and  O12_22 
REMARK    3  A    between atoms: C14_3  and  C15_4 
REMARK    4  A    between atoms: N13_17  and  C14_3 
REMARK    5  A    between atoms: C15_4  and  P16_28 
REMARK    6  A    between atoms: C20_6  and  C21_7 
REMARK    7  A    between atoms: C21_7  and  O22_25 
REMARK    8  A    between atoms: C23_14  and  O24_8 
REMARK    9  A    between atoms: C03_10  and  C02_9 
REMARK   10  A    between atoms: C02_9  and  O01_18 
REMARK   11  A    between atoms: O06_20  and  C05_11 
REMARK   12  A    between atoms: C07_12  and  O06_20 
REMARK   13  A    between atoms: C08_13  and  O09_21 
REMARK   14  A    between atoms: C25_15  and  O26_26 
REMARK   15  A    between atoms: C27_16  and  O28_27 
ROOT
ATOM      1  C10 9HV d   1      24.385 -29.887 283.124  0.00  0.00     0.151 C 
ATOM      2  C20 9HV d   1      26.303 -31.193 282.574  0.00  0.00     0.151 C 
ATOM      3  C07 9HV d   1      25.476 -31.018 281.294  0.00  0.00     0.098 C 
ATOM      4  C08 9HV d   1      24.078 -30.640 281.813  0.00  0.00     0.092 C 
ATOM      5  N13 9HV d   1      25.639 -30.432 283.641  0.00  0.00    -0.053 N 
ATOM      6  H1  9HV d   1      24.560 -28.831 282.872  0.00  0.00     0.092 H 
ATOM      7  H8  9HV d   1      26.327 -32.257 282.850  0.00  0.00     0.092 H 
ATOM      8  H16 9HV d   1      25.885 -30.238 280.635  0.00  0.00     0.090 H 
ATOM      9  H17 9HV d   1      23.496 -31.550 282.021  0.00  0.00     0.090 H 
ATOM     10  H21 9HV d   1      26.241 -29.705 283.994  0.00  0.00     0.281 HD
ENDROOT
BRANCH   3  11
ATOM     11  O06 9HV d   1      25.456 -32.280 280.632  0.00  0.00    -0.348 OA
BRANCH  11  12
ATOM     12  C05 9HV d   1      25.020 -32.129 279.305  0.00  0.00     0.159 C 
ATOM     13  C23 9HV d   1      24.619 -33.520 278.771  0.00  0.00     0.110 C 
ATOM     14  C25 9HV d   1      25.855 -34.390 278.447  0.00  0.00     0.092 C 
ATOM     15  H18 9HV d   1      24.025 -33.394 277.853  0.00  0.00     0.094 H 
ATOM     16  C27 9HV d   1      26.822 -33.608 277.540  0.00  0.00     0.090 C 
ATOM     17  H19 9HV d   1      26.366 -34.646 279.387  0.00  0.00     0.091 H 
ATOM     18  C03 9HV d   1      27.205 -32.298 278.263  0.00  0.00     0.089 C 
ATOM     19  H20 9HV d   1      26.318 -33.362 276.594  0.00  0.00     0.091 H 
ATOM     20  O04 9HV d   1      26.041 -31.499 278.516  0.00  0.00    -0.348 OA
ATOM     21  H14 9HV d   1      27.665 -32.559 279.228  0.00  0.00     0.090 H 
ATOM     22  H15 9HV d   1      24.131 -31.481 279.292  0.00  0.00     0.133 H 
BRANCH  13  23
ATOM     23  O24 9HV d   1      23.832 -34.161 279.758  0.00  0.00    -0.388 OA
ATOM     24  H11 9HV d   1      24.339 -34.250 280.557  0.00  0.00     0.210 HD
ENDBRANCH  13  23
BRANCH  14  25
ATOM     25  O26 9HV d   1      25.469 -35.586 277.789  0.00  0.00    -0.390 OA
ATOM     26  H26 9HV d   1      25.038 -35.371 276.971  0.00  0.00     0.210 HD
ENDBRANCH  14  25
BRANCH  16  27
ATOM     27  O28 9HV d   1      27.968 -34.405 277.254  0.00  0.00    -0.390 OA
ATOM     28  H27 9HV d   1      28.560 -33.917 276.694  0.00  0.00     0.210 HD
ENDBRANCH  16  27
BRANCH  18  29
ATOM     29  C02 9HV d   1      28.226 -31.493 277.441  0.00  0.00     0.043 C 
ATOM     30  H12 9HV d   1      28.174 -30.430 277.720  0.00  0.00     0.078 H 
ATOM     31  H13 9HV d   1      28.010 -31.602 276.368  0.00  0.00     0.078 H 
BRANCH  29  32
ATOM     32  O01 9HV d   1      29.529 -32.007 277.728  0.00  0.00    -0.398 OA
ATOM     33  H22 9HV d   1      29.566 -32.926 277.488  0.00  0.00     0.209 HD
ENDBRANCH  29  32
ENDBRANCH  18  29
ENDBRANCH  11  12
ENDBRANCH   3  11
BRANCH   2  34
ATOM     34  C21 9HV d   1      27.756 -30.707 282.352  0.00  0.00     0.046 C 
ATOM     35  H9  9HV d   1      28.238 -31.349 281.600  0.00  0.00     0.077 H 
ATOM     36  H10 9HV d   1      28.307 -30.778 283.302  0.00  0.00     0.077 H 
BRANCH  34  37
ATOM     37  O22 9HV d   1      27.787 -29.363 281.900  0.00  0.00    -0.399 OA
ATOM     38  H25 9HV d   1      27.376 -28.803 282.548  0.00  0.00     0.209 HD
ENDBRANCH  34  37
ENDBRANCH   2  34
BRANCH   4  39
ATOM     39  O09 9HV d   1      23.322 -29.817 280.898  0.00  0.00    -0.391 OA
ATOM     40  H23 9HV d   1      22.474 -29.621 281.277  0.00  0.00     0.210 HD
ENDBRANCH   4  39
BRANCH   5  41
ATOM     41  C14 9HV d   1      25.245 -31.374 284.699  0.00  0.00     0.096 C 
ATOM     42  H4  9HV d   1      25.502 -30.925 285.670  0.00  0.00     0.077 H 
ATOM     43  H5  9HV d   1      24.156 -31.520 284.639  0.00  0.00     0.077 H 
BRANCH  41  44
ATOM     44  C15 9HV d   1      25.921 -32.762 284.618  0.00  0.00     0.062 C 
ATOM     45  H6  9HV d   1      26.680 -32.848 285.409  0.00  0.00     0.056 H 
ATOM     46  H7  9HV d   1      26.400 -32.880 283.635  0.00  0.00     0.056 H 
BRANCH  44  47
ATOM     47  P16 9HV d   1      24.655 -34.065 284.842  0.00  0.00     0.261 P 
ATOM     48  O18 9HV d   1      25.240 -35.177 285.807  0.00  0.00    -0.640 OA
ATOM     49  O17 9HV d   1      23.437 -33.470 285.455  0.00  0.00    -0.640 OA
ATOM     50  O19 9HV d   1      24.288 -34.709 283.437  0.00  0.00    -0.640 OA
ENDBRANCH  44  47
ENDBRANCH  41  44
ENDBRANCH   5  41
BRANCH   1  51
ATOM     51  C11 9HV d   1      23.217 -29.905 284.133  0.00  0.00     0.046 C 
ATOM     52  H2  9HV d   1      23.586 -29.640 285.135  0.00  0.00     0.077 H 
ATOM     53  H3  9HV d   1      22.766 -30.908 284.162  0.00  0.00     0.077 H 
BRANCH  51  54
ATOM     54  O12 9HV d   1      22.244 -28.949 283.708  0.00  0.00    -0.399 OA
ATOM     55  H24 9HV d   1      21.931 -29.181 282.842  0.00  0.00     0.209 HD
ENDBRANCH  51  54
ENDBRANCH   1  51
TORSDOF 15
