REMARK  10 active torsions:
REMARK  status: ('A' for Active; 'I' for Inactive)
REMARK    1  A    between atoms: OAR_26  and  CAA_1 
REMARK    2  A    between atoms: CAN_10  and  CAO_11 
REMARK    3  A    between atoms: CAX_18  and  CAN_10 
REMARK    4  A    between atoms: CAO_11  and  CAY_19 
REMARK    5  A    between atoms: CAP_12  and  CAT_14 
REMARK    6  A    between atoms: NBA_22  and  CAP_12 
REMARK    7  A    between atoms: CAZ_20  and  CAS_13 
REMARK    8  A    between atoms: CAS_13  and  OAR_26 
REMARK    9  A    between atoms: CAU_15  and  OAC_24 
REMARK   10  A    between atoms: CAV_16  and  OAD_25 
ROOT
ATOM      1  CAN 9QY d   1      -1.359 -35.101   3.877  0.00  0.00    -0.006 C 
ATOM      2  H12 9QY d   1      -1.295 -35.152   2.780  0.00  0.00     0.045 H 
ATOM      3  H13 9QY d   1      -2.059 -35.868   4.239  0.00  0.00     0.045 H 
ENDROOT
BRANCH   1   4
ATOM      4  CAO 9QY d   1      -1.906 -33.728   4.264  0.00  0.00    -0.032 C 
ATOM      5  H14 9QY d   1      -1.200 -32.935   3.976  0.00  0.00     0.040 H 
ATOM      6  H15 9QY d   1      -2.093 -33.677   5.347  0.00  0.00     0.040 H 
BRANCH   4   7
ATOM      7  CAY 9QY d   1      -3.149 -33.599   3.525  0.00  0.00    -0.014 A 
ATOM      8  CAW 9QY d   1      -3.146 -33.395   2.130  0.00  0.00     0.074 A 
ATOM      9  CAU 9QY d   1      -4.328 -33.264   1.400  0.00  0.00     0.090 A 
ATOM     10 CL   9QY d   1      -1.686 -33.215   1.199  0.00  0.00    -0.081 Cl
ATOM     11  CAM 9QY d   1      -5.538 -33.348   2.076  0.00  0.00    -0.016 A 
ATOM     12  CAV 9QY d   1      -5.538 -33.546   3.441  0.00  0.00     0.085 A 
ATOM     13  H11 9QY d   1      -6.474 -33.259   1.536  0.00  0.00     0.092 H 
ATOM     14  CAZ 9QY d   1      -4.368 -33.649   4.195  0.00  0.00     0.080 A 
BRANCH   9  15
ATOM     15  OAC 9QY d   1      -4.240 -33.134   0.031  0.00  0.00    -0.359 OA
ATOM     16  H18 9QY d   1      -5.113 -33.054  -0.335  0.00  0.00     0.217 HD
ENDBRANCH   9  15
BRANCH  12  17
ATOM     17  OAD 9QY d   1      -6.729 -33.587   4.089  0.00  0.00    -0.360 OA
ATOM     18  H19 9QY d   1      -7.434 -33.507   3.458  0.00  0.00     0.217 HD
ENDBRANCH  12  17
BRANCH  14  19
ATOM     19  CAS 9QY d   1      -4.436 -33.855   5.586  0.00  0.00     0.296 C 
ATOM     20  OAB 9QY d   1      -4.945 -33.036   6.370  0.00  0.00    -0.259 OA
BRANCH  19  21
ATOM     21  OAR 9QY d   1      -3.947 -35.055   5.984  0.00  0.00    -0.322 OA
BRANCH  21  22
ATOM     22  CAA 9QY d   1      -3.922 -35.117   7.424  0.00  0.00     0.013 C 
ATOM     23  H1  9QY d   1      -3.525 -36.092   7.742  0.00  0.00     0.067 H 
ATOM     24  H2  9QY d   1      -4.943 -34.992   7.814  0.00  0.00     0.067 H 
ATOM     25  H3  9QY d   1      -3.279 -34.314   7.814  0.00  0.00     0.067 H 
ENDBRANCH  21  22
ENDBRANCH  19  21
ENDBRANCH  14  19
ENDBRANCH   4   7
ENDBRANCH   1   4
BRANCH   1  26
ATOM     26  CAX 9QY d   1       0.038 -35.404   4.460  0.00  0.00     0.106 A 
ATOM     27  NAQ 9QY d   1       0.267 -36.292   5.431  0.00  0.00    -0.246 NA
ATOM     28  CAI 9QY d   1       1.593 -36.317   5.631  0.00  0.00     0.019 A 
ATOM     29  CAL 9QY d   1       2.169 -35.458   4.778  0.00  0.00    -0.002 A 
ATOM     30  H7  9QY d   1       2.114 -36.932   6.363  0.00  0.00     0.117 H 
ATOM     31  NBA 9QY d   1       1.210 -34.901   4.041  0.00  0.00    -0.340 N 
ATOM     32  H10 9QY d   1       3.236 -35.252   4.701  0.00  0.00     0.113 H 
BRANCH  31  33
ATOM     33  CAP 9QY d   1       1.477 -33.900   3.016  0.00  0.00     0.024 C 
ATOM     34  H16 9QY d   1       2.401 -34.179   2.490  0.00  0.00     0.072 H 
ATOM     35  H17 9QY d   1       0.637 -33.897   2.306  0.00  0.00     0.072 H 
BRANCH  33  36
ATOM     36  CAT 9QY d   1       1.634 -32.583   3.533  0.00  0.00    -0.040 A 
ATOM     37  CAJ 9QY d   1       1.804 -32.264   4.891  0.00  0.00    -0.075 A 
ATOM     38  CAG 9QY d   1       1.966 -30.922   5.289  0.00  0.00    -0.082 A 
ATOM     39  H8  9QY d   1       1.810 -33.053   5.635  0.00  0.00     0.084 H 
ATOM     40  CAF 9QY d   1       1.997 -29.907   4.341  0.00  0.00    -0.083 A 
ATOM     41  H5  9QY d   1       2.067 -30.680   6.341  0.00  0.00     0.083 H 
ATOM     42  CAH 9QY d   1       1.840 -30.226   2.990  0.00  0.00    -0.082 A 
ATOM     43  H4  9QY d   1       2.142 -28.877   4.647  0.00  0.00     0.083 H 
ATOM     44  CAK 9QY d   1       1.663 -31.548   2.595  0.00  0.00    -0.075 A 
ATOM     45  H6  9QY d   1       1.856 -29.439   2.245  0.00  0.00     0.083 H 
ATOM     46  H9  9QY d   1       1.546 -31.779   1.542  0.00  0.00     0.084 H 
ENDBRANCH  33  36
ENDBRANCH  31  33
ENDBRANCH   1  26
TORSDOF 10
