REMARK  2 active torsions:
REMARK  status: ('A' for Active; 'I' for Inactive)
REMARK    1  A    between atoms: C1'_1  and  C1_4 
REMARK    2  A    between atoms: C4_7  and  O4_10 
ROOT
ATOM      1  C1  PHB d   1       0.367  70.958  22.626  0.00  0.00     0.041 A 
ATOM      2  C2  PHB d   1       1.562  70.382  23.029  0.00  0.00    -0.064 A 
ATOM      3  C3  PHB d   1       1.864  70.282  24.379  0.00  0.00    -0.050 A 
ATOM      4  C4  PHB d   1       0.972  70.756  25.329  0.00  0.00     0.065 A 
ATOM      5  C5  PHB d   1      -0.223  71.330  24.926  0.00  0.00    -0.050 A 
ATOM      6  C6  PHB d   1      -0.524  71.431  23.577  0.00  0.00    -0.064 A 
ATOM      7  H1  PHB d   1       2.261  70.010  22.289  0.00  0.00     0.085 H 
ATOM      8  H2  PHB d   1       2.799  69.832  24.692  0.00  0.00     0.087 H 
ATOM      9  H3  PHB d   1      -0.923  71.700  25.666  0.00  0.00     0.087 H 
ATOM     10  H4  PHB d   1      -1.459  71.881  23.264  0.00  0.00     0.085 H 
ENDROOT
BRANCH   1  11
ATOM     11  C1' PHB d   1       0.028  71.070  21.138  0.00  0.00     0.209 C 
ATOM     12  O1' PHB d   1       0.830  70.637  20.269  0.00  0.00    -0.644 OA
ATOM     13  O2' PHB d   1      -1.060  71.593  20.777  0.00  0.00    -0.644 OA
ENDBRANCH   1  11
BRANCH   4  14
ATOM     14  O4  PHB d   1       1.276  70.654  26.694  0.00  0.00    -0.361 OA
ATOM     15  H5  PHB d   1       0.612  70.131  27.127  0.00  0.00     0.217 HD
ENDBRANCH   4  14
TORSDOF 2
