REMARK  7 active torsions:
REMARK  status: ('A' for Active; 'I' for Inactive)
REMARK    1  A    between atoms: C02_2  and  C01_1 
REMARK    2  A    between atoms: N09_15  and  C08_6 
REMARK    3  A    between atoms: C11_7  and  C12_8 
REMARK    4  A    between atoms: S10_18  and  C11_7 
REMARK    5  A    between atoms: C12_8  and  C13_9 
REMARK    6  A    between atoms: C13_9  and  C14_10 
REMARK    7  A    between atoms: N09_15  and  S10_18 
ROOT
ATOM      1  N09 KMG d   1      20.831 -23.892 -41.237  0.00  0.00    -0.285 N 
ATOM      2  H17 KMG d   1      21.296 -24.759 -41.417  0.00  0.00     0.178 HD
ENDROOT
BRANCH   1   3
ATOM      3  C08 KMG d   1      20.740 -22.917 -42.307  0.00  0.00     0.043 A 
ATOM      4  C07 KMG d   1      20.524 -21.566 -42.030  0.00  0.00    -0.043 A 
ATOM      5  C06 KMG d   1      20.448 -20.639 -43.098  0.00  0.00     0.020 A 
ATOM      6  H4  KMG d   1      20.415 -21.229 -41.005  0.00  0.00     0.088 H 
ATOM      7  C02 KMG d   1      20.243 -19.215 -43.203  0.00  0.00     0.036 A 
ATOM      8  C05 KMG d   1      20.585 -21.074 -44.406  0.00  0.00     0.089 A 
ATOM      9  N03 KMG d   1      20.266 -18.886 -44.485  0.00  0.00    -0.281 N 
ATOM     10  N04 KMG d   1      20.472 -19.994 -45.207  0.00  0.00    -0.174 NA
ATOM     11  H16 KMG d   1      20.145 -17.936 -44.864  0.00  0.00     0.189 HD
ATOM     12  C18 KMG d   1      20.805 -22.446 -44.684  0.00  0.00    -0.051 A 
ATOM     13  C17 KMG d   1      20.879 -23.356 -43.636  0.00  0.00    -0.054 A 
ATOM     14  H15 KMG d   1      20.915 -22.784 -45.708  0.00  0.00     0.087 H 
ATOM     15  H14 KMG d   1      21.044 -24.407 -43.843  0.00  0.00     0.087 H 
BRANCH   7  16
ATOM     16  C01 KMG d   1      20.036 -18.244 -42.044  0.00  0.00    -0.035 C 
ATOM     17  H1  KMG d   1      19.907 -17.225 -42.438  0.00  0.00     0.035 H 
ATOM     18  H2  KMG d   1      20.913 -18.272 -41.381  0.00  0.00     0.035 H 
ATOM     19  H3  KMG d   1      19.139 -18.535 -41.478  0.00  0.00     0.035 H 
ENDBRANCH   7  16
ENDBRANCH   1   3
BRANCH   1  20
ATOM     20  S10 KMG d   1      20.178 -23.623 -39.682  0.00  0.00     0.231 S 
ATOM     21  O15 KMG d   1      20.082 -24.893 -38.965  0.00  0.00    -0.206 OA
ATOM     22  O16 KMG d   1      18.780 -23.197 -39.765  0.00  0.00    -0.206 OA
BRANCH  20  23
ATOM     23  C11 KMG d   1      21.156 -22.406 -38.744  0.00  0.00     0.046 C 
ATOM     24  H5  KMG d   1      21.602 -21.684 -39.444  0.00  0.00     0.058 H 
ATOM     25  H6  KMG d   1      20.496 -21.876 -38.042  0.00  0.00     0.058 H 
BRANCH  23  26
ATOM     26  C12 KMG d   1      22.268 -23.097 -37.962  0.00  0.00    -0.052 C 
ATOM     27  H7  KMG d   1      22.787 -23.800 -38.630  0.00  0.00     0.034 H 
ATOM     28  H8  KMG d   1      21.820 -23.650 -37.123  0.00  0.00     0.034 H 
BRANCH  26  29
ATOM     29  C13 KMG d   1      23.287 -22.102 -37.408  0.00  0.00    -0.068 C 
ATOM     30  H9  KMG d   1      22.761 -21.367 -36.781  0.00  0.00     0.032 H 
ATOM     31  H10 KMG d   1      23.773 -21.586 -38.249  0.00  0.00     0.032 H 
BRANCH  29  32
ATOM     32  C14 KMG d   1      24.358 -22.792 -36.567  0.00  0.00    -0.076 C 
ATOM     33  H11 KMG d   1      25.068 -22.041 -36.190  0.00  0.00     0.027 H 
ATOM     34  H12 KMG d   1      24.895 -23.525 -37.187  0.00  0.00     0.027 H 
ATOM     35  H13 KMG d   1      23.883 -23.306 -35.719  0.00  0.00     0.027 H 
ENDBRANCH  29  32
ENDBRANCH  26  29
ENDBRANCH  23  26
ENDBRANCH  20  23
ENDBRANCH   1  20
TORSDOF 7
