REMARK  7 active torsions:
REMARK  status: ('A' for Active; 'I' for Inactive)
REMARK    1  A    between atoms: C01_1  and  C27_10 
REMARK    2  A    between atoms: C11_5  and  C03_2 
REMARK    3  A    between atoms: C04_3  and  O05_29 
REMARK       I    between atoms: N13_27  and  C11_5 
REMARK    4  A    between atoms: C17_7  and  C14_6 
REMARK    5  A    between atoms: C14_6  and  N13_27 
REMARK    6  A    between atoms: C52_22  and  C17_7 
REMARK    7  A    between atoms: C33_12  and  C41_16 
REMARK       I    between atoms: N29_28  and  C33_12 
ROOT
ATOM      1  C01 GY6 d   1      -8.492  79.977  14.990  0.00  0.00     0.131 A 
ATOM      2  C03 GY6 d   1      -9.815  80.290  16.856  0.00  0.00     0.165 A 
ATOM      3  C04 GY6 d   1     -10.224  78.987  16.827  0.00  0.00     0.169 A 
ATOM      4  C07 GY6 d   1      -9.735  78.125  15.840  0.00  0.00     0.282 A 
ATOM      5  N02 GY6 d   1      -8.954  80.783  15.950  0.00  0.00    -0.225 NA
ATOM      6  N09 GY6 d   1      -8.859  78.666  14.927  0.00  0.00    -0.307 N 
ATOM      7  O08 GY6 d   1     -10.051  76.932  15.741  0.00  0.00    -0.265 OA
ATOM      8  H20 GY6 d   1      -8.485  78.086  14.204  0.00  0.00     0.170 HD
ENDROOT
BRANCH   1   9
ATOM      9  C27 GY6 d   1      -7.520  80.554  13.987  0.00  0.00     0.072 C 
ATOM     10  C24 GY6 d   1      -6.054  80.423  14.423  0.00  0.00    -0.038 C 
ATOM     11  C21 GY6 d   1      -5.910  81.614  15.355  0.00  0.00    -0.048 C 
ATOM     12  H7  GY6 d   1      -5.875  79.475  14.951  0.00  0.00     0.036 H 
ATOM     13  H8  GY6 d   1      -5.371  80.499  13.564  0.00  0.00     0.036 H 
ATOM     14  C30 GY6 d   1      -6.583  82.722  14.567  0.00  0.00    -0.001 C 
ATOM     15  H5  GY6 d   1      -4.852  81.846  15.545  0.00  0.00     0.035 H 
ATOM     16  H6  GY6 d   1      -6.424  81.436  16.311  0.00  0.00     0.035 H 
ATOM     17  N29 GY6 d   1      -7.640  82.014  13.825  0.00  0.00    -0.336 N 
ATOM     18  H10 GY6 d   1      -5.873  83.204  13.879  0.00  0.00     0.064 H 
ATOM     19  H11 GY6 d   1      -7.013  83.479  15.239  0.00  0.00     0.064 H 
ATOM     20  C33 GY6 d   1      -8.609  82.623  13.128  0.00  0.00     0.258 C 
ATOM     21  O34 GY6 d   1      -9.563  81.996  12.671  0.00  0.00    -0.267 OA
ATOM     22  H9  GY6 d   1      -7.682  80.047  13.024  0.00  0.00     0.085 H 
BRANCH  20  23
ATOM     23  C41 GY6 d   1      -8.500  84.107  12.928  0.00  0.00     0.075 A 
ATOM     24  C39 GY6 d   1      -9.201  85.023  13.712  0.00  0.00     0.051 A 
ATOM     25  C37 GY6 d   1      -9.086  86.387  13.517  0.00  0.00    -0.061 A 
ATOM     26 CL2  GY6 d   1     -10.259  84.471  14.973  0.00  0.00    -0.083 Cl
ATOM     27  C35 GY6 d   1      -8.257  86.863  12.529  0.00  0.00    -0.080 A 
ATOM     28  H13 GY6 d   1      -9.646  87.076  14.139  0.00  0.00     0.086 H 
ATOM     29  C44 GY6 d   1      -7.545  85.993  11.736  0.00  0.00    -0.061 A 
ATOM     30  H12 GY6 d   1      -8.164  87.932  12.374  0.00  0.00     0.083 H 
ATOM     31  C42 GY6 d   1      -7.667  84.630  11.940  0.00  0.00     0.051 A 
ATOM     32  H14 GY6 d   1      -6.893  86.373  10.957  0.00  0.00     0.086 H 
ATOM     33 CL   GY6 d   1      -6.755  83.564  10.916  0.00  0.00    -0.083 Cl
ENDBRANCH  20  23
ENDBRANCH   1   9
BRANCH   2  34
ATOM     34  C11 GY6 d   1     -10.310  81.224  17.932  0.00  0.00     0.273 C 
ATOM     35  N13 GY6 d   1      -9.845  82.473  17.890  0.00  0.00    -0.355 N 
ATOM     36  H21 GY6 d   1      -9.436  82.821  17.047  0.00  0.00     0.162 HD
ATOM     37  O12 GY6 d   1     -11.040  80.814  18.832  0.00  0.00    -0.266 OA
BRANCH  35  38
ATOM     38  C14 GY6 d   1      -9.928  83.336  19.064  0.00  0.00    -0.001 C 
ATOM     39  H1  GY6 d   1     -10.988  83.495  19.309  0.00  0.00     0.064 H 
ATOM     40  H2  GY6 d   1      -9.428  82.834  19.906  0.00  0.00     0.064 H 
BRANCH  38  41
ATOM     41  C17 GY6 d   1      -9.277  84.677  18.848  0.00  0.00    -0.026 C 
ATOM     42  H3  GY6 d   1      -9.311  85.241  19.792  0.00  0.00     0.042 H 
ATOM     43  H4  GY6 d   1      -9.840  85.221  18.075  0.00  0.00     0.042 H 
BRANCH  41  44
ATOM     44  C52 GY6 d   1      -7.837  84.561  18.406  0.00  0.00    -0.057 A 
ATOM     45  C50 GY6 d   1      -6.999  83.582  18.919  0.00  0.00    -0.077 A 
ATOM     46  C48 GY6 d   1      -5.682  83.486  18.498  0.00  0.00    -0.082 A 
ATOM     47  H17 GY6 d   1      -7.378  82.885  19.657  0.00  0.00     0.084 H 
ATOM     48  C46 GY6 d   1      -5.192  84.361  17.556  0.00  0.00    -0.083 A 
ATOM     49  H16 GY6 d   1      -5.037  82.720  18.912  0.00  0.00     0.083 H 
ATOM     50  C55 GY6 d   1      -6.012  85.332  17.035  0.00  0.00    -0.082 A 
ATOM     51  H15 GY6 d   1      -4.162  84.284  17.226  0.00  0.00     0.083 H 
ATOM     52  C53 GY6 d   1      -7.329  85.431  17.455  0.00  0.00    -0.077 A 
ATOM     53  H19 GY6 d   1      -5.628  86.023  16.293  0.00  0.00     0.083 H 
ATOM     54  H18 GY6 d   1      -7.969  86.198  17.035  0.00  0.00     0.084 H 
ENDBRANCH  41  44
ENDBRANCH  38  41
ENDBRANCH  35  38
ENDBRANCH   2  34
BRANCH   3  55
ATOM     55  O05 GY6 d   1     -11.071  78.447  17.715  0.00  0.00    -0.354 OA
ATOM     56  H22 GY6 d   1     -11.342  79.112  18.337  0.00  0.00     0.218 HD
ENDBRANCH   3  55
TORSDOF 7
