REMARK  8 active torsions:
REMARK  status: ('A' for Active; 'I' for Inactive)
REMARK    1  A    between atoms: NBL_8  and  CAB_9 
REMARK    2  A    between atoms: CBK_13  and  NBN_12 
REMARK       I    between atoms: CBA_19  and  NBM_18 
REMARK    3  A    between atoms: CBB_21  and  CBA_19 
REMARK    4  A    between atoms: CBE_23  and  OAZ_24 
REMARK    5  A    between atoms: OAZ_24  and  CAA_25 
REMARK    6  A    between atoms: NAY_29  and  C2_30 
REMARK    7  A    between atoms: NBP_31  and  CAD_32 
REMARK    8  A    between atoms: NBO_41  and  CAC_42 
ROOT
ATOM      1  CBB MOL d   1     -17.800   5.928  -4.276  0.00  0.00     0.035 A 
ATOM      2  CAN MOL d   1     -17.517   5.212  -5.433  0.00  0.00    -0.033 A 
ATOM      3  CBE MOL d   1     -17.017   5.872  -6.548  0.00  0.00     0.096 A 
ATOM      4  CAI MOL d   1     -17.599   7.310  -4.232  0.00  0.00    -0.065 A 
ATOM      5  CAJ MOL d   1     -17.099   8.013  -5.333  0.00  0.00    -0.053 A 
ATOM      6  CBC MOL d   1     -16.804   7.334  -6.508  0.00  0.00     0.082 A 
ATOM      7  NAY MOL d   1     -16.269   7.897  -7.617  0.00  0.00    -0.185 N 
ATOM      8  H24 MOL d   1     -17.686   4.142  -5.465  0.00  0.00     0.089 H 
ATOM      9  H28 MOL d   1     -17.836   7.850  -3.323  0.00  0.00     0.085 H 
ATOM     10  H29 MOL d   1     -16.942   9.084  -5.269  0.00  0.00     0.087 H 
ATOM     11  H30 MOL d   1     -16.287   7.341  -8.484  0.00  0.00     0.184 HD
ENDROOT
BRANCH   1  12
ATOM     12  CBA MOL d   1     -18.351   5.206  -3.074  0.00  0.00     0.253 C 
ATOM     13  NBM MOL d   1     -17.604   4.345  -2.382  0.00  0.00    -0.348 N 
ATOM     14  CAR MOL d   1     -16.188   4.127  -2.624  0.00  0.00    -0.000 C 
ATOM     15  CAQ MOL d   1     -18.155   3.548  -1.297  0.00  0.00    -0.000 C 
ATOM     16  CAP MOL d   1     -15.477   4.662  -1.385  0.00  0.00    -0.023 C 
ATOM     17  H18 MOL d   1     -15.981   3.054  -2.753  0.00  0.00     0.064 H 
ATOM     18  H19 MOL d   1     -15.862   4.674  -3.521  0.00  0.00     0.064 H 
ATOM     19  CBK MOL d   1     -15.976   3.997  -0.105  0.00  0.00     0.107 C 
ATOM     20  H16 MOL d   1     -14.398   4.473  -1.486  0.00  0.00     0.038 H 
ATOM     21  H17 MOL d   1     -15.654   5.745  -1.314  0.00  0.00     0.038 H 
ATOM     22  CAO MOL d   1     -17.498   4.068  -0.023  0.00  0.00    -0.023 C 
ATOM     23  H15 MOL d   1     -15.668   2.941  -0.104  0.00  0.00     0.084 H 
ATOM     24  H20 MOL d   1     -17.799   5.115   0.132  0.00  0.00     0.038 H 
ATOM     25  H21 MOL d   1     -17.838   3.459   0.828  0.00  0.00     0.038 H 
ATOM     26  H22 MOL d   1     -19.246   3.675  -1.244  0.00  0.00     0.064 H 
ATOM     27  H23 MOL d   1     -17.917   2.484  -1.444  0.00  0.00     0.064 H 
ATOM     28  OAE MOL d   1     -19.505   5.425  -2.750  0.00  0.00    -0.267 OA
BRANCH  19  29
ATOM     29  NBN MOL d   1     -15.377   4.678   1.053  0.00  0.00    -0.064 N 
ATOM     30  CAU MOL d   1     -13.915   4.544   0.992  0.00  0.00     0.106 C 
ATOM     31  CAS MOL d   1     -13.278   5.256   2.180  0.00  0.00     0.105 C 
ATOM     32  H2  MOL d   1     -13.645   3.478   1.018  0.00  0.00     0.078 H 
ATOM     33  H3  MOL d   1     -13.546   4.992   0.058  0.00  0.00     0.078 H 
ATOM     34  NBL MOL d   1     -13.770   4.671   3.434  0.00  0.00    -0.072 N 
ATOM     35  H4  MOL d   1     -13.539   6.324   2.148  0.00  0.00     0.078 H 
ATOM     36  H5  MOL d   1     -12.185   5.144   2.129  0.00  0.00     0.078 H 
ATOM     37  CAT MOL d   1     -15.232   4.803   3.494  0.00  0.00     0.105 C 
ATOM     38  H6  MOL d   1     -13.520   3.695   3.470  0.00  0.00     0.279 HD
ATOM     39  CAV MOL d   1     -15.867   4.089   2.306  0.00  0.00     0.106 C 
ATOM     40  H10 MOL d   1     -15.503   5.869   3.466  0.00  0.00     0.078 H 
ATOM     41  H11 MOL d   1     -15.601   4.355   4.428  0.00  0.00     0.078 H 
ATOM     42  H12 MOL d   1     -16.960   4.196   2.357  0.00  0.00     0.078 H 
ATOM     43  H13 MOL d   1     -15.601   3.022   2.337  0.00  0.00     0.078 H 
ATOM     44  H14 MOL d   1     -15.625   5.655   1.027  0.00  0.00     0.280 HD
BRANCH  34  45
ATOM     45  CAB MOL d   1     -13.163   5.371   4.573  0.00  0.00     0.066 C 
ATOM     46  H7  MOL d   1     -13.532   4.932   5.512  0.00  0.00     0.068 H 
ATOM     47  H8  MOL d   1     -13.434   6.436   4.535  0.00  0.00     0.068 H 
ATOM     48  H9  MOL d   1     -12.069   5.269   4.526  0.00  0.00     0.068 H 
ENDBRANCH  34  45
ENDBRANCH  19  29
ENDBRANCH   1  12
BRANCH   3  49
ATOM     49  OAZ MOL d   1     -16.721   5.197  -7.699  0.00  0.00    -0.354 OA
BRANCH  49  50
ATOM     50  CAA MOL d   1     -16.028   3.952  -7.634  0.00  0.00     0.010 C 
ATOM     51  H25 MOL d   1     -15.880   3.561  -8.652  0.00  0.00     0.066 H 
ATOM     52  H26 MOL d   1     -16.619   3.233  -7.048  0.00  0.00     0.066 H 
ATOM     53  H27 MOL d   1     -15.050   4.101  -7.153  0.00  0.00     0.066 H 
ENDBRANCH  49  50
ENDBRANCH   3  49
BRANCH   7  54
ATOM     54  C2  MOL d   1     -15.714   9.125  -7.681  0.00  0.00     0.729 A 
ATOM     55  N1  MOL d   1     -15.128   9.444  -8.857  0.00  0.00    -0.073 NA
ATOM     56  C6  MOL d   1     -14.538  10.622  -9.069  0.00  0.00     0.051 A 
ATOM     57  C5  MOL d   1     -14.514  11.576  -8.065  0.00  0.00     0.102 A 
ATOM     58  H1  MOL d   1     -14.077  10.832 -10.027  0.00  0.00     0.119 H 
ATOM     59  C4  MOL d   1     -15.136  11.204  -6.769  0.00  0.00     0.177 A 
ATOM     60  NBO MOL d   1     -13.847  12.784  -8.331  0.00  0.00    -0.314 N 
ATOM     61  N3  MOL d   1     -15.714   9.988  -6.643  0.00  0.00    -0.042 NA
ATOM     62  NBP MOL d   1     -15.165  12.076  -5.684  0.00  0.00    -0.333 N 
ATOM     63  CBH MOL d   1     -15.724  13.343  -5.830  0.00  0.00     0.051 A 
ATOM     64  CAL MOL d   1     -16.743  13.727  -4.971  0.00  0.00    -0.056 A 
ATOM     65  CBG MOL d   1     -15.287  14.281  -6.892  0.00  0.00     0.059 A 
ATOM     66  CAH MOL d   1     -17.330  14.980  -5.093  0.00  0.00    -0.081 A 
ATOM     67  H34 MOL d   1     -17.083  13.045  -4.200  0.00  0.00     0.087 H 
ATOM     68  CAG MOL d   1     -16.914  15.867  -6.079  0.00  0.00    -0.082 A 
ATOM     69  H35 MOL d   1     -18.122  15.269  -4.411  0.00  0.00     0.083 H 
ATOM     70  CAK MOL d   1     -15.900  15.524  -6.965  0.00  0.00    -0.065 A 
ATOM     71  H36 MOL d   1     -17.387  16.839  -6.158  0.00  0.00     0.083 H 
ATOM     72  H37 MOL d   1     -15.585  16.234  -7.721  0.00  0.00     0.085 H 
ATOM     73  CBF MOL d   1     -14.188  13.989  -7.872  0.00  0.00     0.260 C 
ATOM     74  OAF MOL d   1     -13.549  14.954  -8.259  0.00  0.00    -0.267 OA
BRANCH  62  75
ATOM     75  CAD MOL d   1     -14.664  11.637  -4.391  0.00  0.00    -0.012 C 
ATOM     76  H31 MOL d   1     -14.265  10.616  -4.480  0.00  0.00     0.057 H 
ATOM     77  H32 MOL d   1     -15.484  11.648  -3.657  0.00  0.00     0.057 H 
ATOM     78  H33 MOL d   1     -13.865  12.316  -4.058  0.00  0.00     0.057 H 
ENDBRANCH  62  75
BRANCH  60  79
ATOM     79  CAC MOL d   1     -12.672  12.624  -9.174  0.00  0.00    -0.011 C 
ATOM     80  H38 MOL d   1     -12.559  11.565  -9.448  0.00  0.00     0.057 H 
ATOM     81  H39 MOL d   1     -11.779  12.958  -8.626  0.00  0.00     0.057 H 
ATOM     82  H40 MOL d   1     -12.790  13.228 -10.086  0.00  0.00     0.057 H 
ENDBRANCH  60  79
ENDBRANCH   7  54
TORSDOF 8
