REMARK  13 active torsions:
REMARK  status: ('A' for Active; 'I' for Inactive)
REMARK    1  A    between atoms: P_2  and  O5'_4 
REMARK    2  A    between atoms: P_2  and  N2_23 
REMARK    3  A    between atoms: O5'_4  and  C5'_5 
REMARK    4  A    between atoms: C5'_5  and  C4'_6 
REMARK    5  A    between atoms: C3'_7  and  O3'_8 
REMARK    6  A    between atoms: C2'_9  and  O2'_10 
REMARK    7  A    between atoms: C1'_11  and  N9_13 
REMARK    8  A    between atoms: C6_21  and  N6_22 
REMARK    9  A    between atoms: N2_23  and  C3_24 
REMARK   10  A    between atoms: C3_24  and  C7_25 
REMARK   11  A    between atoms: C3_24  and  C9_26 
REMARK   12  A    between atoms: C7_25  and  O11_28 
REMARK   13  A    between atoms: O11_28  and  C12_29 
ROOT
ATOM      1  C4' 9ZA d   1     -29.589   4.893 -27.108  0.00  0.00     0.089 C 
ATOM      2  C3' 9ZA d   1     -30.023   6.364 -27.141  0.00  0.00     0.091 C 
ATOM      3  C2' 9ZA d   1     -30.138   6.668 -28.633  0.00  0.00     0.105 C 
ATOM      4  C1' 9ZA d   1     -29.241   5.596 -29.229  0.00  0.00     0.139 C 
ATOM      5  O4' 9ZA d   1     -29.508   4.440 -28.460  0.00  0.00    -0.353 OA
ATOM      6  H3  9ZA d   1     -28.606   4.820 -26.620  0.00  0.00     0.090 H 
ATOM      7  H4  9ZA d   1     -30.997   6.499 -26.648  0.00  0.00     0.091 H 
ATOM      8  H6  9ZA d   1     -31.179   6.544 -28.966  0.00  0.00     0.093 H 
ATOM      9  H8  9ZA d   1     -28.187   5.901 -29.150  0.00  0.00     0.122 H 
ENDROOT
BRANCH   1  10
ATOM     10  C5' 9ZA d   1     -30.569   3.983 -26.388  0.00  0.00     0.058 C 
ATOM     11  H1  9ZA d   1     -31.599   4.227 -26.688  0.00  0.00     0.079 H 
ATOM     12  H2  9ZA d   1     -30.355   2.932 -26.633  0.00  0.00     0.079 H 
BRANCH  10  13
ATOM     13  O5' 9ZA d   1     -30.405   4.200 -24.991  0.00  0.00    -0.293 OA
BRANCH  13  14
ATOM     14  P   9ZA d   1     -31.593   3.841 -23.978  0.00  0.00     0.360 P 
ATOM     15  O3P 9ZA d   1     -30.926   3.732 -22.638  0.00  0.00    -0.630 OA
ATOM     16  O2P 9ZA d   1     -32.375   2.669 -24.516  0.00  0.00    -0.630 OA
BRANCH  14  17
ATOM     17  N2  9ZA d   1     -32.694   5.164 -24.000  0.00  0.00    -0.312 N 
ATOM     18  H13 9ZA d   1     -33.520   5.113 -24.561  0.00  0.00     0.166 HD
BRANCH  17  19
ATOM     19  C3  9ZA d   1     -32.432   6.350 -23.212  0.00  0.00     0.096 C 
ATOM     20  H14 9ZA d   1     -32.557   6.100 -22.148  0.00  0.00     0.087 H 
BRANCH  19  21
ATOM     21  C7  9ZA d   1     -33.423   7.380 -23.608  0.00  0.00     0.281 C 
ATOM     22  O10 9ZA d   1     -34.063   7.334 -24.640  0.00  0.00    -0.263 OA
BRANCH  21  23
ATOM     23  O11 9ZA d   1     -33.619   8.467 -22.707  0.00  0.00    -0.325 OA
BRANCH  23  24
ATOM     24  C12 9ZA d   1     -34.479   9.534 -23.112  0.00  0.00     0.013 C 
ATOM     25  H18 9ZA d   1     -34.526  10.290 -22.314  0.00  0.00     0.067 H 
ATOM     26  H19 9ZA d   1     -35.488   9.139 -23.304  0.00  0.00     0.067 H 
ATOM     27  H20 9ZA d   1     -34.085   9.994 -24.030  0.00  0.00     0.067 H 
ENDBRANCH  23  24
ENDBRANCH  21  23
ENDBRANCH  19  21
BRANCH  19  28
ATOM     28  C9  9ZA d   1     -31.038   6.935 -23.414  0.00  0.00    -0.049 C 
ATOM     29  H15 9ZA d   1     -30.920   7.828 -22.783  0.00  0.00     0.030 H 
ATOM     30  H16 9ZA d   1     -30.906   7.212 -24.470  0.00  0.00     0.030 H 
ATOM     31  H17 9ZA d   1     -30.282   6.186 -23.134  0.00  0.00     0.030 H 
ENDBRANCH  19  28
ENDBRANCH  17  19
ENDBRANCH  14  17
ENDBRANCH  13  14
ENDBRANCH  10  13
ENDBRANCH   1  10
BRANCH   2  32
ATOM     32  O3' 9ZA d   1     -29.042   7.178 -26.475  0.00  0.00    -0.390 OA
ATOM     33  H5  9ZA d   1     -28.205   7.087 -26.916  0.00  0.00     0.210 HD
ENDBRANCH   2  32
BRANCH   3  34
ATOM     34  O2' 9ZA d   1     -29.690   7.968 -29.024  0.00  0.00    -0.388 OA
ATOM     35  H7  9ZA d   1     -28.773   8.067 -28.796  0.00  0.00     0.210 HD
ENDBRANCH   3  34
BRANCH   4  36
ATOM     36  N9  9ZA d   1     -29.552   5.253 -30.623  0.00  0.00    -0.294 N 
ATOM     37  C4  9ZA d   1     -28.621   5.065 -31.546  0.00  0.00     0.167 A 
ATOM     38  C5  9ZA d   1     -29.352   4.720 -32.752  0.00  0.00     0.149 A 
ATOM     39  N3  9ZA d   1     -27.273   5.145 -31.538  0.00  0.00    -0.222 NA
ATOM     40  N7  9ZA d   1     -30.660   4.728 -32.452  0.00  0.00    -0.236 NA
ATOM     41  C6  9ZA d   1     -28.544   4.475 -33.945  0.00  0.00     0.155 A 
ATOM     42  C8  9ZA d   1     -30.775   5.037 -31.138  0.00  0.00     0.071 A 
ATOM     43  H9  9ZA d   1     -31.711   5.101 -30.585  0.00  0.00     0.144 H 
ATOM     44  N1  9ZA d   1     -27.204   4.576 -33.831  0.00  0.00    -0.222 NA
ATOM     45  C2  9ZA d   1     -26.599   4.898 -32.671  0.00  0.00     0.091 A 
ATOM     46  H10 9ZA d   1     -25.517   4.960 -32.653  0.00  0.00     0.146 H 
BRANCH  41  47
ATOM     47  N6  9ZA d   1     -29.146   4.162 -35.121  0.00  0.00    -0.382 N 
ATOM     48  H11 9ZA d   1     -28.576   3.989 -35.961  0.00  0.00     0.157 HD
ATOM     49  H12 9ZA d   1     -30.173   4.097 -35.173  0.00  0.00     0.157 HD
ENDBRANCH  41  47
ENDBRANCH   4  36
TORSDOF 13
