REMARK  13 active torsions:
REMARK  status: ('A' for Active; 'I' for Inactive)
REMARK    1  A    between atoms: P_2  and  O5'_4 
REMARK    2  A    between atoms: P_2  and  N2_23 
REMARK    3  A    between atoms: O5'_4  and  C5'_5 
REMARK    4  A    between atoms: C5'_5  and  C4'_6 
REMARK    5  A    between atoms: C3'_7  and  O3'_8 
REMARK    6  A    between atoms: C2'_9  and  O2'_10 
REMARK    7  A    between atoms: C1'_11  and  N9_13 
REMARK    8  A    between atoms: C6_21  and  N6_22 
REMARK    9  A    between atoms: N2_23  and  C3_24 
REMARK   10  A    between atoms: C3_24  and  C7_25 
REMARK   11  A    between atoms: C3_24  and  C9_26 
REMARK   12  A    between atoms: C7_25  and  O11_28 
REMARK   13  A    between atoms: O11_28  and  C12_29 
ROOT
ATOM      1  C4' 9ZD d   1     -29.309   4.971 -27.054  0.00  0.00     0.089 C 
ATOM      2  C3' 9ZD d   1     -29.701   6.458 -27.087  0.00  0.00     0.091 C 
ATOM      3  C2' 9ZD d   1     -29.780   6.766 -28.582  0.00  0.00     0.105 C 
ATOM      4  C1' 9ZD d   1     -28.923   5.664 -29.184  0.00  0.00     0.139 C 
ATOM      5  O4' 9ZD d   1     -29.247   4.522 -28.405  0.00  0.00    -0.353 OA
ATOM      6  H3  9ZD d   1     -28.321   4.876 -26.581  0.00  0.00     0.090 H 
ATOM      7  H4  9ZD d   1     -30.683   6.608 -26.614  0.00  0.00     0.091 H 
ATOM      8  H6  9ZD d   1     -30.821   6.664 -28.923  0.00  0.00     0.093 H 
ATOM      9  H8  9ZD d   1     -27.858   5.924 -29.094  0.00  0.00     0.122 H 
ENDROOT
BRANCH   1  10
ATOM     10  C5' 9ZD d   1     -30.289   4.085 -26.308  0.00  0.00     0.058 C 
ATOM     11  H1  9ZD d   1     -31.322   4.323 -26.603  0.00  0.00     0.079 H 
ATOM     12  H2  9ZD d   1     -30.083   3.025 -26.517  0.00  0.00     0.079 H 
BRANCH  10  13
ATOM     13  O5' 9ZD d   1     -30.093   4.363 -24.933  0.00  0.00    -0.293 OA
BRANCH  13  14
ATOM     14  P   9ZD d   1     -31.200   4.015 -23.840  0.00  0.00     0.360 P 
ATOM     15  O3P 9ZD d   1     -30.455   3.901 -22.546  0.00  0.00    -0.630 OA
ATOM     16  O2P 9ZD d   1     -32.046   2.849 -24.267  0.00  0.00    -0.630 OA
BRANCH  14  17
ATOM     17  N2  9ZD d   1     -32.240   5.393 -23.843  0.00  0.00    -0.312 N 
ATOM     18  H13 9ZD d   1     -33.232   5.303 -23.928  0.00  0.00     0.166 HD
BRANCH  17  19
ATOM     19  C3  9ZD d   1     -31.597   6.691 -23.716  0.00  0.00     0.096 C 
ATOM     20  H14 9ZD d   1     -30.540   6.587 -24.001  0.00  0.00     0.087 H 
BRANCH  19  21
ATOM     21  C7  9ZD d   1     -32.241   7.687 -24.607  0.00  0.00     0.281 C 
ATOM     22  O10 9ZD d   1     -31.631   8.678 -24.971  0.00  0.00    -0.263 OA
BRANCH  21  23
ATOM     23  O11 9ZD d   1     -33.615   7.497 -24.986  0.00  0.00    -0.325 OA
BRANCH  23  24
ATOM     24  C12 9ZD d   1     -34.622   8.337 -24.424  0.00  0.00     0.013 C 
ATOM     25  H18 9ZD d   1     -35.605   8.050 -24.825  0.00  0.00     0.067 H 
ATOM     26  H19 9ZD d   1     -34.412   9.385 -24.684  0.00  0.00     0.067 H 
ATOM     27  H20 9ZD d   1     -34.625   8.224 -23.330  0.00  0.00     0.067 H 
ENDBRANCH  23  24
ENDBRANCH  21  23
ENDBRANCH  19  21
BRANCH  19  28
ATOM     28  C9  9ZD d   1     -31.675   7.199 -22.281  0.00  0.00    -0.049 C 
ATOM     29  H15 9ZD d   1     -31.183   8.180 -22.212  0.00  0.00     0.030 H 
ATOM     30  H16 9ZD d   1     -31.169   6.487 -21.612  0.00  0.00     0.030 H 
ATOM     31  H17 9ZD d   1     -32.729   7.296 -21.983  0.00  0.00     0.030 H 
ENDBRANCH  19  28
ENDBRANCH  17  19
ENDBRANCH  14  17
ENDBRANCH  13  14
ENDBRANCH  10  13
ENDBRANCH   1  10
BRANCH   2  32
ATOM     32  O3' 9ZD d   1     -28.732   7.276 -26.405  0.00  0.00    -0.390 OA
ATOM     33  H5  9ZD d   1     -27.886   7.179 -26.825  0.00  0.00     0.210 HD
ENDBRANCH   2  32
BRANCH   3  34
ATOM     34  O2' 9ZD d   1     -29.325   8.076 -28.962  0.00  0.00    -0.388 OA
ATOM     35  H7  9ZD d   1     -28.414   8.179 -28.712  0.00  0.00     0.210 HD
ENDBRANCH   3  34
BRANCH   4  36
ATOM     36  N9  9ZD d   1     -29.229   5.348 -30.587  0.00  0.00    -0.294 N 
ATOM     37  C4  9ZD d   1     -28.295   5.158 -31.503  0.00  0.00     0.167 A 
ATOM     38  C5  9ZD d   1     -29.019   4.847 -32.730  0.00  0.00     0.149 A 
ATOM     39  N3  9ZD d   1     -26.948   5.218 -31.490  0.00  0.00    -0.222 NA
ATOM     40  N7  9ZD d   1     -30.324   4.891 -32.443  0.00  0.00    -0.236 NA
ATOM     41  C6  9ZD d   1     -28.220   4.603 -33.933  0.00  0.00     0.155 A 
ATOM     42  C8  9ZD d   1     -30.445   5.173 -31.128  0.00  0.00     0.071 A 
ATOM     43  H9  9ZD d   1     -31.387   5.247 -30.587  0.00  0.00     0.144 H 
ATOM     44  N1  9ZD d   1     -26.884   4.669 -33.803  0.00  0.00    -0.222 NA
ATOM     45  C2  9ZD d   1     -26.287   4.965 -32.632  0.00  0.00     0.091 A 
ATOM     46  H10 9ZD d   1     -25.204   5.001 -32.610  0.00  0.00     0.146 H 
BRANCH  41  47
ATOM     47  N6  9ZD d   1     -28.816   4.322 -35.118  0.00  0.00    -0.382 N 
ATOM     48  H11 9ZD d   1     -28.242   4.153 -35.956  0.00  0.00     0.157 HD
ATOM     49  H12 9ZD d   1     -29.843   4.278 -35.180  0.00  0.00     0.157 HD
ENDBRANCH  41  47
ENDBRANCH   4  36
TORSDOF 13
