REMARK  3 active torsions:
REMARK  status: ('A' for Active; 'I' for Inactive)
REMARK    1  A    between atoms: C8_5  and  C4_1 
REMARK    2  A    between atoms: C15_14  and  N18_17 
REMARK       I    between atoms: N18_17  and  C19_18 
REMARK    3  A    between atoms: C19_18  and  C21_20 
ROOT
ATOM      1  C11 9ZS d   1      -8.857   9.198  15.071  0.00  0.00     0.068 A 
ATOM      2  C8  9ZS d   1      -7.467   7.732  15.971  0.00  0.00     0.142 A 
ATOM      3  C12 9ZS d   1      -9.734   9.979  14.316  0.00  0.00    -0.038 A 
ATOM      4  C13 9ZS d   1     -10.355  11.060  14.908  0.00  0.00     0.007 A 
ATOM      5  N9  9ZS d   1      -8.133   8.058  14.818  0.00  0.00    -0.338 N 
ATOM      6  N14 9ZS d   1     -10.087  11.404  16.165  0.00  0.00    -0.241 NA
ATOM      7  C15 9ZS d   1      -9.224  10.731  16.926  0.00  0.00     0.161 A 
ATOM      8  C16 9ZS d   1      -8.590   9.565  16.416  0.00  0.00     0.131 A 
ATOM      9  N17 9ZS d   1      -7.724   8.637  16.895  0.00  0.00    -0.224 NA
ATOM     10  H2  9ZS d   1      -9.925   9.739  13.276  0.00  0.00     0.089 H 
ATOM     11  H3  9ZS d   1     -11.073  11.639  14.339  0.00  0.00     0.114 H 
ATOM     12  H6  9ZS d   1      -8.097   7.543  13.927  0.00  0.00     0.167 HD
ENDROOT
BRANCH   7  13
ATOM     13  N18 9ZS d   1      -9.055  11.240  18.214  0.00  0.00    -0.309 N 
ATOM     14  C19 9ZS d   1      -7.913  11.395  18.927  0.00  0.00     0.227 C 
ATOM     15  O20 9ZS d   1      -6.825  10.991  18.543  0.00  0.00    -0.273 OA
ATOM     16  H7  9ZS d   1      -9.893  11.531  18.675  0.00  0.00     0.170 HD
BRANCH  14  17
ATOM     17  C21 9ZS d   1      -8.079  12.068  20.271  0.00  0.00     0.024 A 
ATOM     18  C22 9ZS d   1      -7.057  11.837  21.387  0.00  0.00    -0.053 A 
ATOM     19  C23 9ZS d   1      -7.111  13.180  20.658  0.00  0.00    -0.053 A 
ATOM     20  H9  9ZS d   1      -6.209  11.156  21.224  0.00  0.00     0.034 H 
ATOM     21  H10 9ZS d   1      -7.391  11.764  22.433  0.00  0.00     0.034 H 
ATOM     22  H11 9ZS d   1      -7.482  14.074  21.180  0.00  0.00     0.034 H 
ATOM     23  H12 9ZS d   1      -6.300  13.466  19.972  0.00  0.00     0.034 H 
ATOM     24  H8  9ZS d   1      -9.148  12.150  20.515  0.00  0.00     0.054 H 
ENDBRANCH  14  17
ENDBRANCH   7  13
BRANCH   2  25
ATOM     25  C4  9ZS d   1      -6.608   6.528  16.107  0.00  0.00     0.053 A 
ATOM     26  C5  9ZS d   1      -7.199   5.254  16.177  0.00  0.00     0.049 A 
ATOM     27  C6  9ZS d   1      -6.414   4.100  16.261  0.00  0.00    -0.061 A 
ATOM     28 CL7  9ZS d   1      -8.919   5.118  16.171  0.00  0.00    -0.083 Cl
ATOM     29  C1  9ZS d   1      -5.026   4.202  16.249  0.00  0.00    -0.080 A 
ATOM     30  H1  9ZS d   1      -6.886   3.127  16.335  0.00  0.00     0.086 H 
ATOM     31  C2  9ZS d   1      -4.427   5.462  16.181  0.00  0.00    -0.061 A 
ATOM     32  H4  9ZS d   1      -4.413   3.309  16.292  0.00  0.00     0.083 H 
ATOM     33  C3  9ZS d   1      -5.206   6.612  16.096  0.00  0.00     0.049 A 
ATOM     34  H5  9ZS d   1      -3.346   5.545  16.195  0.00  0.00     0.086 H 
ATOM     35 CL24 9ZS d   1      -4.457   8.159  15.988  0.00  0.00    -0.083 Cl
ENDBRANCH   2  25
TORSDOF 3
