REMARK  4 active torsions:
REMARK  status: ('A' for Active; 'I' for Inactive)
REMARK    1  A    between atoms: N4_14  and  C6_5 
REMARK    2  A    between atoms: C11_16  and  C13_7 
REMARK    3  A    between atoms: C13_7  and  O1_18 
REMARK    4  A    between atoms: C2_10  and  C1_9 
ROOT
ATOM      1  C9  A4G d   1     -20.957 -24.359 -16.624  0.00  0.00    -0.050 C 
ATOM      2  C8  A4G d   1     -19.972 -23.934 -15.551  0.00  0.00    -0.004 C 
ATOM      3  N4  A4G d   1     -18.628 -24.469 -15.790  0.00  0.00    -0.365 N 
ATOM      4  C10 A4G d   1     -20.466 -23.920 -17.998  0.00  0.00    -0.057 C 
ATOM      5  C11 A4G d   1     -19.052 -24.405 -18.296  0.00  0.00    -0.018 C 
ATOM      6  C12 A4G d   1     -18.073 -24.257 -17.129  0.00  0.00     0.002 C 
ATOM      7  H2  A4G d   1     -21.934 -23.896 -16.423  0.00  0.00     0.035 H 
ATOM      8  H3  A4G d   1     -21.060 -25.454 -16.609  0.00  0.00     0.035 H 
ATOM      9  H6  A4G d   1     -20.330 -24.298 -14.577  0.00  0.00     0.064 H 
ATOM     10  H7  A4G d   1     -19.918 -22.835 -15.534  0.00  0.00     0.064 H 
ATOM     11  H13 A4G d   1     -20.478 -22.821 -18.042  0.00  0.00     0.033 H 
ATOM     12  H14 A4G d   1     -21.146 -24.326 -18.762  0.00  0.00     0.033 H 
ATOM     13  H15 A4G d   1     -19.091 -25.463 -18.593  0.00  0.00     0.045 H 
ATOM     14  H16 A4G d   1     -17.263 -24.986 -17.276  0.00  0.00     0.065 H 
ATOM     15  H17 A4G d   1     -17.660 -23.238 -17.164  0.00  0.00     0.065 H 
ENDROOT
BRANCH   3  16
ATOM     16  C6  A4G d   1     -18.167 -25.539 -14.996  0.00  0.00     0.141 A 
ATOM     17  N2  A4G d   1     -19.101 -26.438 -14.614  0.00  0.00    -0.224 NA
ATOM     18  C7  A4G d   1     -18.664 -27.341 -13.729  0.00  0.00     0.091 A 
ATOM     19  N3  A4G d   1     -17.447 -27.470 -13.192  0.00  0.00    -0.223 NA
ATOM     20  H1  A4G d   1     -19.398 -28.068 -13.402  0.00  0.00     0.146 H 
ATOM     21  C4  A4G d   1     -16.529 -26.572 -13.588  0.00  0.00     0.143 A 
ATOM     22  N1  A4G d   1     -15.240 -26.481 -13.156  0.00  0.00    -0.349 N 
ATOM     23  C5  A4G d   1     -16.782 -25.515 -14.547  0.00  0.00     0.063 A 
ATOM     24  C3  A4G d   1     -14.638 -25.431 -13.798  0.00  0.00    -0.015 A 
ATOM     25  H12 A4G d   1     -14.793 -27.098 -12.463  0.00  0.00     0.166 HD
ATOM     26  C2  A4G d   1     -15.520 -24.808 -14.670  0.00  0.00    -0.029 A 
ATOM     27  H11 A4G d   1     -13.604 -25.126 -13.644  0.00  0.00     0.112 H 
BRANCH  26  28
ATOM     28  C1  A4G d   1     -15.142 -23.663 -15.563  0.00  0.00    -0.049 C 
ATOM     29  H8  A4G d   1     -14.093 -23.386 -15.380  0.00  0.00     0.033 H 
ATOM     30  H9  A4G d   1     -15.791 -22.801 -15.349  0.00  0.00     0.033 H 
ATOM     31  H10 A4G d   1     -15.264 -23.962 -16.614  0.00  0.00     0.033 H 
ENDBRANCH  26  28
ENDBRANCH   3  16
BRANCH   5  32
ATOM     32  C13 A4G d   1     -18.540 -23.555 -19.437  0.00  0.00     0.021 C 
ATOM     33  H4  A4G d   1     -17.653 -22.998 -19.101  0.00  0.00     0.074 H 
ATOM     34  H5  A4G d   1     -19.326 -22.847 -19.739  0.00  0.00     0.074 H 
BRANCH  32  35
ATOM     35  O1  A4G d   1     -18.190 -24.355 -20.544  0.00  0.00    -0.400 OA
ATOM     36  H18 A4G d   1     -17.509 -24.966 -20.289  0.00  0.00     0.209 HD
ENDBRANCH  32  35
ENDBRANCH   5  32
TORSDOF 4
