REMARK  3 active torsions:
REMARK  status: ('A' for Active; 'I' for Inactive)
REMARK    1  A    between atoms: C5_12  and  N3_1 
REMARK    2  A    between atoms: C4_2  and  C12_16 
REMARK    3  A    between atoms: C2_9  and  C1_8 
ROOT
ATOM      1  C4  A1Y d   1      -5.694  -0.200  20.318  0.00  0.00     0.033 A 
ATOM      2  N2  A1Y d   1      -2.194  -4.177  19.484  0.00  0.00    -0.191 NA
ATOM      3  C7  A1Y d   1      -2.933  -3.301  19.529  0.00  0.00     0.103 C 
ATOM      4  C6  A1Y d   1      -3.902  -2.256  19.661  0.00  0.00     0.090 A 
ATOM      5  C2  A1Y d   1      -4.937  -2.487  20.645  0.00  0.00    -0.036 A 
ATOM      6  C3  A1Y d   1      -5.829  -1.445  20.977  0.00  0.00    -0.052 A 
ATOM      7  N1  A1Y d   1      -4.767   0.040  19.365  0.00  0.00    -0.240 NA
ATOM      8  C5  A1Y d   1      -3.838  -0.948  18.955  0.00  0.00     0.127 A 
ATOM      9  H8  A1Y d   1      -6.602  -1.595  21.722  0.00  0.00     0.087 H 
ENDROOT
BRANCH   5  10
ATOM     10  C1  A1Y d   1      -5.096  -3.853  21.274  0.00  0.00    -0.050 C 
ATOM     11  H5  A1Y d   1      -5.929  -3.831  21.992  0.00  0.00     0.033 H 
ATOM     12  H6  A1Y d   1      -4.168  -4.126  21.798  0.00  0.00     0.033 H 
ATOM     13  H7  A1Y d   1      -5.306  -4.595  20.490  0.00  0.00     0.033 H 
ENDBRANCH   5  10
BRANCH   8  14
ATOM     14  N3  A1Y d   1      -3.061  -0.675  17.917  0.00  0.00    -0.263 NA
ATOM     15  C8  A1Y d   1      -3.223  -1.596  16.768  0.00  0.00     0.005 C 
ATOM     16  C9  A1Y d   1      -2.295  -1.212  15.656  0.00  0.00     0.031 C 
ATOM     17  H3  A1Y d   1      -4.261  -1.546  16.407  0.00  0.00     0.059 H 
ATOM     18  H4  A1Y d   1      -2.996  -2.623  17.091  0.00  0.00     0.059 H 
ATOM     19  O1  A1Y d   1      -2.545   0.112  15.234  0.00  0.00    -0.389 OA
ATOM     20  H1  A1Y d   1      -2.445  -1.896  14.808  0.00  0.00     0.076 H 
ATOM     21  H2  A1Y d   1      -1.256  -1.288  16.009  0.00  0.00     0.076 H 
ATOM     22  C10 A1Y d   1      -2.246   1.008  16.301  0.00  0.00     0.031 C 
ATOM     23  C11 A1Y d   1      -3.104   0.762  17.520  0.00  0.00     0.005 C 
ATOM     24  H9  A1Y d   1      -2.413   2.038  15.954  0.00  0.00     0.076 H 
ATOM     25  H10 A1Y d   1      -1.190   0.882  16.582  0.00  0.00     0.076 H 
ATOM     26  H11 A1Y d   1      -2.732   1.377  18.353  0.00  0.00     0.059 H 
ATOM     27  H12 A1Y d   1      -4.143   1.042  17.292  0.00  0.00     0.059 H 
ENDBRANCH   8  14
BRANCH   1  28
ATOM     28  C12 A1Y d   1      -6.609   0.937  20.634  0.00  0.00    -0.035 C 
ATOM     29  H13 A1Y d   1      -6.339   1.807  20.018  0.00  0.00     0.035 H 
ATOM     30  H14 A1Y d   1      -6.515   1.198  21.698  0.00  0.00     0.035 H 
ATOM     31  H15 A1Y d   1      -7.647   0.643  20.418  0.00  0.00     0.035 H 
ENDBRANCH   1  28
TORSDOF 3
