REMARK  3 active torsions:
REMARK  status: ('A' for Active; 'I' for Inactive)
REMARK    1  A    between atoms: S_1  and  N1_3 
REMARK    2  A    between atoms: C4_8  and  S_1 
REMARK    3  A    between atoms: C1_2  and  N7_11 
ROOT
ATOM      1  C1  4NZ d   1      43.885  24.824  54.077  0.00  0.00     0.102 A 
ATOM      2  C2  4NZ d   1      43.872  26.199  54.213  0.00  0.00    -0.050 A 
ATOM      3  C3  4NZ d   1      42.785  26.797  54.830  0.00  0.00    -0.058 A 
ATOM      4  C4  4NZ d   1      41.739  26.009  55.273  0.00  0.00     0.079 A 
ATOM      5  C5  4NZ d   1      41.776  24.630  55.147  0.00  0.00    -0.058 A 
ATOM      6  C6  4NZ d   1      42.867  24.029  54.557  0.00  0.00    -0.050 A 
ATOM      7  H3  4NZ d   1      44.696  26.798  53.844  0.00  0.00     0.087 H 
ATOM      8  H4  4NZ d   1      42.755  27.872  54.964  0.00  0.00     0.086 H 
ATOM      9  H5  4NZ d   1      40.952  24.027  55.510  0.00  0.00     0.086 H 
ATOM     10  H6  4NZ d   1      42.923  22.950  54.472  0.00  0.00     0.087 H 
ENDROOT
BRANCH   4  11
ATOM     11  S   4NZ d   1      40.345  26.724  56.071  0.00  0.00     0.256 S 
ATOM     12  O1  4NZ d   1      39.188  26.244  55.392  0.00  0.00    -0.201 OA
ATOM     13  O2  4NZ d   1      40.461  26.397  57.454  0.00  0.00    -0.201 OA
BRANCH  11  14
ATOM     14  N1  4NZ d   1      40.344  28.258  55.966  0.00  0.00    -0.324 N 
ATOM     15  H1  4NZ d   1      40.270  28.698  55.071  0.00  0.00     0.169 HD
ATOM     16  H2  4NZ d   1      40.417  28.816  56.793  0.00  0.00     0.169 HD
ENDBRANCH  11  14
ENDBRANCH   4  11
BRANCH   1  17
ATOM     17  N7  4NZ d   1      44.952  24.198  53.289  0.00  0.00    -0.116 N 
ATOM     18  O12 4NZ d   1      45.761  24.918  52.734  0.00  0.00    -0.532 OA
ATOM     19  O13 4NZ d   1      44.988  22.977  53.233  0.00  0.00    -0.532 OA
ENDBRANCH   1  17
TORSDOF 3
