REMARK  7 active torsions:
REMARK  status: ('A' for Active; 'I' for Inactive)
REMARK    1  A    between atoms: C9_24  and  C10_2 
REMARK    2  A    between atoms: C16_8  and  O3_33 
REMARK    3  A    between atoms: C3_18  and  C2_12 
REMARK       I    between atoms: N1_27  and  C3_18 
REMARK    4  A    between atoms: C5_20  and  C4_19 
REMARK    5  A    between atoms: C7_22  and  C6_21 
REMARK       I    between atoms: N3_29  and  C7_22 
REMARK    6  A    between atoms: C8_23  and  C9_24 
REMARK    7  A    between atoms: C8_23  and  N3_29 
ROOT
ATOM      1  C16 GY7 d   1     -10.094  78.830  16.982  0.00  0.00     0.169 A 
ATOM      2  C17 GY7 d   1      -9.523  77.946  16.066  0.00  0.00     0.282 A 
ATOM      3  C5  GY7 d   1      -7.997  79.684  15.490  0.00  0.00     0.131 A 
ATOM      4  C6  GY7 d   1      -9.586  80.091  17.116  0.00  0.00     0.165 A 
ATOM      5  N2  GY7 d   1      -8.554  80.518  16.368  0.00  0.00    -0.225 NA
ATOM      6  N4  GY7 d   1      -8.465  78.421  15.322  0.00  0.00    -0.307 N 
ATOM      7  O4  GY7 d   1      -9.918  76.779  15.898  0.00  0.00    -0.265 OA
ATOM      8  H21 GY7 d   1      -8.034  77.824  14.646  0.00  0.00     0.170 HD
ENDROOT
BRANCH   3   9
ATOM      9  C4  GY7 d   1      -6.838  80.197  14.664  0.00  0.00     0.072 C 
ATOM     10  C18 GY7 d   1      -5.465  80.095  15.344  0.00  0.00    -0.038 C 
ATOM     11  C19 GY7 d   1      -5.420  81.390  16.138  0.00  0.00    -0.048 C 
ATOM     12  H6  GY7 d   1      -5.409  79.217  16.004  0.00  0.00     0.036 H 
ATOM     13  H7  GY7 d   1      -4.653  80.050  14.604  0.00  0.00     0.036 H 
ATOM     14  C20 GY7 d   1      -5.893  82.396  15.113  0.00  0.00    -0.001 C 
ATOM     15  H8  GY7 d   1      -4.399  81.616  16.479  0.00  0.00     0.035 H 
ATOM     16  H9  GY7 d   1      -6.096  81.353  17.005  0.00  0.00     0.035 H 
ATOM     17  N1  GY7 d   1      -6.919  81.646  14.366  0.00  0.00    -0.336 N 
ATOM     18  H10 GY7 d   1      -5.069  82.705  14.453  0.00  0.00     0.064 H 
ATOM     19  H11 GY7 d   1      -6.326  83.283  15.599  0.00  0.00     0.064 H 
ATOM     20  C3  GY7 d   1      -7.802  82.244  13.549  0.00  0.00     0.260 C 
ATOM     21  O1  GY7 d   1      -7.581  83.352  13.071  0.00  0.00    -0.267 OA
ATOM     22  H15 GY7 d   1      -6.827  79.623  13.725  0.00  0.00     0.085 H 
BRANCH  20  23
ATOM     23  C2  GY7 d   1      -9.117  81.561  13.311  0.00  0.00     0.109 A 
ATOM     24  C1  GY7 d   1     -10.301  82.028  13.862  0.00  0.00     0.135 A 
ATOM     25  C24 GY7 d   1     -11.509  81.402  13.666  0.00  0.00    -0.044 A 
ATOM     26  F1  GY7 d   1     -10.283  83.132  14.642  0.00  0.00    -0.205 F 
ATOM     27  C23 GY7 d   1     -11.540  80.276  12.870  0.00  0.00    -0.077 A 
ATOM     28  H14 GY7 d   1     -12.414  81.783  14.125  0.00  0.00     0.088 H 
ATOM     29  C22 GY7 d   1     -10.399  79.781  12.282  0.00  0.00    -0.044 A 
ATOM     30  H13 GY7 d   1     -12.484  79.770  12.704  0.00  0.00     0.083 H 
ATOM     31  C21 GY7 d   1      -9.211  80.434  12.509  0.00  0.00     0.135 A 
ATOM     32  H12 GY7 d   1     -10.436  78.897  11.655  0.00  0.00     0.088 H 
ATOM     33  F2  GY7 d   1      -8.091  79.934  11.940  0.00  0.00    -0.205 F 
ENDBRANCH  20  23
ENDBRANCH   3   9
BRANCH   4  34
ATOM     34  C7  GY7 d   1     -10.138  81.100  18.088  0.00  0.00     0.273 C 
ATOM     35  N3  GY7 d   1      -9.587  82.313  17.981  0.00  0.00    -0.355 N 
ATOM     36  H20 GY7 d   1      -8.762  82.417  17.425  0.00  0.00     0.162 HD
ATOM     37  O2  GY7 d   1     -11.018  80.802  18.902  0.00  0.00    -0.266 OA
BRANCH  35  38
ATOM     38  C8  GY7 d   1     -10.139  83.492  18.641  0.00  0.00    -0.001 C 
ATOM     39  H16 GY7 d   1     -10.472  84.204  17.872  0.00  0.00     0.064 H 
ATOM     40  H17 GY7 d   1     -11.000  83.184  19.253  0.00  0.00     0.064 H 
BRANCH  38  41
ATOM     41  C9  GY7 d   1      -9.130  84.178  19.533  0.00  0.00    -0.026 C 
ATOM     42  H18 GY7 d   1      -9.545  85.147  19.849  0.00  0.00     0.042 H 
ATOM     43  H19 GY7 d   1      -8.959  83.546  20.417  0.00  0.00     0.042 H 
BRANCH  41  44
ATOM     44  C10 GY7 d   1      -7.801  84.423  18.854  0.00  0.00    -0.057 A 
ATOM     45  C11 GY7 d   1      -6.709  83.607  19.116  0.00  0.00    -0.077 A 
ATOM     46  C12 GY7 d   1      -5.489  83.832  18.499  0.00  0.00    -0.082 A 
ATOM     47  H1  GY7 d   1      -6.812  82.783  19.812  0.00  0.00     0.084 H 
ATOM     48  C13 GY7 d   1      -5.346  84.873  17.611  0.00  0.00    -0.083 A 
ATOM     49  H2  GY7 d   1      -4.646  83.187  18.716  0.00  0.00     0.083 H 
ATOM     50  C14 GY7 d   1      -6.417  85.691  17.340  0.00  0.00    -0.082 A 
ATOM     51  H3  GY7 d   1      -4.392  85.048  17.127  0.00  0.00     0.083 H 
ATOM     52  C15 GY7 d   1      -7.639  85.468  17.957  0.00  0.00    -0.077 A 
ATOM     53  H4  GY7 d   1      -6.306  86.513  16.642  0.00  0.00     0.083 H 
ATOM     54  H5  GY7 d   1      -8.477  86.118  17.735  0.00  0.00     0.084 H 
ENDBRANCH  41  44
ENDBRANCH  38  41
ENDBRANCH  35  38
ENDBRANCH   4  34
BRANCH   1  55
ATOM     55  O3  GY7 d   1     -11.133  78.339  17.675  0.00  0.00    -0.354 OA
ATOM     56  H22 GY7 d   1     -10.931  78.360  18.603  0.00  0.00     0.218 HD
ENDBRANCH   1  55
TORSDOF 7
