REMARK  6 active torsions:
REMARK  status: ('A' for Active; 'I' for Inactive)
REMARK    1  A    between atoms: N14_15  and  C15_9 
REMARK    2  A    between atoms: N3_16  and  C4_10 
REMARK    3  A    between atoms: C7_12  and  S8_21 
REMARK    4  A    between atoms: C2_13  and  N14_15 
REMARK    5  A    between atoms: C2_13  and  S1_20 
REMARK    6  A    between atoms: S8_21  and  N10_14 
ROOT
ATOM      1  C2  8JS d   1      -0.972   6.899  82.980  0.00  0.00     0.164 C 
ATOM      2  N3  8JS d   1      -0.370   6.100  83.878  0.00  0.00    -0.225 NA
ENDROOT
BRANCH   2   3
ATOM      3  C4  8JS d   1      -1.007   5.077  84.579  0.00  0.00     0.059 A 
ATOM      4  C5  8JS d   1      -2.348   5.082  84.911  0.00  0.00    -0.054 A 
ATOM      5  C6  8JS d   1      -2.858   4.022  85.640  0.00  0.00    -0.058 A 
ATOM      6  H3  8JS d   1      -2.989   5.901  84.606  0.00  0.00     0.087 H 
ATOM      7  C7  8JS d   1      -2.023   2.955  86.023  0.00  0.00     0.079 A 
ATOM      8  H7  8JS d   1      -3.906   4.013  85.918  0.00  0.00     0.086 H 
ATOM      9  C12 8JS d   1      -0.694   2.980  85.676  0.00  0.00    -0.058 A 
ATOM     10  C13 8JS d   1      -0.175   4.040  84.962  0.00  0.00    -0.054 A 
ATOM     11  H8  8JS d   1      -0.048   2.159  85.966  0.00  0.00     0.086 H 
ATOM     12  H4  8JS d   1       0.877   4.060  84.703  0.00  0.00     0.087 H 
BRANCH   7  13
ATOM     13  S8  8JS d   1      -2.693   1.617  86.969  0.00  0.00     0.256 S 
ATOM     14  O9  8JS d   1      -2.125   1.776  88.266  0.00  0.00    -0.201 OA
ATOM     15  O11 8JS d   1      -4.137   1.730  86.856  0.00  0.00    -0.201 OA
BRANCH  13  16
ATOM     16  N10 8JS d   1      -2.159   0.265  86.307  0.00  0.00    -0.324 N 
ATOM     17  H9  8JS d   1      -2.423  -0.619  86.693  0.00  0.00     0.169 HD
ATOM     18  H10 8JS d   1      -1.561   0.302  85.507  0.00  0.00     0.169 HD
ENDBRANCH  13  16
ENDBRANCH   7  13
ENDBRANCH   2   3
BRANCH   1  19
ATOM     19  N14 8JS d   1      -0.137   7.926  82.561  0.00  0.00    -0.336 N 
ATOM     20  H11 8JS d   1      -0.233   8.211  81.576  0.00  0.00     0.168 HD
BRANCH  19  21
ATOM     21  C15 8JS d   1       0.829   8.631  83.318  0.00  0.00     0.034 A 
ATOM     22  C16 8JS d   1       1.695   9.439  82.624  0.00  0.00    -0.054 A 
ATOM     23  C17 8JS d   1       2.653  10.164  83.259  0.00  0.00    -0.044 A 
ATOM     24  H1  8JS d   1       1.613   9.500  81.545  0.00  0.00     0.087 H 
ATOM     25  C18 8JS d   1       2.790  10.126  84.634  0.00  0.00     0.116 A 
ATOM     26  H5  8JS d   1       3.323  10.785  82.675  0.00  0.00     0.088 H 
ATOM     27  C20 8JS d   1       1.928   9.334  85.344  0.00  0.00    -0.044 A 
ATOM     28  F19 8JS d   1       3.770  10.873  85.260  0.00  0.00    -0.206 F 
ATOM     29  C21 8JS d   1       0.962   8.583  84.697  0.00  0.00    -0.054 A 
ATOM     30  H6  8JS d   1       2.003   9.295  86.425  0.00  0.00     0.088 H 
ATOM     31  H2  8JS d   1       0.301   7.949  85.276  0.00  0.00     0.087 H 
ENDBRANCH  19  21
ENDBRANCH   1  19
BRANCH   1  32
ATOM     32  S1  8JS d   1      -2.646   6.829  82.287  0.00  0.00    -0.105 SA
ATOM     33  H12 8JS d   1      -2.770   7.587  81.635  0.00  0.00     0.110 HD
ENDBRANCH   1  32
TORSDOF 6
