REMARK  1 active torsions:
REMARK  status: ('A' for Active; 'I' for Inactive)
REMARK    1  A    between atoms: CAJ_1  and  CAC_2 
ROOT
ATOM      1  CAC AUD d   1      -1.335   5.338  85.155  0.00  0.00     0.070 C 
ATOM      2  OAB AUD d   1      -2.441   4.993  86.024  0.00  0.00    -0.221 OA
ATOM      3  SAA AUD d   1      -2.365   3.609  86.784  0.00  0.00     0.369 S 
ATOM      4  OAG AUD d   1      -3.751   3.273  87.072  0.00  0.00    -0.175 OA
ATOM      5  OAH AUD d   1      -1.461   3.827  87.899  0.00  0.00    -0.175 OA
ATOM      6  NAF AUD d   1      -1.714   2.475  85.884  0.00  0.00    -0.228 N 
ATOM      7  CAE AUD d   1      -0.724   2.839  84.955  0.00  0.00     0.258 C 
ATOM      8  OAI AUD d   1      -0.190   2.023  84.267  0.00  0.00    -0.267 OA
ATOM      9  CAD AUD d   1      -0.360   4.383  84.806  0.00  0.00     0.012 C 
ATOM     10  H4  AUD d   1      -2.002   1.522  85.976  0.00  0.00     0.184 HD
ATOM     11  H5  AUD d   1       0.619   4.693  84.443  0.00  0.00     0.096 H 
ENDROOT
BRANCH   1  12
ATOM     12  CAJ AUD d   1      -1.328   6.700  84.487  0.00  0.00    -0.030 C 
ATOM     13  H1  AUD d   1      -0.425   6.799  83.866  0.00  0.00     0.036 H 
ATOM     14  H2  AUD d   1      -1.332   7.486  85.257  0.00  0.00     0.036 H 
ATOM     15  H3  AUD d   1      -2.221   6.802  83.853  0.00  0.00     0.036 H 
ENDBRANCH   1  12
TORSDOF 1
