REMARK  3 active torsions:
REMARK  status: ('A' for Active; 'I' for Inactive)
REMARK    1  A    between atoms: C7_6  and  C11_10 
REMARK    2  A    between atoms: N17_16  and  C18_17 
REMARK    3  A    between atoms: C20_18  and  C28_25 
ROOT
ATOM      1  C11 21G d   1     -25.273   4.320  11.946  0.00  0.00     0.164 A 
ATOM      2  N12 21G d   1     -25.674   3.880  13.173  0.00  0.00    -0.237 NA
ATOM      3  C13 21G d   1     -25.393   4.691  14.228  0.00  0.00     0.045 A 
ATOM      4  C14 21G d   1     -24.740   5.920  14.067  0.00  0.00     0.179 A 
ATOM      5  C15 21G d   1     -24.346   6.267  12.779  0.00  0.00     0.166 A 
ATOM      6  N16 21G d   1     -24.600   5.461  11.702  0.00  0.00    -0.208 NA
ATOM      7  N17 21G d   1     -23.752   7.448  12.563  0.00  0.00    -0.366 N 
ATOM      8  F31 21G d   1     -24.526   6.776  15.082  0.00  0.00    -0.201 F 
ATOM      9  H5  21G d   1     -25.683   4.377  15.224  0.00  0.00     0.119 H 
ATOM     10  H6  21G d   1     -23.616   8.090  13.357  0.00  0.00     0.161 HD
ENDROOT
BRANCH   7  11
ATOM     11  C18 21G d   1     -23.300   7.846  11.262  0.00  0.00     0.028 C 
ATOM     12  C20 21G d   1     -22.049   8.715  11.541  0.00  0.00     0.054 C 
ATOM     13  C22 21G d   1     -21.981   9.820  10.469  0.00  0.00    -0.039 C 
ATOM     14  H8  21G d   1     -22.183   9.212  12.513  0.00  0.00     0.060 H 
ATOM     15  C23 21G d   1     -22.400   9.242   9.115  0.00  0.00    -0.060 C 
ATOM     16  C27 21G d   1     -23.055  10.838  10.966  0.00  0.00    -0.060 C 
ATOM     17  H9  21G d   1     -20.981  10.274  10.404  0.00  0.00     0.041 H 
ATOM     18  C24 21G d   1     -23.890   8.843   9.117  0.00  0.00    -0.059 C 
ATOM     19  H10 21G d   1     -21.790   8.352   8.900  0.00  0.00     0.033 H 
ATOM     20  H11 21G d   1     -22.232   9.998   8.334  0.00  0.00     0.033 H 
ATOM     21  C25 21G d   1     -24.373   8.696  10.561  0.00  0.00    -0.034 C 
ATOM     22  H12 21G d   1     -24.015   7.886   8.589  0.00  0.00     0.033 H 
ATOM     23  H13 21G d   1     -24.479   9.621   8.610  0.00  0.00     0.033 H 
ATOM     24  C26 21G d   1     -24.432  10.124  11.174  0.00  0.00    -0.059 C 
ATOM     25  H14 21G d   1     -25.358   8.210  10.614  0.00  0.00     0.043 H 
ATOM     26  H15 21G d   1     -24.649  10.053  12.250  0.00  0.00     0.033 H 
ATOM     27  H16 21G d   1     -25.224  10.704  10.678  0.00  0.00     0.033 H 
ATOM     28  H17 21G d   1     -23.171  11.636  10.218  0.00  0.00     0.033 H 
ATOM     29  H18 21G d   1     -22.726  11.274  11.921  0.00  0.00     0.033 H 
ATOM     30  H7  21G d   1     -23.049   6.971  10.645  0.00  0.00     0.074 H 
BRANCH  12  31
ATOM     31  C28 21G d   1     -20.816   7.839  11.663  0.00  0.00     0.179 C 
ATOM     32  O29 21G d   1     -20.516   7.114  12.611  0.00  0.00    -0.648 OA
ATOM     33  O30 21G d   1     -19.965   7.886  10.620  0.00  0.00    -0.648 OA
ENDBRANCH  12  31
ENDBRANCH   7  11
BRANCH   1  34
ATOM     34  C7  21G d   1     -25.650   3.556  10.778  0.00  0.00     0.041 A 
ATOM     35  C6  21G d   1     -25.339   3.860   9.425  0.00  0.00     0.028 A 
ATOM     36  C1  21G d   1     -24.636   4.855   8.794  0.00  0.00    -0.030 A 
ATOM     37  C5  21G d   1     -25.945   2.837   8.621  0.00  0.00     0.138 A 
ATOM     38  C2  21G d   1     -24.581   4.780   7.432  0.00  0.00     0.134 A 
ATOM     39  H1  21G d   1     -24.153   5.654   9.345  0.00  0.00     0.089 H 
ATOM     40  C3  21G d   1     -25.213   3.738   6.694  0.00  0.00     0.042 A 
ATOM     41  F32 21G d   1     -23.916   5.722   6.761  0.00  0.00    -0.205 F 
ATOM     42  N4  21G d   1     -25.909   2.751   7.257  0.00  0.00    -0.239 NA
ATOM     43  H2  21G d   1     -25.123   3.749   5.614  0.00  0.00     0.119 H 
ATOM     44  N9  21G d   1     -26.590   1.926   9.486  0.00  0.00    -0.349 N 
ATOM     45  C8  21G d   1     -26.404   2.378  10.784  0.00  0.00    -0.007 A 
ATOM     46  H4  21G d   1     -27.105   1.080   9.204  0.00  0.00     0.167 HD
ATOM     47  H3  21G d   1     -26.789   1.888  11.677  0.00  0.00     0.112 H 
ENDBRANCH   1  34
TORSDOF 3
