REMARK  11 active torsions:
REMARK  status: ('A' for Active; 'I' for Inactive)
REMARK    1  A    between atoms: C1_1  and  O38_34 
REMARK    2  A    between atoms: C15_11  and  N10_10 
REMARK    3  A    between atoms: C16_12  and  C15_11 
REMARK    4  A    between atoms: C16_12  and  O17_13 
REMARK    5  A    between atoms: C18_14  and  C16_12 
REMARK    6  A    between atoms: C18_14  and  N19_15 
REMARK    7  A    between atoms: C31_27  and  C18_14 
REMARK       I    between atoms: N19_15  and  C20_16 
REMARK    8  A    between atoms: C20_16  and  O22_18 
REMARK    9  A    between atoms: O22_18  and  C23_19 
REMARK   10  A    between atoms: C37_33  and  C31_27 
REMARK   11  A    between atoms: O38_34  and  C39_35 
ROOT
ATOM      1  C15 GR7 d   1      16.360 -17.923  -5.612  0.00  0.00     0.031 C 
ATOM      2  H4  GR7 d   1      16.151 -17.708  -6.670  0.00  0.00     0.069 H 
ATOM      3  H5  GR7 d   1      16.369 -16.983  -5.041  0.00  0.00     0.069 H 
ENDROOT
BRANCH   1   4
ATOM      4  N10 GR7 d   1      17.658 -18.549  -5.507  0.00  0.00    -0.304 N 
ATOM      5  S7  GR7 d   1      18.594 -18.819  -6.782  0.00  0.00     0.261 S 
ATOM      6  C4  GR7 d   1      19.585 -17.416  -7.206  0.00  0.00     0.088 A 
ATOM      7  O8  GR7 d   1      17.634 -18.920  -7.991  0.00  0.00    -0.200 OA
ATOM      8  O9  GR7 d   1      19.490 -19.952  -6.579  0.00  0.00    -0.200 OA
ATOM      9  C3  GR7 d   1      20.900 -17.202  -6.831  0.00  0.00    -0.009 A 
ATOM     10  C5  GR7 d   1      19.003 -16.422  -7.993  0.00  0.00    -0.057 A 
ATOM     11  C2  GR7 d   1      21.596 -16.037  -7.232  0.00  0.00    -0.041 A 
ATOM     12  C40 GR7 d   1      21.651 -18.089  -6.042  0.00  0.00     0.045 C 
ATOM     13  C1  GR7 d   1      20.995 -15.061  -8.015  0.00  0.00     0.068 A 
ATOM     14  H1  GR7 d   1      22.625 -15.903  -6.920  0.00  0.00     0.088 H 
ATOM     15  C6  GR7 d   1      19.677 -15.286  -8.386  0.00  0.00    -0.049 A 
ATOM     16  H3  GR7 d   1      19.166 -14.552  -8.999  0.00  0.00     0.087 H 
ATOM     17  O41 GR7 d   1      21.862 -17.322  -4.794  0.00  0.00    -0.383 OA
ATOM     18  H37 GR7 d   1      22.609 -18.333  -6.524  0.00  0.00     0.081 H 
ATOM     19  H38 GR7 d   1      21.092 -19.016  -5.847  0.00  0.00     0.081 H 
ATOM     20  C42 GR7 d   1      22.489 -18.000  -3.694  0.00  0.00     0.035 C 
ATOM     21  C43 GR7 d   1      21.531 -18.415  -2.759  0.00  0.00    -0.084 C 
ATOM     22  H39 GR7 d   1      23.199 -17.316  -3.205  0.00  0.00     0.080 H 
ATOM     23  H40 GR7 d   1      23.029 -18.880  -4.073  0.00  0.00     0.080 H 
ATOM     24  C44 GR7 d   1      20.981 -19.660  -2.662  0.00  0.00    -0.105 C 
ATOM     25  H41 GR7 d   1      21.192 -17.671  -2.039  0.00  0.00     0.079 H 
ATOM     26  C14 GR7 d   1      19.995 -20.158  -1.839  0.00  0.00    -0.050 C 
ATOM     27  H42 GR7 d   1      21.395 -20.388  -3.358  0.00  0.00     0.076 H 
ATOM     28  C13 GR7 d   1      18.574 -20.181  -2.263  0.00  0.00    -0.061 C 
ATOM     29  H35 GR7 d   1      20.271 -21.200  -1.619  0.00  0.00     0.038 H 
ATOM     30  H36 GR7 d   1      20.034 -19.565  -0.913  0.00  0.00     0.038 H 
ATOM     31  C12 GR7 d   1      18.345 -20.152  -3.751  0.00  0.00    -0.049 C 
ATOM     32  H33 GR7 d   1      18.116 -21.099  -1.867  0.00  0.00     0.033 H 
ATOM     33  H34 GR7 d   1      18.075 -19.304  -1.825  0.00  0.00     0.033 H 
ATOM     34  C11 GR7 d   1      18.263 -18.708  -4.222  0.00  0.00     0.005 C 
ATOM     35  H31 GR7 d   1      19.179 -20.657  -4.260  0.00  0.00     0.035 H 
ATOM     36  H32 GR7 d   1      17.403 -20.669  -3.987  0.00  0.00     0.035 H 
ATOM     37  H29 GR7 d   1      17.673 -18.138  -3.489  0.00  0.00     0.065 H 
ATOM     38  H30 GR7 d   1      19.284 -18.301  -4.268  0.00  0.00     0.065 H 
ATOM     39  H2  GR7 d   1      17.974 -16.549  -8.310  0.00  0.00     0.086 H 
BRANCH  13  40
ATOM     40  O38 GR7 d   1      21.613 -13.918  -8.433  0.00  0.00    -0.356 OA
BRANCH  40  41
ATOM     41  C39 GR7 d   1      22.977 -13.865  -8.035  0.00  0.00     0.010 C 
ATOM     42  H26 GR7 d   1      23.428 -12.928  -8.395  0.00  0.00     0.066 H 
ATOM     43  H27 GR7 d   1      23.518 -14.721  -8.465  0.00  0.00     0.066 H 
ATOM     44  H28 GR7 d   1      23.041 -13.905  -6.938  0.00  0.00     0.066 H 
ENDBRANCH  40  41
ENDBRANCH  13  40
ENDBRANCH   1   4
BRANCH   1  45
ATOM     45  C16 GR7 d   1      15.256 -18.831  -5.060  0.00  0.00     0.071 C 
ATOM     46  H6  GR7 d   1      15.626 -19.285  -4.129  0.00  0.00     0.088 H 
BRANCH  45  47
ATOM     47  O17 GR7 d   1      14.082 -18.049  -4.758  0.00  0.00    -0.392 OA
ATOM     48  H7  GR7 d   1      13.773 -17.625  -5.550  0.00  0.00     0.210 HD
ENDBRANCH  45  47
BRANCH  45  49
ATOM     49  C18 GR7 d   1      14.878 -19.956  -6.016  0.00  0.00     0.044 C 
ATOM     50  H8  GR7 d   1      15.790 -20.497  -6.308  0.00  0.00     0.077 H 
BRANCH  49  51
ATOM     51  N19 GR7 d   1      13.956 -20.873  -5.330  0.00  0.00    -0.329 N 
ATOM     52  C20 GR7 d   1      14.252 -22.105  -4.935  0.00  0.00     0.361 C 
ATOM     53  O21 GR7 d   1      15.326 -22.751  -5.059  0.00  0.00    -0.238 OA
ATOM     54  H9  GR7 d   1      13.031 -20.541  -5.146  0.00  0.00     0.165 HD
BRANCH  52  55
ATOM     55  O22 GR7 d   1      13.249 -22.706  -4.260  0.00  0.00    -0.296 OA
BRANCH  55  56
ATOM     56  C23 GR7 d   1      13.419 -24.111  -4.022  0.00  0.00     0.078 C 
ATOM     57  C24 GR7 d   1      12.868 -24.359  -2.599  0.00  0.00     0.048 C 
ATOM     58  O25 GR7 d   1      11.442 -24.285  -2.809  0.00  0.00    -0.358 OA
ATOM     59  H11 GR7 d   1      13.209 -23.583  -1.898  0.00  0.00     0.078 H 
ATOM     60  H12 GR7 d   1      13.165 -25.349  -2.223  0.00  0.00     0.078 H 
ATOM     61  C26 GR7 d   1      11.117 -24.871  -4.069  0.00  0.00     0.137 C 
ATOM     62  O27 GR7 d   1      10.236 -23.998  -4.776  0.00  0.00    -0.361 OA
ATOM     63  C30 GR7 d   1      12.417 -24.913  -4.853  0.00  0.00     0.023 C 
ATOM     64  H13 GR7 d   1      10.677 -25.872  -3.947  0.00  0.00     0.129 H 
ATOM     65  C28 GR7 d   1      10.896 -23.403  -5.901  0.00  0.00     0.023 C 
ATOM     66  C29 GR7 d   1      12.024 -24.375  -6.217  0.00  0.00    -0.035 C 
ATOM     67  H14 GR7 d   1      11.295 -22.411  -5.642  0.00  0.00     0.074 H 
ATOM     68  H15 GR7 d   1      10.208 -23.310  -6.755  0.00  0.00     0.074 H 
ATOM     69  H16 GR7 d   1      12.869 -23.856  -6.694  0.00  0.00     0.037 H 
ATOM     70  H17 GR7 d   1      11.673 -25.185  -6.873  0.00  0.00     0.037 H 
ATOM     71  H18 GR7 d   1      12.793 -25.941  -4.966  0.00  0.00     0.051 H 
ATOM     72  H10 GR7 d   1      14.460 -24.435  -4.166  0.00  0.00     0.088 H 
ENDBRANCH  55  56
ENDBRANCH  52  55
ENDBRANCH  49  51
BRANCH  49  73
ATOM     73  C31 GR7 d   1      14.178 -19.436  -7.281  0.00  0.00    -0.020 C 
ATOM     74  H19 GR7 d   1      14.855 -18.753  -7.815  0.00  0.00     0.043 H 
ATOM     75  H20 GR7 d   1      13.264 -18.896  -6.993  0.00  0.00     0.043 H 
BRANCH  73  76
ATOM     76  C37 GR7 d   1      13.805 -20.604  -8.207  0.00  0.00    -0.056 C 
ATOM     77  C32 GR7 d   1      12.491 -21.046  -8.291  0.00  0.00    -0.077 C 
ATOM     78  C33 GR7 d   1      12.128 -22.142  -9.092  0.00  0.00    -0.082 C 
ATOM     79  H21 GR7 d   1      11.724 -20.531  -7.723  0.00  0.00     0.084 H 
ATOM     80  C34 GR7 d   1      13.154 -22.852  -9.701  0.00  0.00    -0.083 C 
ATOM     81  H22 GR7 d   1      11.090 -22.422  -9.229  0.00  0.00     0.083 H 
ATOM     82  C35 GR7 d   1      14.463 -22.402  -9.684  0.00  0.00    -0.082 C 
ATOM     83  H23 GR7 d   1      12.924 -23.784 -10.204  0.00  0.00     0.083 H 
ATOM     84  C36 GR7 d   1      14.827 -21.325  -8.871  0.00  0.00    -0.077 C 
ATOM     85  H24 GR7 d   1      15.209 -22.887 -10.304  0.00  0.00     0.083 H 
ATOM     86  H25 GR7 d   1      15.868 -21.048  -8.751  0.00  0.00     0.084 H 
ENDBRANCH  73  76
ENDBRANCH  49  73
ENDBRANCH  45  49
ENDBRANCH   1  45
TORSDOF 11
