REMARK  8 active torsions:
REMARK  status: ('A' for Active; 'I' for Inactive)
REMARK    1  A    between atoms: C26_1  and  C22_6 
REMARK    2  A    between atoms: C14_3  and  C13_13 
REMARK    3  A    between atoms: N18_14  and  C14_3 
REMARK    4  A    between atoms: C14_3  and  C52_33 
REMARK    5  A    between atoms: C33_19  and  C29_18 
REMARK    6  A    between atoms: C35_21  and  C34_20 
REMARK    7  A    between atoms: C45_28  and  C40_25 
REMARK    8  A    between atoms: C50_31  and  C51_32 
ROOT
ATOM      1  C20 MOL d   1     -11.441 -13.722   5.824  0.00  0.00     0.014 A 
ATOM      2  C16 MOL d   1     -14.868 -15.508   3.591  0.00  0.00    -0.006 A 
ATOM      3  N18 MOL d   1     -13.772 -15.128   2.861  0.00  0.00    -0.344 N 
ATOM      4  N19 MOL d   1     -12.666 -14.224   6.090  0.00  0.00    -0.257 NA
ATOM      5  C35 MOL d   1     -10.864 -13.615   4.560  0.00  0.00    -0.002 A 
ATOM      6  C36 MOL d   1     -11.585 -14.065   3.465  0.00  0.00    -0.042 A 
ATOM      7  C38 MOL d   1     -12.844 -14.591   3.713  0.00  0.00     0.065 A 
ATOM      8  C39 MOL d   1     -13.361 -14.664   5.010  0.00  0.00     0.095 A 
ATOM      9  C40 MOL d   1     -14.650 -15.261   4.937  0.00  0.00     0.021 A 
ATOM     10  H3  MOL d   1     -10.856 -13.372   6.667  0.00  0.00     0.116 H 
ATOM     11  H4  MOL d   1     -15.777 -15.940   3.175  0.00  0.00     0.113 H 
ATOM     12  H14 MOL d   1     -11.183 -14.008   2.460  0.00  0.00     0.088 H 
ENDROOT
BRANCH   3  13
ATOM     13  C14 MOL d   1     -13.665 -15.201   1.402  0.00  0.00     0.055 C 
ATOM     14  H2  MOL d   1     -12.647 -15.520   1.134  0.00  0.00     0.082 H 
BRANCH  13  15
ATOM     15  C13 MOL d   1     -13.938 -13.826   0.818  0.00  0.00     0.057 A 
ATOM     16  C11 MOL d   1     -14.897 -12.990   1.394  0.00  0.00    -0.057 A 
ATOM     17  C9  MOL d   1     -15.170 -11.765   0.794  0.00  0.00    -0.080 A 
ATOM     18  H1  MOL d   1     -15.420 -13.291   2.294  0.00  0.00     0.086 H 
ATOM     19  C7  MOL d   1     -14.491 -11.398  -0.357  0.00  0.00    -0.066 A 
ATOM     20  H10 MOL d   1     -15.910 -11.101   1.225  0.00  0.00     0.083 H 
ATOM     21  C5  MOL d   1     -13.554 -12.281  -0.859  0.00  0.00     0.003 A 
ATOM     22  H9  MOL d   1     -14.688 -10.451  -0.847  0.00  0.00     0.085 H 
ATOM     23  N4  MOL d   1     -13.268 -13.482  -0.306  0.00  0.00    -0.263 NA
ATOM     24  H8  MOL d   1     -13.014 -11.993  -1.753  0.00  0.00     0.114 H 
ENDBRANCH  13  15
BRANCH  13  25
ATOM     25  C52 MOL d   1     -14.671 -16.189   0.806  0.00  0.00    -0.052 C 
ATOM     26  H19 MOL d   1     -14.557 -16.213  -0.288  0.00  0.00     0.030 H 
ATOM     27  H20 MOL d   1     -15.693 -15.871   1.061  0.00  0.00     0.030 H 
ATOM     28  H21 MOL d   1     -14.486 -17.193   1.216  0.00  0.00     0.030 H 
ENDBRANCH  13  25
ENDBRANCH   3  13
BRANCH   9  29
ATOM     29  C45 MOL d   1     -15.661 -15.566   5.947  0.00  0.00    -0.022 A 
ATOM     30  C43 MOL d   1     -15.754 -14.825   7.133  0.00  0.00    -0.071 A 
ATOM     31  C41 MOL d   1     -16.751 -15.101   8.078  0.00  0.00    -0.066 A 
ATOM     32  H16 MOL d   1     -15.045 -14.027   7.322  0.00  0.00     0.084 H 
ATOM     33  C50 MOL d   1     -17.677 -16.132   7.868  0.00  0.00     0.040 A 
ATOM     34  H15 MOL d   1     -16.807 -14.509   8.984  0.00  0.00     0.085 H 
ATOM     35  C48 MOL d   1     -17.582 -16.862   6.680  0.00  0.00    -0.066 A 
ATOM     36  C46 MOL d   1     -16.593 -16.586   5.739  0.00  0.00    -0.071 A 
ATOM     37  H18 MOL d   1     -18.292 -17.658   6.487  0.00  0.00     0.085 H 
ATOM     38  H17 MOL d   1     -16.546 -17.173   4.829  0.00  0.00     0.084 H 
BRANCH  33  39
ATOM     39  C51 MOL d   1     -18.758 -16.444   8.871  0.00  0.00     0.209 C 
ATOM     40  O1  MOL d   1     -18.799 -15.729   9.913  0.00  0.00    -0.644 OA
ATOM     41  O2  MOL d   1     -19.552 -17.402   8.614  0.00  0.00    -0.644 OA
ENDBRANCH  33  39
ENDBRANCH   9  29
BRANCH   5  42
ATOM     42  C34 MOL d   1      -9.545 -13.085   4.330  0.00  0.00     0.034 A 
ATOM     43  C26 MOL d   1      -9.021 -11.963   4.926  0.00  0.00     0.088 A 
ATOM     44  O27 MOL d   1      -7.753 -11.770   4.469  0.00  0.00    -0.217 OA
ATOM     45  N28 MOL d   1      -7.430 -12.773   3.568  0.00  0.00    -0.133 NA
ATOM     46  C33 MOL d   1      -8.505 -13.558   3.489  0.00  0.00     0.072 A 
BRANCH  43  47
ATOM     47  C22 MOL d   1      -9.527 -10.982   5.904  0.00  0.00    -0.028 C 
ATOM     48  H5  MOL d   1     -10.555 -11.248   6.192  0.00  0.00     0.036 H 
ATOM     49  H6  MOL d   1      -9.521  -9.979   5.454  0.00  0.00     0.036 H 
ATOM     50  H7  MOL d   1      -8.883 -10.988   6.796  0.00  0.00     0.036 H 
ENDBRANCH  43  47
BRANCH  46  51
ATOM     51  C29 MOL d   1      -8.479 -14.739   2.586  0.00  0.00    -0.033 C 
ATOM     52  H11 MOL d   1      -9.442 -15.268   2.646  0.00  0.00     0.035 H 
ATOM     53  H12 MOL d   1      -7.668 -15.417   2.892  0.00  0.00     0.035 H 
ATOM     54  H13 MOL d   1      -8.308 -14.406   1.552  0.00  0.00     0.035 H 
ENDBRANCH  46  51
ENDBRANCH   5  42
TORSDOF 8
