REMARK  11 active torsions:
REMARK  status: ('A' for Active; 'I' for Inactive)
REMARK    1  A    between atoms: N_1  and  CA_2 
REMARK    2  A    between atoms: CA_2  and  CB_3 
REMARK    3  A    between atoms: CA_2  and  C_6 
REMARK    4  A    between atoms: CB_3  and  CG_4 
REMARK    5  A    between atoms: CG_4  and  SD_5 
REMARK    6  A    between atoms: SD_5  and  C5'_9 
REMARK    7  A    between atoms: C5'_9  and  C4'_10 
REMARK    8  A    between atoms: C3'_12  and  O3'_13 
REMARK    9  A    between atoms: C2'_14  and  O2'_15 
REMARK   10  A    between atoms: C1'_16  and  N9_17 
REMARK   11  A    between atoms: C6_21  and  N6_22 
ROOT
ATOM      1  C4' SAH d   1       0.700   8.531 -50.462  0.00  0.00     0.076 C 
ATOM      2  O4' SAH d   1       0.229   9.068 -51.724  0.00  0.00    -0.355 OA
ATOM      3  C3' SAH d   1      -0.503   8.390 -49.615  0.00  0.00     0.090 C 
ATOM      4  C2' SAH d   1      -1.619   8.920 -50.408  0.00  0.00     0.105 C 
ATOM      5  C1' SAH d   1      -0.948   9.748 -51.450  0.00  0.00     0.139 C 
ATOM      6  H11 SAH d   1       1.425   9.212 -49.992  0.00  0.00     0.088 H 
ATOM      7  H12 SAH d   1      -0.685   7.336 -49.358  0.00  0.00     0.091 H 
ATOM      8  H14 SAH d   1      -2.166   8.093 -50.884  0.00  0.00     0.093 H 
ATOM      9  H16 SAH d   1      -0.710  10.732 -51.020  0.00  0.00     0.122 H 
ENDROOT
BRANCH   1  10
ATOM     10  C5' SAH d   1       1.308   7.258 -50.694  0.00  0.00     0.003 C 
ATOM     11  H9  SAH d   1       0.528   6.590 -51.089  0.00  0.00     0.052 H 
ATOM     12  H10 SAH d   1       2.088   7.402 -51.456  0.00  0.00     0.052 H 
BRANCH  10  13
ATOM     13  SD  SAH d   1       2.078   6.416 -49.285  0.00  0.00    -0.166 SA
BRANCH  13  14
ATOM     14  CG  SAH d   1       3.762   7.104 -49.122  0.00  0.00    -0.021 C 
ATOM     15  H7  SAH d   1       4.356   6.385 -48.539  0.00  0.00     0.049 H 
ATOM     16  H8  SAH d   1       4.182   7.191 -50.135  0.00  0.00     0.049 H 
BRANCH  14  17
ATOM     17  CB  SAH d   1       3.906   8.470 -48.448  0.00  0.00    -0.021 C 
ATOM     18  H5  SAH d   1       3.346   9.204 -49.046  0.00  0.00     0.037 H 
ATOM     19  H6  SAH d   1       3.463   8.401 -47.443  0.00  0.00     0.037 H 
BRANCH  17  20
ATOM     20  CA  SAH d   1       5.387   8.996 -48.293  0.00  0.00     0.183 C 
ATOM     21  H4  SAH d   1       5.351   9.904 -47.674  0.00  0.00     0.101 H 
BRANCH  20  22
ATOM     22  N   SAH d   1       5.947   9.349 -49.612  0.00  0.00    -0.065 N 
ATOM     23  H1  SAH d   1       5.334  10.002 -50.074  0.00  0.00     0.275 HD
ATOM     24  H2  SAH d   1       6.035   8.517 -50.173  0.00  0.00     0.275 HD
ATOM     25  H3  SAH d   1       6.855   9.769 -49.490  0.00  0.00     0.275 HD
ENDBRANCH  20  22
BRANCH  20  26
ATOM     26  C   SAH d   1       6.298   8.044 -47.641  0.00  0.00     0.204 C 
ATOM     27  O   SAH d   1       7.047   7.381 -48.336  0.00  0.00    -0.646 OA
ATOM     28  OXT SAH d   1       6.165   7.789 -46.460  0.00  0.00    -0.646 OA
ENDBRANCH  20  26
ENDBRANCH  17  20
ENDBRANCH  14  17
ENDBRANCH  13  14
ENDBRANCH  10  13
ENDBRANCH   1  10
BRANCH   3  29
ATOM     29  O3' SAH d   1      -0.291   9.143 -48.438  0.00  0.00    -0.390 OA
ATOM     30  H13 SAH d   1      -0.153  10.055 -48.667  0.00  0.00     0.210 HD
ENDBRANCH   3  29
BRANCH   5  31
ATOM     31  N9  SAH d   1      -1.763   9.988 -52.696  0.00  0.00    -0.294 N 
ATOM     32  C8  SAH d   1      -2.495   9.131 -53.426  0.00  0.00     0.071 A 
ATOM     33  N7  SAH d   1      -2.980   9.823 -54.462  0.00  0.00    -0.236 NA
ATOM     34  H17 SAH d   1      -2.662   8.076 -53.215  0.00  0.00     0.144 H 
ATOM     35  C5  SAH d   1      -2.554  11.094 -54.397  0.00  0.00     0.149 A 
ATOM     36  C6  SAH d   1      -2.745  12.237 -55.194  0.00  0.00     0.155 A 
ATOM     37  C4  SAH d   1      -1.757  11.200 -53.257  0.00  0.00     0.167 A 
ATOM     38  N1  SAH d   1      -2.150  13.387 -54.822  0.00  0.00    -0.222 NA
ATOM     39  C2  SAH d   1      -1.387  13.460 -53.725  0.00  0.00     0.091 A 
ATOM     40  N3  SAH d   1      -1.188  12.377 -52.940  0.00  0.00    -0.222 NA
ATOM     41  H20 SAH d   1      -0.921  14.402 -53.461  0.00  0.00     0.146 H 
BRANCH  36  42
ATOM     42  N6  SAH d   1      -3.555  12.201 -56.305  0.00  0.00    -0.382 N 
ATOM     43  H18 SAH d   1      -3.683  13.048 -56.877  0.00  0.00     0.157 HD
ATOM     44  H19 SAH d   1      -4.034  11.327 -56.565  0.00  0.00     0.157 HD
ENDBRANCH  36  42
ENDBRANCH   5  31
BRANCH   4  45
ATOM     45  O2' SAH d   1      -2.535   9.659 -49.627  0.00  0.00    -0.388 OA
ATOM     46  H15 SAH d   1      -2.086  10.394 -49.225  0.00  0.00     0.210 HD
ENDBRANCH   4  45
TORSDOF 11
