REMARK  12 active torsions:
REMARK  status: ('A' for Active; 'I' for Inactive)
REMARK    1  A    between atoms: C13_2  and  N14_16 
REMARK    2  A    between atoms: C11_22  and  C13_2 
REMARK    3  A    between atoms: N14_16  and  C15_3 
REMARK    4  A    between atoms: O21_21  and  C22_5 
REMARK    5  A    between atoms: S23_13  and  C26_6 
REMARK    6  A    between atoms: C31_9  and  C32_8 
REMARK    7  A    between atoms: N14_16  and  S23_13 
REMARK    8  A    between atoms: C18_20  and  O21_21 
REMARK       I    between atoms: N03_24  and  C11_22 
REMARK    9  A    between atoms: N03_24  and  C02_25 
REMARK   10  A    between atoms: C04_27  and  N03_24 
REMARK   11  A    between atoms: C02_25  and  C01_26 
REMARK   12  A    between atoms: C04_27  and  C05_28 
ROOT
ATOM      1  N14 7MA d   1      41.060  39.410 -54.479  0.00  0.00    -0.262 N 
ENDROOT
BRANCH   1   2
ATOM      2  C13 7MA d   1      39.797  39.024 -55.048  0.00  0.00     0.084 C 
ATOM      3  H2  7MA d   1      39.885  38.004 -55.450  0.00  0.00     0.080 H 
ATOM      4  H3  7MA d   1      39.547  39.719 -55.863  0.00  0.00     0.080 H 
BRANCH   2   5
ATOM      5  C11 7MA d   1      38.674  39.052 -54.013  0.00  0.00     0.239 C 
ATOM      6  O12 7MA d   1      37.946  40.031 -54.026  0.00  0.00    -0.271 OA
ATOM      7  N03 7MA d   1      38.464  38.007 -53.173  0.00  0.00    -0.347 N 
BRANCH   7   8
ATOM      8  C02 7MA d   1      39.326  36.799 -53.056  0.00  0.00    -0.005 C 
ATOM      9  H17 7MA d   1      39.398  36.517 -51.995  0.00  0.00     0.063 H 
ATOM     10  H18 7MA d   1      40.328  37.041 -53.440  0.00  0.00     0.063 H 
BRANCH   8  11
ATOM     11  C01 7MA d   1      38.767  35.604 -53.849  0.00  0.00    -0.061 C 
ATOM     12  H19 7MA d   1      39.437  34.740 -53.731  0.00  0.00     0.029 H 
ATOM     13  H20 7MA d   1      38.697  35.871 -54.914  0.00  0.00     0.029 H 
ATOM     14  H21 7MA d   1      37.767  35.347 -53.469  0.00  0.00     0.029 H 
ENDBRANCH   8  11
ENDBRANCH   7   8
BRANCH   7  15
ATOM     15  C04 7MA d   1      37.316  38.060 -52.258  0.00  0.00     0.023 C 
ATOM     16  H22 7MA d   1      36.873  37.055 -52.202  0.00  0.00     0.071 H 
ATOM     17  H23 7MA d   1      36.578  38.763 -52.671  0.00  0.00     0.071 H 
BRANCH  15  18
ATOM     18  C05 7MA d   1      37.642  38.481 -50.931  0.00  0.00    -0.023 A 
ATOM     19  C10 7MA d   1      36.647  38.372 -49.989  0.00  0.00    -0.072 A 
ATOM     20  C09 7MA d   1      36.862  38.720 -48.673  0.00  0.00    -0.065 A 
ATOM     21  H1  7MA d   1      35.672  38.004 -50.288  0.00  0.00     0.084 H 
ATOM     22  C08 7MA d   1      38.089  39.209 -48.286  0.00  0.00     0.002 A 
ATOM     23  H24 7MA d   1      36.067  38.609 -47.945  0.00  0.00     0.085 H 
ATOM     24  N07 7MA d   1      39.108  39.313 -49.222  0.00  0.00    -0.273 NA
ATOM     25  H25 7MA d   1      38.258  39.510 -47.258  0.00  0.00     0.114 H 
ATOM     26  C06 7MA d   1      38.894  38.975 -50.575  0.00  0.00     0.009 A 
ATOM     27  H26 7MA d   1      39.679  39.096 -51.313  0.00  0.00     0.115 H 
ENDBRANCH  15  18
ENDBRANCH   7  15
ENDBRANCH   2   5
ENDBRANCH   1   2
BRANCH   1  28
ATOM     28  C15 7MA d   1      41.322  40.700 -54.085  0.00  0.00     0.063 A 
ATOM     29  C20 7MA d   1      41.489  41.853 -54.868  0.00  0.00    -0.051 A 
ATOM     30  C19 7MA d   1      41.834  43.052 -54.188  0.00  0.00    -0.030 A 
ATOM     31  H4  7MA d   1      41.360  41.830 -55.944  0.00  0.00     0.087 H 
ATOM     32  C18 7MA d   1      41.984  43.078 -52.766  0.00  0.00     0.163 A 
ATOM     33  H16 7MA d   1      41.986  43.962 -54.757  0.00  0.00     0.090 H 
ATOM     34  N17 7MA d   1      41.828  41.952 -52.057  0.00  0.00    -0.235 NA
ATOM     35  C16 7MA d   1      41.502  40.800 -52.708  0.00  0.00     0.031 A 
ATOM     36  H15 7MA d   1      41.374  39.902 -52.114  0.00  0.00     0.118 H 
BRANCH  32  37
ATOM     37  O21 7MA d   1      42.312  44.204 -52.063  0.00  0.00    -0.339 OA
BRANCH  37  38
ATOM     38  C22 7MA d   1      42.269  44.122 -50.639  0.00  0.00     0.012 C 
ATOM     39  H5  7MA d   1      42.554  45.093 -50.207  0.00  0.00     0.067 H 
ATOM     40  H6  7MA d   1      42.970  43.347 -50.295  0.00  0.00     0.067 H 
ATOM     41  H7  7MA d   1      41.250  43.863 -50.317  0.00  0.00     0.067 H 
ENDBRANCH  37  38
ENDBRANCH  32  37
ENDBRANCH   1  28
BRANCH   1  42
ATOM     42  S23 7MA d   1      42.518  38.577 -55.336  0.00  0.00     0.266 S 
ATOM     43  O24 7MA d   1      41.967  37.474 -56.298  0.00  0.00    -0.200 OA
ATOM     44  O25 7MA d   1      43.385  37.974 -54.227  0.00  0.00    -0.200 OA
BRANCH  42  45
ATOM     45  C26 7MA d   1      43.476  39.737 -56.342  0.00  0.00     0.086 A 
ATOM     46  C31 7MA d   1      44.469  40.583 -55.812  0.00  0.00    -0.039 A 
ATOM     47  C30 7MA d   1      45.141  41.461 -56.659  0.00  0.00    -0.076 A 
ATOM     48  C29 7MA d   1      44.826  41.497 -58.015  0.00  0.00    -0.082 A 
ATOM     49  H12 7MA d   1      45.909  42.116 -56.263  0.00  0.00     0.084 H 
ATOM     50  C28 7MA d   1      43.835  40.661 -58.527  0.00  0.00    -0.081 A 
ATOM     51  H13 7MA d   1      45.353  42.177 -58.674  0.00  0.00     0.083 H 
ATOM     52  C27 7MA d   1      43.160  39.783 -57.696  0.00  0.00    -0.060 A 
ATOM     53  H8  7MA d   1      43.591  40.699 -59.583  0.00  0.00     0.083 H 
ATOM     54  H14 7MA d   1      42.390  39.135 -58.098  0.00  0.00     0.085 H 
BRANCH  46  55
ATOM     55  C32 7MA d   1      44.819  40.576 -54.448  0.00  0.00    -0.050 C 
ATOM     56  H9  7MA d   1      45.613  41.316 -54.269  0.00  0.00     0.033 H 
ATOM     57  H10 7MA d   1      45.180  39.576 -54.167  0.00  0.00     0.033 H 
ATOM     58  H11 7MA d   1      43.937  40.831 -53.842  0.00  0.00     0.033 H 
ENDBRANCH  46  55
ENDBRANCH  42  45
ENDBRANCH   1  42
TORSDOF 12
