REMARK  6 active torsions:
REMARK  status: ('A' for Active; 'I' for Inactive)
REMARK    1  A    between atoms: C2_2  and  C7_18 
REMARK    2  A    between atoms: C9_20  and  C13_5 
REMARK    3  A    between atoms: C20_11  and  S23_24 
REMARK    4  A    between atoms: S23_24  and  C25_14 
REMARK    5  A    between atoms: N8_19  and  C5_16 
REMARK    6  A    between atoms: N8_19  and  C9_20 
ROOT
ATOM      1  C1  73K d   1      17.634 -18.962 -20.885  0.00  0.00     0.035 A 
ATOM      2  C2  73K d   1      18.501 -19.857 -21.413  0.00  0.00     0.041 A 
ATOM      3  C3  73K d   1      19.894 -19.386 -21.591  0.00  0.00     0.186 A 
ATOM      4  C12 73K d   1      21.516 -18.131 -21.467  0.00  0.00     0.111 A 
ATOM      5  N4  73K d   1      20.231 -18.176 -21.225  0.00  0.00    -0.119 N 
ATOM      6  C5  73K d   1      19.385 -17.301 -20.680  0.00  0.00     0.709 A 
ATOM      7  N6  73K d   1      18.151 -17.666 -20.509  0.00  0.00    -0.076 NA
ATOM      8  N10 73K d   1      20.856 -20.088 -22.049  0.00  0.00    -0.129 NA
ATOM      9  N11 73K d   1      21.987 -19.213 -21.959  0.00  0.00    -0.142 NA
ATOM     10  H1  73K d   1      16.582 -19.210 -20.748  0.00  0.00     0.117 H 
ATOM     11  H2  73K d   1      22.128 -17.253 -21.268  0.00  0.00     0.148 H 
ENDROOT
BRANCH   2  12
ATOM     12  C7  73K d   1      18.019 -21.213 -21.877  0.00  0.00    -0.021 A 
ATOM     13  C18 73K d   1      18.339 -21.644 -23.185  0.00  0.00    -0.071 A 
ATOM     14  C19 73K d   1      17.848 -22.868 -23.667  0.00  0.00    -0.061 A 
ATOM     15  H6  73K d   1      18.966 -21.027 -23.818  0.00  0.00     0.084 H 
ATOM     16  C20 73K d   1      17.006 -23.641 -22.835  0.00  0.00     0.058 A 
ATOM     17  H7  73K d   1      18.110 -23.214 -24.660  0.00  0.00     0.085 H 
ATOM     18  C21 73K d   1      16.647 -23.193 -21.549  0.00  0.00    -0.061 A 
ATOM     19  C22 73K d   1      17.173 -21.990 -21.053  0.00  0.00    -0.071 A 
ATOM     20  H8  73K d   1      15.964 -23.777 -20.942  0.00  0.00     0.085 H 
ATOM     21  H9  73K d   1      16.933 -21.660 -20.049  0.00  0.00     0.084 H 
BRANCH  16  22
ATOM     22  S23 73K d   1      16.328 -25.172 -23.455  0.00  0.00     0.171 S 
ATOM     23  O24 73K d   1      15.854 -24.950 -24.809  0.00  0.00    -0.223 OA
ATOM     24  O26 73K d   1      15.379 -25.700 -22.490  0.00  0.00    -0.223 OA
BRANCH  22  25
ATOM     25  C25 73K d   1      17.826 -26.183 -23.523  0.00  0.00     0.020 C 
ATOM     26  H10 73K d   1      17.574 -27.187 -23.896  0.00  0.00     0.049 H 
ATOM     27  H11 73K d   1      18.260 -26.264 -22.515  0.00  0.00     0.049 H 
ATOM     28  H12 73K d   1      18.555 -25.713 -24.199  0.00  0.00     0.049 H 
ENDBRANCH  22  25
ENDBRANCH  16  22
ENDBRANCH   2  12
BRANCH   6  29
ATOM     29  N8  73K d   1      19.807 -16.100 -20.311  0.00  0.00    -0.218 N 
ATOM     30  H13 73K d   1      20.798 -15.879 -20.486  0.00  0.00     0.178 HD
BRANCH  29  31
ATOM     31  C9  73K d   1      18.994 -15.057 -19.677  0.00  0.00     0.053 C 
ATOM     32  H14 73K d   1      19.333 -14.075 -20.040  0.00  0.00     0.075 H 
ATOM     33  H15 73K d   1      17.942 -15.209 -19.959  0.00  0.00     0.075 H 
BRANCH  31  34
ATOM     34  C13 73K d   1      19.101 -15.081 -18.160  0.00  0.00     0.070 A 
ATOM     35  C14 73K d   1      18.128 -15.409 -17.294  0.00  0.00    -0.051 A 
ATOM     36  C15 73K d   1      18.799 -15.259 -15.981  0.00  0.00    -0.059 A 
ATOM     37  H3  73K d   1      17.103 -15.710 -17.504  0.00  0.00     0.087 H 
ATOM     38  C16 73K d   1      20.043 -14.854 -16.314  0.00  0.00     0.019 A 
ATOM     39  H4  73K d   1      18.388 -15.433 -14.988  0.00  0.00     0.086 H 
ATOM     40  O17 73K d   1      20.287 -14.730 -17.632  0.00  0.00    -0.325 OA
ATOM     41  H5  73K d   1      20.802 -14.641 -15.563  0.00  0.00     0.123 H 
ENDBRANCH  31  34
ENDBRANCH  29  31
ENDBRANCH   6  29
TORSDOF 6
