REMARK WARNING: 32 MAX_TORS EXCEEDED!!!
REMARK  37 active torsions:
REMARK  status: ('A' for Active; 'I' for Inactive)
REMARK    1  A    between atoms: N_1  and  CA_2 
REMARK    2  A    between atoms: CA_2  and  C_3 
REMARK    3  A    between atoms: CA_2  and  CB_5 
REMARK       I    between atoms: C_3  and  N_6 
REMARK    4  A    between atoms: N_6  and  CA_7 
REMARK    5  A    between atoms: CA_7  and  C_8 
REMARK    6  A    between atoms: CA_7  and  CB_10 
REMARK       I    between atoms: C_8  and  N_17 
REMARK    7  A    between atoms: CB_10  and  CG_11 
REMARK    8  A    between atoms: CG_11  and  CD_12 
REMARK    9  A    between atoms: CD_12  and  NE_13 
REMARK       I    between atoms: NE_13  and  CZ_14 
REMARK       I    between atoms: CZ_14  and  NH1_15 
REMARK   10  A    between atoms: N_17  and  CA_18 
REMARK   11  A    between atoms: CA_18  and  C_19 
REMARK   12  A    between atoms: CA_18  and  CB_21 
REMARK       I    between atoms: C_19  and  N_24 
REMARK   13  A    between atoms: CB_21  and  OG1_22 
REMARK   14  A    between atoms: CB_21  and  CG2_23 
REMARK   15  A    between atoms: N_24  and  CA_25 
REMARK   16  A    between atoms: CA_25  and  CB_26 
REMARK   17  A    between atoms: CA_25  and  C_31 
REMARK   18  A    between atoms: CB_26  and  CG_27 
REMARK   19  A    between atoms: CG_27  and  CD_28 
REMARK   20  A    between atoms: CD_28  and  CE_29 
REMARK   21  A    between atoms: CE_29  and  NZ_30 
REMARK   22  A    between atoms: NZ_30  and  CM1_33 
REMARK   23  A    between atoms: NZ_30  and  CM2_34 
REMARK   24  A    between atoms: NZ_30  and  CM3_35 
REMARK       I    between atoms: C_31  and  N_36 
REMARK   25  A    between atoms: N_36  and  CA_37 
REMARK   26  A    between atoms: CA_37  and  C_38 
REMARK   27  A    between atoms: CA_37  and  CB_40 
REMARK       I    between atoms: C_38  and  N_45 
REMARK   28  A    between atoms: CB_40  and  CG_41 
REMARK   29  A    between atoms: CG_41  and  CD_42 
REMARK       I    between atoms: CD_42  and  NE2_44 
REMARK   30  A    between atoms: N_45  and  CA_46 
REMARK   31  A    between atoms: CA_46  and  C_47 
REMARK   32  A    between atoms: CA_46  and  CB_49 
REMARK       I    between atoms: C_47  and  N_52 
REMARK   33  A    between atoms: CB_49  and  OG1_50 
REMARK   34  A    between atoms: CB_49  and  CG2_51 
REMARK   35  A    between atoms: N_52  and  CA_53 
REMARK   36  A    between atoms: CA_53  and  C_54 
REMARK   37  A    between atoms: CA_53  and  CB_56 
ROOT
ATOM      1  CA  M3L d   1      25.399   7.240  39.505  0.00  0.00     0.089 C 
ATOM      2  H29 M3L d   1      24.389   7.557  39.804  0.00  0.00     0.087 H 
ENDROOT
BRANCH   1   3
ATOM      3  N   M3L d   1      26.333   7.915  40.373  0.00  0.00    -0.346 N 
ATOM      4  C   THR d   1      26.064   9.080  40.950  0.00  0.00     0.243 C 
ATOM      5  O   THR d   1      25.032   9.714  40.737  0.00  0.00    -0.271 OA
ATOM      6  H28 M3L d   1      27.220   7.487  40.547  0.00  0.00     0.163 HD
BRANCH   4   7
ATOM      7  CA  THR d   1      27.131   9.614  41.897  0.00  0.00     0.113 C 
ATOM      8  H22 THR d   1      28.120   9.451  41.444  0.00  0.00     0.091 H 
BRANCH   7   9
ATOM      9  N   THR d   1      26.946  11.039  42.093  0.00  0.00    -0.344 N 
ATOM     10  C   ARG d   1      27.939  11.899  41.933  0.00  0.00     0.241 C 
ATOM     11  O   ARG d   1      29.086  11.559  41.609  0.00  0.00    -0.271 OA
ATOM     12  H21 THR d   1      26.044  11.381  42.356  0.00  0.00     0.163 HD
BRANCH  10  13
ATOM     13  CA  ARG d   1      27.604  13.360  42.180  0.00  0.00     0.089 C 
ATOM     14  H9  ARG d   1      26.538  13.445  42.438  0.00  0.00     0.087 H 
BRANCH  13  15
ATOM     15  N   ARG d   1      28.407  13.832  43.297  0.00  0.00    -0.346 N 
ATOM     16  C   ALA d   1      27.961  13.787  44.543  0.00  0.00     0.248 C 
ATOM     17  O   ALA d   1      26.828  13.396  44.836  0.00  0.00    -0.271 OA
ATOM     18  H8  ARG d   1      29.320  14.200  43.119  0.00  0.00     0.163 HD
BRANCH  16  19
ATOM     19  CA  ALA d   1      28.927  14.253  45.610  0.00  0.00     0.172 C 
ATOM     20  H4  ALA d   1      29.413  15.180  45.272  0.00  0.00     0.098 H 
BRANCH  19  21
ATOM     21  N   ALA d   1      28.191  14.523  46.836  0.00  0.00    -0.067 N 
ATOM     22  H1  ALA d   1      28.831  14.834  47.550  0.00  0.00     0.275 HD
ATOM     23  H2  ALA d   1      27.728  13.681  47.142  0.00  0.00     0.275 HD
ATOM     24  H3  ALA d   1      27.504  15.241  46.664  0.00  0.00     0.275 HD
ENDBRANCH  19  21
BRANCH  19  25
ATOM     25  CB  ALA d   1      29.991  13.208  45.857  0.00  0.00    -0.042 C 
ATOM     26  H5  ALA d   1      30.538  13.014  44.923  0.00  0.00     0.030 H 
ATOM     27  H6  ALA d   1      29.518  12.278  46.204  0.00  0.00     0.030 H 
ATOM     28  H7  ALA d   1      30.691  13.572  46.624  0.00  0.00     0.030 H 
ENDBRANCH  19  25
ENDBRANCH  16  19
ENDBRANCH  13  15
BRANCH  13  29
ATOM     29  CB  ARG d   1      27.877  14.208  40.943  0.00  0.00    -0.036 C 
ATOM     30  H10 ARG d   1      27.427  13.714  40.069  0.00  0.00     0.036 H 
ATOM     31  H11 ARG d   1      28.965  14.286  40.801  0.00  0.00     0.036 H 
BRANCH  29  32
ATOM     32  CG  ARG d   1      27.299  15.605  41.065  0.00  0.00    -0.048 C 
ATOM     33  H12 ARG d   1      27.667  16.062  41.995  0.00  0.00     0.035 H 
ATOM     34  H13 ARG d   1      26.202  15.535  41.099  0.00  0.00     0.035 H 
BRANCH  32  35
ATOM     35  CD  ARG d   1      27.697  16.481  39.898  0.00  0.00     0.009 C 
ATOM     36  H14 ARG d   1      27.298  17.494  40.058  0.00  0.00     0.064 H 
ATOM     37  H15 ARG d   1      27.273  16.061  38.974  0.00  0.00     0.064 H 
BRANCH  35  38
ATOM     38  NE  ARG d   1      29.147  16.558  39.763  0.00  0.00    -0.227 N 
ATOM     39  CZ  ARG d   1      29.838  16.059  38.747  0.00  0.00     0.665 C 
ATOM     40  NH1 ARG d   1      29.213  15.450  37.746  0.00  0.00    -0.235 N 
ATOM     41  NH2 ARG d   1      31.156  16.182  38.727  0.00  0.00    -0.235 N 
ATOM     42  H17 ARG d   1      29.755  15.064  36.959  0.00  0.00     0.174 HD
ATOM     43  H18 ARG d   1      28.187  15.363  37.756  0.00  0.00     0.174 HD
ATOM     44  H19 ARG d   1      31.641  16.654  39.503  0.00  0.00     0.174 HD
ATOM     45  H20 ARG d   1      31.696  15.805  37.935  0.00  0.00     0.174 HD
ATOM     46  H16 ARG d   1      29.672  17.034  40.510  0.00  0.00     0.177 HD
ENDBRANCH  35  38
ENDBRANCH  32  35
ENDBRANCH  29  32
ENDBRANCH  13  29
ENDBRANCH  10  13
ENDBRANCH   7   9
BRANCH   7  47
ATOM     47  CB  THR d   1      27.075   8.848  43.234  0.00  0.00     0.060 C 
ATOM     48  H23 THR d   1      27.267   7.782  43.041  0.00  0.00     0.086 H 
BRANCH  47  49
ATOM     49  OG1 THR d   1      25.775   8.995  43.819  0.00  0.00    -0.393 OA
ATOM     50  H24 THR d   1      25.121   8.644  43.226  0.00  0.00     0.210 HD
ENDBRANCH  47  49
BRANCH  47  51
ATOM     51  CG2 THR d   1      28.123   9.372  44.211  0.00  0.00    -0.050 C 
ATOM     52  H25 THR d   1      28.060   8.808  45.154  0.00  0.00     0.031 H 
ATOM     53  H26 THR d   1      27.939  10.438  44.408  0.00  0.00     0.031 H 
ATOM     54  H27 THR d   1      29.125   9.247  43.776  0.00  0.00     0.031 H 
ENDBRANCH  47  51
ENDBRANCH   7  47
ENDBRANCH   4   7
ENDBRANCH   1   3
BRANCH   1  55
ATOM     55  CB  M3L d   1      25.567   7.585  38.009  0.00  0.00    -0.038 C 
ATOM     56  H30 M3L d   1      25.456   8.672  37.882  0.00  0.00     0.036 H 
ATOM     57  H31 M3L d   1      24.784   7.067  37.436  0.00  0.00     0.036 H 
BRANCH  55  58
ATOM     58  CG  M3L d   1      26.918   7.168  37.472  0.00  0.00    -0.061 C 
ATOM     59  H32 M3L d   1      27.187   6.193  37.904  0.00  0.00     0.033 H 
ATOM     60  H33 M3L d   1      27.665   7.919  37.768  0.00  0.00     0.033 H 
BRANCH  58  61
ATOM     61  CD  M3L d   1      26.915   7.049  35.952  0.00  0.00    -0.042 C 
ATOM     62  H34 M3L d   1      25.937   6.675  35.614  0.00  0.00     0.035 H 
ATOM     63  H35 M3L d   1      27.704   6.351  35.635  0.00  0.00     0.035 H 
BRANCH  61  64
ATOM     64  CE  M3L d   1      27.174   8.420  35.346  0.00  0.00     0.084 C 
ATOM     65  H36 M3L d   1      27.979   8.888  35.931  0.00  0.00     0.076 H 
ATOM     66  H37 M3L d   1      26.250   9.006  35.459  0.00  0.00     0.076 H 
BRANCH  64  67
ATOM     67  NZ  M3L d   1      27.578   8.495  33.884  0.00  0.00    -0.079 N 
BRANCH  67  68
ATOM     68  CM1 M3L d   1      27.753   9.925  33.497  0.00  0.00     0.067 C 
ATOM     69  H38 M3L d   1      28.046   9.985  32.438  0.00  0.00     0.068 H 
ATOM     70  H39 M3L d   1      28.536  10.380  34.120  0.00  0.00     0.068 H 
ATOM     71  H40 M3L d   1      26.806  10.464  33.647  0.00  0.00     0.068 H 
ENDBRANCH  67  68
BRANCH  67  72
ATOM     72  CM2 M3L d   1      26.562   7.868  32.989  0.00  0.00     0.067 C 
ATOM     73  H41 M3L d   1      26.428   6.813  33.269  0.00  0.00     0.068 H 
ATOM     74  H42 M3L d   1      26.905   7.930  31.945  0.00  0.00     0.068 H 
ATOM     75  H43 M3L d   1      25.604   8.399  33.093  0.00  0.00     0.068 H 
ENDBRANCH  67  72
BRANCH  67  76
ATOM     76  CM3 M3L d   1      28.882   7.788  33.671  0.00  0.00     0.067 C 
ATOM     77  H44 M3L d   1      29.650   8.232  34.321  0.00  0.00     0.068 H 
ATOM     78  H45 M3L d   1      29.187   7.891  32.619  0.00  0.00     0.068 H 
ATOM     79  H46 M3L d   1      28.766   6.722  33.917  0.00  0.00     0.068 H 
ENDBRANCH  67  76
ENDBRANCH  64  67
ENDBRANCH  61  64
ENDBRANCH  58  61
ENDBRANCH  55  58
ENDBRANCH   1  55
BRANCH   1  80
ATOM     80  C   M3L d   1      25.498   5.726  39.695  0.00  0.00     0.241 C 
ATOM     81  O   M3L d   1      26.523   5.180  40.113  0.00  0.00    -0.271 OA
ATOM     82  N   GLN d   1      24.399   5.038  39.386  0.00  0.00    -0.346 N 
ATOM     83  H47 GLN d   1      23.606   5.535  39.033  0.00  0.00     0.163 HD
BRANCH  82  84
ATOM     84  CA  GLN d   1      24.304   3.581  39.543  0.00  0.00     0.090 C 
ATOM     85  H48 GLN d   1      25.229   3.119  39.167  0.00  0.00     0.087 H 
BRANCH  84  86
ATOM     86  C   GLN d   1      23.115   3.041  38.750  0.00  0.00     0.241 C 
ATOM     87  O   GLN d   1      22.061   3.669  38.721  0.00  0.00    -0.271 OA
ATOM     88  N   THR d   1      23.278   1.874  38.122  0.00  0.00    -0.344 N 
ATOM     89  H55 THR d   1      24.171   1.425  38.161  0.00  0.00     0.163 HD
BRANCH  88  90
ATOM     90  CA  THR d   1      22.197   1.230  37.379  0.00  0.00     0.113 C 
ATOM     91  H56 THR d   1      21.235   1.604  37.759  0.00  0.00     0.091 H 
BRANCH  90  92
ATOM     92  C   THR d   1      22.265  -0.274  37.593  0.00  0.00     0.243 C 
ATOM     93  O   THR d   1      23.304  -0.893  37.339  0.00  0.00    -0.271 OA
ATOM     94  N   ALA d   1      21.159  -0.861  38.042  0.00  0.00    -0.345 N 
ATOM     95  H62 ALA d   1      20.371  -0.297  38.289  0.00  0.00     0.163 HD
BRANCH  94  96
ATOM     96  CA  ALA d   1      21.071  -2.310  38.182  0.00  0.00     0.093 C 
ATOM     97  H63 ALA d   1      22.020  -2.682  38.595  0.00  0.00     0.089 H 
BRANCH  96  98
ATOM     98  C   ALA d   1      20.849  -2.950  36.817  0.00  0.00     0.196 C 
ATOM     99  O   ALA d   1      20.074  -2.443  36.004  0.00  0.00    -0.646 OA
ATOM    100  OXT ALA d   1      21.441  -3.985  36.505  0.00  0.00    -0.646 OA
ENDBRANCH  96  98
BRANCH  96 101
ATOM    101  CB  ALA d   1      19.947  -2.688  39.137  0.00  0.00    -0.048 C 
ATOM    102  H64 ALA d   1      19.897  -3.783  39.229  0.00  0.00     0.030 H 
ATOM    103  H65 ALA d   1      18.991  -2.309  38.747  0.00  0.00     0.030 H 
ATOM    104  H66 ALA d   1      20.141  -2.245  40.125  0.00  0.00     0.030 H 
ENDBRANCH  96 101
ENDBRANCH  94  96
ENDBRANCH  90  92
BRANCH  90 105
ATOM    105  CB  THR d   1      22.288   1.540  35.882  0.00  0.00     0.060 C 
ATOM    106  H57 THR d   1      23.195   1.071  35.472  0.00  0.00     0.086 H 
BRANCH 105 107
ATOM    107  OG1 THR d   1      22.357   2.958  35.685  0.00  0.00    -0.393 OA
ATOM    108  H58 THR d   1      23.126   3.301  36.125  0.00  0.00     0.210 HD
ENDBRANCH 105 107
BRANCH 105 109
ATOM    109  CG2 THR d   1      21.069   0.992  35.156  0.00  0.00    -0.050 C 
ATOM    110  H59 THR d   1      21.147   1.222  34.083  0.00  0.00     0.031 H 
ATOM    111  H60 THR d   1      20.159   1.456  35.565  0.00  0.00     0.031 H 
ATOM    112  H61 THR d   1      21.019  -0.098  35.295  0.00  0.00     0.031 H 
ENDBRANCH 105 109
ENDBRANCH  90 105
ENDBRANCH  88  90
ENDBRANCH  84  86
BRANCH  84 113
ATOM    113  CB  GLN d   1      24.127   3.225  41.026  0.00  0.00    -0.030 C 
ATOM    114  H49 GLN d   1      23.137   3.584  41.345  0.00  0.00     0.037 H 
ATOM    115  H50 GLN d   1      24.908   3.750  41.596  0.00  0.00     0.037 H 
BRANCH 113 116
ATOM    116  CG  GLN d   1      24.219   1.734  41.363  0.00  0.00     0.011 C 
ATOM    117  H51 GLN d   1      24.480   1.634  42.427  0.00  0.00     0.047 H 
ATOM    118  H52 GLN d   1      25.013   1.287  40.747  0.00  0.00     0.047 H 
BRANCH 116 119
ATOM    119  CD  GLN d   1      22.928   0.969  41.111  0.00  0.00     0.215 C 
ATOM    120  OE1 GLN d   1      21.829   1.467  41.362  0.00  0.00    -0.274 OA
ATOM    121  NE2 GLN d   1      23.059  -0.250  40.603  0.00  0.00    -0.370 N 
ATOM    122  H53 GLN d   1      22.247  -0.803  40.415  0.00  0.00     0.159 HD
ATOM    123  H54 GLN d   1      23.969  -0.615  40.408  0.00  0.00     0.159 HD
ENDBRANCH 116 119
ENDBRANCH 113 116
ENDBRANCH  84 113
ENDBRANCH  82  84
ENDBRANCH   1  80
TORSDOF 37
