REMARK  3 active torsions:
REMARK  status: ('A' for Active; 'I' for Inactive)
REMARK       I    between atoms: C12_2  and  N3_3 
REMARK    1  A    between atoms: C12_2  and  C5_4 
REMARK    2  A    between atoms: C1_12  and  C6_13 
REMARK    3  A    between atoms: C8_17  and  C13_18 
ROOT
ATOM      1  C5  CU8 d   1      60.632 -30.921  37.345  0.00  0.00     0.098 A 
ATOM      2  C   CU8 d   1      61.458 -30.704  36.167  0.00  0.00     0.168 A 
ATOM      3  N   CU8 d   1      60.629 -30.166  35.359  0.00  0.00    -0.214 N 
ATOM      4  N2  CU8 d   1      59.371 -30.001  35.855  0.00  0.00    -0.177 NA
ATOM      5  C4  CU8 d   1      59.371 -30.471  37.088  0.00  0.00     0.041 A 
ATOM      6  N1  CU8 d   1      62.733 -30.975  35.905  0.00  0.00    -0.240 NA
ATOM      7  C3  CU8 d   1      63.228 -30.651  34.734  0.00  0.00     0.007 A 
ATOM      8  C2  CU8 d   1      62.368 -30.061  33.835  0.00  0.00    -0.037 A 
ATOM      9  C1  CU8 d   1      61.055 -29.827  34.160  0.00  0.00     0.072 A 
ATOM     10  H3  CU8 d   1      58.523 -30.495  37.772  0.00  0.00     0.119 H 
ATOM     11  H4  CU8 d   1      64.271 -30.840  34.484  0.00  0.00     0.114 H 
ATOM     12  H5  CU8 d   1      62.735 -29.775  32.850  0.00  0.00     0.089 H 
ENDROOT
BRANCH   9  13
ATOM     13  C6  CU8 d   1      60.152 -29.181  33.193  0.00  0.00    -0.007 A 
ATOM     14  C10 CU8 d   1      59.408 -28.113  33.618  0.00  0.00    -0.071 A 
ATOM     15  C11 CU8 d   1      58.540 -27.459  32.791  0.00  0.00    -0.082 A 
ATOM     16  H6  CU8 d   1      59.511 -27.776  34.643  0.00  0.00     0.084 H 
ATOM     17  C9  CU8 d   1      58.435 -27.857  31.500  0.00  0.00    -0.077 A 
ATOM     18  H7  CU8 d   1      57.944 -26.633  33.162  0.00  0.00     0.083 H 
ATOM     19  C8  CU8 d   1      59.176 -28.902  31.047  0.00  0.00    -0.061 A 
ATOM     20  H8  CU8 d   1      57.759 -27.341  30.828  0.00  0.00     0.084 H 
ATOM     21  C7  CU8 d   1      60.041 -29.571  31.882  0.00  0.00    -0.065 A 
ATOM     22  H12 CU8 d   1      60.630 -30.400  31.507  0.00  0.00     0.085 H 
BRANCH  19  23
ATOM     23  C13 CU8 d   1      59.029 -29.301  29.624  0.00  0.00    -0.051 C 
ATOM     24  H9  CU8 d   1      59.689 -30.155  29.413  0.00  0.00     0.033 H 
ATOM     25  H10 CU8 d   1      59.304 -28.456  28.976  0.00  0.00     0.033 H 
ATOM     26  H11 CU8 d   1      57.985 -29.588  29.430  0.00  0.00     0.033 H 
ENDBRANCH  19  23
ENDBRANCH   9  13
BRANCH   1  27
ATOM     27  C12 CU8 d   1      61.232 -31.525  38.533  0.00  0.00     0.254 C 
ATOM     28  O   CU8 d   1      60.534 -31.833  39.422  0.00  0.00    -0.268 OA
ATOM     29  N3  CU8 d   1      62.509 -31.671  38.629  0.00  0.00    -0.366 N 
ATOM     30  H1  CU8 d   1      63.101 -31.407  37.868  0.00  0.00     0.159 HD
ATOM     31  H2  CU8 d   1      62.908 -32.048  39.465  0.00  0.00     0.159 HD
ENDBRANCH   1  27
TORSDOF 3
