REMARK  4 active torsions:
REMARK  status: ('A' for Active; 'I' for Inactive)
REMARK    1  A    between atoms: O1_1  and  C8_2 
REMARK    2  A    between atoms: C7_3  and  C11_4 
REMARK    3  A    between atoms: C5_8  and  C2_9 
REMARK    4  A    between atoms: C15_16  and  O_17 
ROOT
ATOM      1  C2  7VF d   1      61.389 -29.648  34.000  0.00  0.00    -0.012 A 
ATOM      2  C3  7VF d   1      62.675 -29.864  33.544  0.00  0.00    -0.054 A 
ATOM      3  C4  7VF d   1      63.602 -30.601  34.328  0.00  0.00     0.004 A 
ATOM      4  N   7VF d   1      63.321 -31.135  35.522  0.00  0.00    -0.260 NA
ATOM      5  C   7VF d   1      61.058 -30.236  35.316  0.00  0.00     0.004 A 
ATOM      6  C12 7VF d   1      59.793 -30.125  35.863  0.00  0.00    -0.067 A 
ATOM      7  C13 7VF d   1      59.497 -30.663  37.087  0.00  0.00    -0.050 A 
ATOM      8  C15 7VF d   1      60.490 -31.326  37.797  0.00  0.00     0.068 A 
ATOM      9  C14 7VF d   1      61.771 -31.486  37.318  0.00  0.00    -0.022 A 
ATOM     10  C1  7VF d   1      62.096 -30.970  36.070  0.00  0.00     0.070 A 
ATOM     11  H8  7VF d   1      62.979 -29.468  32.581  0.00  0.00     0.087 H 
ATOM     12  H9  7VF d   1      64.602 -30.740  33.933  0.00  0.00     0.114 H 
ATOM     13  H10 7VF d   1      59.020 -29.602  35.312  0.00  0.00     0.085 H 
ATOM     14  H11 7VF d   1      58.498 -30.572  37.498  0.00  0.00     0.087 H 
ATOM     15  H13 7VF d   1      62.516 -32.008  37.907  0.00  0.00     0.091 H 
ENDROOT
BRANCH   1  16
ATOM     16  C5  7VF d   1      60.371 -28.912  33.188  0.00  0.00    -0.024 A 
ATOM     17  C6  7VF d   1      60.129 -29.251  31.845  0.00  0.00    -0.064 A 
ATOM     18  C7  7VF d   1      59.190 -28.538  31.079  0.00  0.00    -0.028 A 
ATOM     19  H5  7VF d   1      60.673 -30.073  31.394  0.00  0.00     0.085 H 
ATOM     20  C8  7VF d   1      58.422 -27.482  31.723  0.00  0.00     0.071 A 
ATOM     21  C10 7VF d   1      58.708 -27.136  33.066  0.00  0.00    -0.050 A 
ATOM     22  C9  7VF d   1      59.673 -27.854  33.785  0.00  0.00    -0.070 A 
ATOM     23  H6  7VF d   1      58.180 -26.315  33.538  0.00  0.00     0.087 H 
ATOM     24  H7  7VF d   1      59.882 -27.588  34.815  0.00  0.00     0.085 H 
BRANCH  18  25
ATOM     25  C11 7VF d   1      58.895 -28.868  29.639  0.00  0.00    -0.049 C 
ATOM     26  H2  7VF d   1      59.557 -29.681  29.306  0.00  0.00     0.033 H 
ATOM     27  H3  7VF d   1      59.066 -27.978  29.016  0.00  0.00     0.033 H 
ATOM     28  H4  7VF d   1      57.846 -29.186  29.543  0.00  0.00     0.033 H 
ENDBRANCH  18  25
BRANCH  20  29
ATOM     29  O1  7VF d   1      57.534 -26.802  30.986  0.00  0.00    -0.360 OA
ATOM     30  H1  7VF d   1      57.108 -26.149  31.528  0.00  0.00     0.217 HD
ENDBRANCH  20  29
ENDBRANCH   1  16
BRANCH   8  31
ATOM     31  O   7VF d   1      60.091 -31.774  38.997  0.00  0.00    -0.361 OA
ATOM     32  H12 7VF d   1      60.815 -32.215  39.426  0.00  0.00     0.217 HD
ENDBRANCH   8  31
TORSDOF 4
