REMARK  18 active torsions:
REMARK  status: ('A' for Active; 'I' for Inactive)
REMARK    1  A    between atoms: C_1  and  CH3_3 
REMARK       I    between atoms: C_1  and  N_4 
REMARK    2  A    between atoms: N_4  and  CA_5 
REMARK    3  A    between atoms: CA_5  and  C_6 
REMARK    4  A    between atoms: CA_5  and  CB_8 
REMARK       I    between atoms: C_6  and  N_13 
REMARK    5  A    between atoms: CB_8  and  CG_9 
REMARK    6  A    between atoms: CG_9  and  CD_10 
REMARK    7  A    between atoms: N_13  and  CA_14 
REMARK    8  A    between atoms: CA_14  and  C_15 
REMARK    9  A    between atoms: CA_14  and  CB_17 
REMARK       I    between atoms: C_15  and  N_27 
REMARK   10  A    between atoms: CB_17  and  CG_18 
REMARK   11  A    between atoms: N_27  and  CA_28 
REMARK   12  A    between atoms: CA_28  and  C_29 
REMARK   13  A    between atoms: CA_28  and  CB_31 
REMARK       I    between atoms: C_29  and  N_41 
REMARK   14  A    between atoms: CB_31  and  CG_32 
REMARK   15  A    between atoms: N_41  and  CA_42 
REMARK   16  A    between atoms: CA_42  and  C_43 
REMARK   17  A    between atoms: CA_42  and  CB_45 
REMARK   18  A    between atoms: CB_45  and  CG_46 
ROOT
ATOM      1  C   TRP d   1     -11.890  18.673  -0.102  0.00  0.00     0.241 C 
ATOM      2  O   TRP d   1     -12.712  19.317  -0.714  0.00  0.00    -0.271 OA
ATOM      3  N   TRP d   1     -10.630  19.051   0.025  0.00  0.00    -0.346 N 
ATOM      4  H20 TRP d   1      -9.958  18.366   0.306  0.00  0.00     0.163 HD
ENDROOT
BRANCH   3   5
ATOM      5  CA  TRP d   1     -10.164  20.410  -0.221  0.00  0.00     0.093 C 
ATOM      6  H21 TRP d   1     -11.002  21.091  -0.012  0.00  0.00     0.088 H 
BRANCH   5   7
ATOM      7  C   TRP d   1      -9.712  20.675  -1.651  0.00  0.00     0.241 C 
ATOM      8  O   TRP d   1      -9.042  21.668  -1.894  0.00  0.00    -0.271 OA
ATOM      9  N   TRP d   1     -10.067  19.785  -2.585  0.00  0.00    -0.344 N 
ATOM     10  H30 TRP d   1     -10.447  18.909  -2.287  0.00  0.00     0.163 HD
BRANCH   9  11
ATOM     11  CA  TRP d   1      -9.925  20.032  -4.032  0.00  0.00     0.100 C 
ATOM     12  H31 TRP d   1     -10.204  21.082  -4.205  0.00  0.00     0.090 H 
BRANCH  11  13
ATOM     13  C   TRP d   1     -10.859  19.174  -4.849  0.00  0.00     0.197 C 
ATOM     14  O   TRP d   1     -11.011  19.404  -6.066  0.00  0.00    -0.646 OA
ATOM     15  OXT TRP d   1     -11.474  18.247  -4.298  0.00  0.00    -0.646 OA
ENDBRANCH  11  13
BRANCH  11  16
ATOM     16  CB  TRP d   1      -8.484  19.853  -4.535  0.00  0.00    -0.011 C 
ATOM     17  H32 TRP d   1      -7.875  20.624  -4.040  0.00  0.00     0.044 H 
ATOM     18  H33 TRP d   1      -8.499  20.038  -5.619  0.00  0.00     0.044 H 
BRANCH  16  19
ATOM     19  CG  TRP d   1      -7.774  18.532  -4.326  0.00  0.00    -0.028 A 
ATOM     20  CD1 TRP d   1      -7.838  17.699  -3.238  0.00  0.00    -0.015 A 
ATOM     21  NE1 TRP d   1      -6.987  16.641  -3.403  0.00  0.00    -0.365 N 
ATOM     22  H34 TRP d   1      -8.474  17.857  -2.369  0.00  0.00     0.112 H 
ATOM     23  CE2 TRP d   1      -6.326  16.774  -4.592  0.00  0.00     0.042 A 
ATOM     24  H35 TRP d   1      -6.864  15.866  -2.736  0.00  0.00     0.165 HD
ATOM     25  CD2 TRP d   1      -6.791  17.951  -5.204  0.00  0.00    -0.002 A 
ATOM     26  CZ2 TRP d   1      -5.370  15.940  -5.192  0.00  0.00    -0.056 A 
ATOM     27  CE3 TRP d   1      -6.276  18.311  -6.456  0.00  0.00    -0.070 A 
ATOM     28  CZ3 TRP d   1      -5.303  17.503  -7.046  0.00  0.00    -0.082 A 
ATOM     29  H36 TRP d   1      -6.628  19.204  -6.959  0.00  0.00     0.084 H 
ATOM     30  CH2 TRP d   1      -4.866  16.320  -6.417  0.00  0.00    -0.081 A 
ATOM     31  H38 TRP d   1      -4.878  17.789  -8.001  0.00  0.00     0.083 H 
ATOM     32  H39 TRP d   1      -4.122  15.700  -6.904  0.00  0.00     0.083 H 
ATOM     33  H37 TRP d   1      -5.039  15.028  -4.708  0.00  0.00     0.086 H 
ENDBRANCH  16  19
ENDBRANCH  11  16
ENDBRANCH   9  11
ENDBRANCH   5   7
BRANCH   5  34
ATOM     34  CB  TRP d   1      -9.028  20.726   0.756  0.00  0.00    -0.012 C 
ATOM     35  H22 TRP d   1      -9.436  20.712   1.777  0.00  0.00     0.044 H 
ATOM     36  H23 TRP d   1      -8.645  21.731   0.527  0.00  0.00     0.044 H 
BRANCH  34  37
ATOM     37  CG  TRP d   1      -7.908  19.780   0.694  0.00  0.00    -0.028 A 
ATOM     38  CD1 TRP d   1      -6.934  19.717  -0.261  0.00  0.00    -0.015 A 
ATOM     39  NE1 TRP d   1      -6.065  18.688   0.020  0.00  0.00    -0.365 N 
ATOM     40  H24 TRP d   1      -6.856  20.383  -1.119  0.00  0.00     0.112 H 
ATOM     41  CE2 TRP d   1      -6.490  18.056   1.160  0.00  0.00     0.042 A 
ATOM     42  H25 TRP d   1      -5.234  18.435  -0.533  0.00  0.00     0.165 HD
ATOM     43  CD2 TRP d   1      -7.653  18.716   1.603  0.00  0.00    -0.002 A 
ATOM     44  CZ2 TRP d   1      -5.949  16.970   1.839  0.00  0.00    -0.056 A 
ATOM     45  CE3 TRP d   1      -8.291  18.256   2.751  0.00  0.00    -0.070 A 
ATOM     46  CZ3 TRP d   1      -7.748  17.178   3.434  0.00  0.00    -0.082 A 
ATOM     47  H26 TRP d   1      -9.198  18.733   3.106  0.00  0.00     0.084 H 
ATOM     48  CH2 TRP d   1      -6.589  16.552   2.983  0.00  0.00    -0.081 A 
ATOM     49  H28 TRP d   1      -8.234  16.817   4.333  0.00  0.00     0.083 H 
ATOM     50  H29 TRP d   1      -6.183  15.719   3.545  0.00  0.00     0.083 H 
ATOM     51  H27 TRP d   1      -5.056  16.471   1.480  0.00  0.00     0.086 H 
ENDBRANCH  34  37
ENDBRANCH   5  34
ENDBRANCH   3   5
BRANCH   1  52
ATOM     52  CA  TRP d   1     -12.250  17.348   0.525  0.00  0.00     0.093 C 
ATOM     53  H11 TRP d   1     -12.818  16.762  -0.212  0.00  0.00     0.088 H 
BRANCH  52  54
ATOM     54  N   TRP d   1     -11.061  16.554   0.915  0.00  0.00    -0.346 N 
ATOM     55  C   GLU d   1     -10.290  15.924   0.029  0.00  0.00     0.241 C 
ATOM     56  O   GLU d   1     -10.467  15.992  -1.183  0.00  0.00    -0.271 OA
ATOM     57  H10 TRP d   1     -10.827  16.488   1.885  0.00  0.00     0.163 HD
BRANCH  55  58
ATOM     58  CA  GLU d   1      -9.177  15.047   0.608  0.00  0.00     0.090 C 
ATOM     59  H5  GLU d   1      -8.701  15.540   1.468  0.00  0.00     0.087 H 
BRANCH  58  60
ATOM     60  N   GLU d   1      -9.909  13.827   1.039  0.00  0.00    -0.348 N 
ATOM     61  C   ACE d   1     -10.217  13.597   2.304  0.00  0.00     0.214 C 
ATOM     62  O   ACE d   1     -10.246  14.460   3.157  0.00  0.00    -0.274 OA
ATOM     63  H4  GLU d   1     -10.178  13.156   0.348  0.00  0.00     0.163 HD
BRANCH  61  64
ATOM     64  CH3 ACE d   1     -10.738  12.216   2.612  0.00  0.00    -0.003 C 
ATOM     65  H1  ACE d   1     -10.630  11.577   1.724  0.00  0.00     0.040 H 
ATOM     66  H2  ACE d   1     -11.800  12.279   2.891  0.00  0.00     0.040 H 
ATOM     67  H3  ACE d   1     -10.164  11.785   3.446  0.00  0.00     0.040 H 
ENDBRANCH  61  64
ENDBRANCH  58  60
BRANCH  58  68
ATOM     68  CB  GLU d   1      -8.111  14.724  -0.429  0.00  0.00    -0.029 C 
ATOM     69  H6  GLU d   1      -7.730  15.671  -0.840  0.00  0.00     0.037 H 
ATOM     70  H7  GLU d   1      -8.578  14.137  -1.234  0.00  0.00     0.037 H 
BRANCH  68  71
ATOM     71  CG  GLU d   1      -6.943  13.939   0.114  0.00  0.00     0.018 C 
ATOM     72  H8  GLU d   1      -7.325  13.001   0.544  0.00  0.00     0.049 H 
ATOM     73  H9  GLU d   1      -6.461  14.535   0.903  0.00  0.00     0.049 H 
BRANCH  71  74
ATOM     74  CD  GLU d   1      -5.903  13.598  -0.928  0.00  0.00     0.172 C 
ATOM     75  OE1 GLU d   1      -5.717  14.367  -1.899  0.00  0.00    -0.648 OA
ATOM     76  OE2 GLU d   1      -5.276  12.526  -0.789  0.00  0.00    -0.648 OA
ENDBRANCH  71  74
ENDBRANCH  68  71
ENDBRANCH  58  68
ENDBRANCH  55  58
ENDBRANCH  52  54
BRANCH  52  77
ATOM     77  CB  TRP d   1     -13.148  17.610   1.738  0.00  0.00    -0.012 C 
ATOM     78  H12 TRP d   1     -13.559  16.652   2.089  0.00  0.00     0.044 H 
ATOM     79  H13 TRP d   1     -13.972  18.272   1.433  0.00  0.00     0.044 H 
BRANCH  77  80
ATOM     80  CG  TRP d   1     -12.406  18.252   2.857  0.00  0.00    -0.028 A 
ATOM     81  CD1 TRP d   1     -11.737  17.620   3.870  0.00  0.00    -0.015 A 
ATOM     82  NE1 TRP d   1     -11.129  18.535   4.673  0.00  0.00    -0.365 N 
ATOM     83  H14 TRP d   1     -11.697  16.541   4.013  0.00  0.00     0.112 H 
ATOM     84  CE2 TRP d   1     -11.402  19.792   4.200  0.00  0.00     0.042 A 
ATOM     85  H15 TRP d   1     -10.557  18.318   5.502  0.00  0.00     0.165 HD
ATOM     86  CD2 TRP d   1     -12.186  19.646   3.042  0.00  0.00    -0.002 A 
ATOM     87  CZ2 TRP d   1     -11.013  21.046   4.694  0.00  0.00    -0.056 A 
ATOM     88  CE3 TRP d   1     -12.588  20.789   2.350  0.00  0.00    -0.070 A 
ATOM     89  CZ3 TRP d   1     -12.187  22.045   2.840  0.00  0.00    -0.082 A 
ATOM     90  H16 TRP d   1     -13.195  20.711   1.456  0.00  0.00     0.084 H 
ATOM     91  CH2 TRP d   1     -11.415  22.156   4.005  0.00  0.00    -0.081 A 
ATOM     92  H18 TRP d   1     -12.480  22.943   2.308  0.00  0.00     0.083 H 
ATOM     93  H19 TRP d   1     -11.132  23.139   4.365  0.00  0.00     0.083 H 
ATOM     94  H17 TRP d   1     -10.413  21.132   5.593  0.00  0.00     0.086 H 
ENDBRANCH  77  80
ENDBRANCH  52  77
ENDBRANCH   1  52
TORSDOF 18
