REMARK  6 active torsions:
REMARK  status: ('A' for Active; 'I' for Inactive)
REMARK    1  A    between atoms: CAL_7  and  CAH_8 
REMARK    2  A    between atoms: NAI_18  and  CAM_19 
REMARK    3  A    between atoms: NAV_24  and  CAY_25 
REMARK    4  A    between atoms: CAY_25  and  CAZ_26 
REMARK    5  A    between atoms: CAZ_26  and  NBA_27 
REMARK    6  A    between atoms: CBF_37  and  CBG_38 
ROOT
ATOM      1  CAM JAY d   1      16.936 -16.613  12.337  0.00  0.00     0.020 C 
ATOM      2  CAT JAY d   1      15.959 -17.584  12.900  0.00  0.00    -0.023 C 
ATOM      3  CAU JAY d   1      14.583 -17.030  12.695  0.00  0.00     0.085 C 
ATOM      4  CAX JAY d   1      16.878 -15.337  13.173  0.00  0.00    -0.023 C 
ATOM      5  CAW JAY d   1      15.460 -14.710  13.123  0.00  0.00     0.085 C 
ATOM      6  NAV JAY d   1      14.402 -15.712  13.410  0.00  0.00    -0.069 N 
ATOM      7  H11 JAY d   1      16.663 -16.370  11.299  0.00  0.00     0.073 H 
ATOM      8  H12 JAY d   1      16.149 -17.723  13.975  0.00  0.00     0.038 H 
ATOM      9  H13 JAY d   1      16.053 -18.550  12.383  0.00  0.00     0.038 H 
ATOM     10  H14 JAY d   1      13.847 -17.750  13.082  0.00  0.00     0.076 H 
ATOM     11  H15 JAY d   1      14.416 -16.878  11.618  0.00  0.00     0.076 H 
ATOM     12  H16 JAY d   1      17.606 -14.614  12.778  0.00  0.00     0.038 H 
ATOM     13  H17 JAY d   1      17.129 -15.578  14.216  0.00  0.00     0.038 H 
ATOM     14  H18 JAY d   1      15.291 -14.292  12.120  0.00  0.00     0.076 H 
ATOM     15  H19 JAY d   1      15.400 -13.905  13.871  0.00  0.00     0.076 H 
ATOM     16  H20 JAY d   1      13.565 -15.331  12.997  0.00  0.00     0.279 HD
ENDROOT
BRANCH   6  17
ATOM     17  CAY JAY d   1      14.108 -15.756  14.854  0.00  0.00     0.098 C 
ATOM     18  H21 JAY d   1      15.051 -15.661  15.413  0.00  0.00     0.078 H 
ATOM     19  H22 JAY d   1      13.636 -16.720  15.092  0.00  0.00     0.078 H 
BRANCH  17  20
ATOM     20  CAZ JAY d   1      13.147 -14.602  15.283  0.00  0.00     0.023 C 
ATOM     21  H23 JAY d   1      13.028 -13.889  14.454  0.00  0.00     0.067 H 
ATOM     22  H24 JAY d   1      13.559 -14.081  16.160  0.00  0.00     0.067 H 
BRANCH  20  23
ATOM     23  NBA JAY d   1      11.814 -15.206  15.630  0.00  0.00    -0.321 N 
ATOM     24  CBB JAY d   1      11.452 -15.449  16.910  0.00  0.00     0.258 C 
ATOM     25  OBR JAY d   1      12.283 -15.187  17.802  0.00  0.00    -0.267 OA
ATOM     26  CBC JAY d   1      10.182 -16.049  17.174  0.00  0.00     0.058 A 
ATOM     27  CBN JAY d   1       9.746 -16.341  18.466  0.00  0.00    -0.066 A 
ATOM     28  CBD JAY d   1       9.348 -16.458  16.123  0.00  0.00     0.045 A 
ATOM     29  CBO JAY d   1       8.514 -16.997  18.720  0.00  0.00    -0.082 A 
ATOM     30  H25 JAY d   1      10.370 -16.057  19.305  0.00  0.00     0.085 H 
ATOM     31  CBP JAY d   1       7.684 -17.375  17.678  0.00  0.00    -0.081 A 
ATOM     32  H26 JAY d   1       8.219 -17.205  19.742  0.00  0.00     0.083 H 
ATOM     33  CBQ JAY d   1       8.126 -17.106  16.377  0.00  0.00    -0.056 A 
ATOM     34  H27 JAY d   1       6.732 -17.859  17.862  0.00  0.00     0.083 H 
ATOM     35  H28 JAY d   1       7.507 -17.407  15.539  0.00  0.00     0.086 H 
ATOM     36  NBE JAY d   1       9.734 -16.260  14.838  0.00  0.00    -0.364 N 
ATOM     37  CBF JAY d   1      10.857 -15.395  14.501  0.00  0.00     0.109 C 
ATOM     38  H29 JAY d   1       9.220 -16.733  14.081  0.00  0.00     0.162 HD
ATOM     39  H30 JAY d   1      11.399 -15.850  13.659  0.00  0.00     0.115 H 
BRANCH  37  40
ATOM     40  CBG JAY d   1      10.363 -14.096  14.100  0.00  0.00     0.022 A 
ATOM     41  CBH JAY d   1      10.279 -13.779  12.732  0.00  0.00     0.126 A 
ATOM     42  FBM JAY d   1      10.596 -14.592  11.953  0.00  0.00    -0.205 F 
ATOM     43  CBI JAY d   1       9.823 -12.551  12.246  0.00  0.00    -0.045 A 
ATOM     44  CBJ JAY d   1       9.437 -11.609  13.168  0.00  0.00    -0.080 A 
ATOM     45  H31 JAY d   1       9.776 -12.349  11.182  0.00  0.00     0.088 H 
ATOM     46  CBK JAY d   1       9.519 -11.892  14.533  0.00  0.00    -0.082 A 
ATOM     47  H32 JAY d   1       9.068 -10.645  12.836  0.00  0.00     0.083 H 
ATOM     48  CBL JAY d   1       9.986 -13.101  15.025  0.00  0.00    -0.070 A 
ATOM     49  H33 JAY d   1       9.204 -11.133  15.239  0.00  0.00     0.083 H 
ATOM     50  H34 JAY d   1      10.059 -13.277  16.092  0.00  0.00     0.084 H 
ENDBRANCH  37  40
ENDBRANCH  20  23
ENDBRANCH  17  20
ENDBRANCH   6  17
BRANCH   1  51
ATOM     51  NAI JAY d   1      18.307 -17.261  12.344  0.00  0.00    -0.317 N 
ATOM     52  CAH JAY d   1      18.951 -17.694  13.644  0.00  0.00     0.110 C 
ATOM     53  NAG JAY d   1      19.810 -18.887  13.461  0.00  0.00    -0.364 N 
ATOM     54  H5  JAY d   1      18.154 -17.941  14.361  0.00  0.00     0.115 H 
ATOM     55  CAE JAY d   1      20.568 -18.940  12.334  0.00  0.00     0.045 A 
ATOM     56  H6  JAY d   1      19.832 -19.645  14.159  0.00  0.00     0.162 HD
ATOM     57  CAD JAY d   1      21.672 -19.732  12.366  0.00  0.00    -0.056 A 
ATOM     58  CAF JAY d   1      20.225 -18.180  11.241  0.00  0.00     0.058 A 
ATOM     59  CAC JAY d   1      22.489 -19.826  11.270  0.00  0.00    -0.081 A 
ATOM     60  H7  JAY d   1      21.907 -20.292  13.264  0.00  0.00     0.086 H 
ATOM     61  CAB JAY d   1      22.162 -19.081  10.169  0.00  0.00    -0.082 A 
ATOM     62  H8  JAY d   1      23.363 -20.467  11.275  0.00  0.00     0.083 H 
ATOM     63  CAA JAY d   1      21.035 -18.295  10.127  0.00  0.00    -0.066 A 
ATOM     64  H9  JAY d   1      22.813 -19.112   9.303  0.00  0.00     0.083 H 
ATOM     65  H10 JAY d   1      20.781 -17.764   9.217  0.00  0.00     0.085 H 
ATOM     66  CAJ JAY d   1      19.015 -17.395  11.208  0.00  0.00     0.258 C 
ATOM     67  OAK JAY d   1      18.448 -17.073  10.126  0.00  0.00    -0.267 OA
BRANCH  52  68
ATOM     68  CAL JAY d   1      19.740 -16.637  14.174  0.00  0.00     0.022 A 
ATOM     69  CAN JAY d   1      19.951 -16.585  15.534  0.00  0.00     0.126 A 
ATOM     70  FAS JAY d   1      19.473 -17.491  16.282  0.00  0.00    -0.205 F 
ATOM     71  CAO JAY d   1      20.693 -15.551  16.116  0.00  0.00    -0.045 A 
ATOM     72  CAP JAY d   1      21.268 -14.542  15.353  0.00  0.00    -0.080 A 
ATOM     73  H1  JAY d   1      20.823 -15.537  17.192  0.00  0.00     0.088 H 
ATOM     74  CAQ JAY d   1      21.078 -14.575  13.971  0.00  0.00    -0.082 A 
ATOM     75  H2  JAY d   1      21.847 -13.752  15.818  0.00  0.00     0.083 H 
ATOM     76  CAR JAY d   1      20.294 -15.600  13.397  0.00  0.00    -0.070 A 
ATOM     77  H3  JAY d   1      21.530 -13.818  13.341  0.00  0.00     0.083 H 
ATOM     78  H4  JAY d   1      20.113 -15.589  12.328  0.00  0.00     0.084 H 
ENDBRANCH  52  68
ENDBRANCH   1  51
TORSDOF 6
