REMARK  7 active torsions:
REMARK  status: ('A' for Active; 'I' for Inactive)
REMARK    1  A    between atoms: C1_2  and  O1_3 
REMARK    2  A    between atoms: C2_4  and  N2_5 
REMARK       I    between atoms: N2_5  and  C7_13 
REMARK    3  A    between atoms: C3_6  and  O3_7 
REMARK    4  A    between atoms: C4_8  and  O4_9 
REMARK    5  A    between atoms: C5_10  and  C6_11 
REMARK    6  A    between atoms: C6_11  and  O6_12 
REMARK    7  A    between atoms: C7_13  and  C8_15 
ROOT
ATOM      1  O   A2G d   1      21.335  -2.772  -0.957  0.00  0.00    -0.349 OA
ATOM      2  C1  A2G d   1      22.121  -2.797  -2.117  0.00  0.00     0.151 C 
ATOM      3  C2  A2G d   1      21.294  -2.219  -3.303  0.00  0.00     0.086 C 
ATOM      4  C3  A2G d   1      20.796  -0.794  -2.901  0.00  0.00     0.086 C 
ATOM      5  C4  A2G d   1      20.038  -0.832  -1.596  0.00  0.00     0.089 C 
ATOM      6  C5  A2G d   1      20.927  -1.460  -0.567  0.00  0.00     0.089 C 
ATOM      7  H1  A2G d   1      22.352  -3.850  -2.334  0.00  0.00     0.132 H 
ATOM      8  H3  A2G d   1      20.435  -2.876  -3.503  0.00  0.00     0.084 H 
ATOM      9  H5  A2G d   1      21.677  -0.145  -2.783  0.00  0.00     0.090 H 
ATOM     10  H7  A2G d   1      19.761   0.188  -1.290  0.00  0.00     0.091 H 
ATOM     11  H9  A2G d   1      21.816  -0.821  -0.464  0.00  0.00     0.090 H 
ENDROOT
BRANCH   3  12
ATOM     12  N2  A2G d   1      22.090  -2.101  -4.493  0.00  0.00    -0.349 N 
ATOM     13  C7  A2G d   1      21.646  -2.499  -5.700  0.00  0.00     0.214 C 
ATOM     14  O7  A2G d   1      20.516  -3.008  -5.828  0.00  0.00    -0.274 OA
ATOM     15  H4  A2G d   1      23.007  -1.709  -4.422  0.00  0.00     0.163 HD
BRANCH  13  16
ATOM     16  C8  A2G d   1      22.692  -2.314  -6.826  0.00  0.00    -0.003 C 
ATOM     17  H13 A2G d   1      22.267  -2.657  -7.781  0.00  0.00     0.040 H 
ATOM     18  H14 A2G d   1      23.591  -2.903  -6.592  0.00  0.00     0.040 H 
ATOM     19  H15 A2G d   1      22.961  -1.250  -6.905  0.00  0.00     0.040 H 
ENDBRANCH  13  16
ENDBRANCH   3  12
BRANCH   2  20
ATOM     20  O1  A2G d   1      23.356  -2.108  -2.019  0.00  0.00    -0.369 OA
ATOM     21  H2  A2G d   1      23.879  -2.495  -1.327  0.00  0.00     0.212 HD
ENDBRANCH   2  20
BRANCH   4  22
ATOM     22  O3  A2G d   1      19.929  -0.219  -3.904  0.00  0.00    -0.391 OA
ATOM     23  H6  A2G d   1      19.169  -0.777  -4.021  0.00  0.00     0.210 HD
ENDBRANCH   4  22
BRANCH   5  24
ATOM     24  O4  A2G d   1      18.823  -1.660  -1.743  0.00  0.00    -0.390 OA
ATOM     25  H8  A2G d   1      18.267  -1.288  -2.418  0.00  0.00     0.210 HD
ENDBRANCH   5  24
BRANCH   6  26
ATOM     26  C6  A2G d   1      20.283  -1.618   0.797  0.00  0.00     0.043 C 
ATOM     27  H10 A2G d   1      19.391  -2.253   0.694  0.00  0.00     0.078 H 
ATOM     28  H11 A2G d   1      19.986  -0.624   1.163  0.00  0.00     0.078 H 
BRANCH  26  29
ATOM     29  O6  A2G d   1      21.167  -2.219   1.761  0.00  0.00    -0.398 OA
ATOM     30  H12 A2G d   1      21.939  -1.675   1.864  0.00  0.00     0.209 HD
ENDBRANCH  26  29
ENDBRANCH   6  26
TORSDOF 7
