REMARK  12 active torsions:
REMARK  status: ('A' for Active; 'I' for Inactive)
REMARK    1  A    between atoms: C6_3  and  C7_4 
REMARK    2  A    between atoms: N14_22  and  C15_8 
REMARK    3  A    between atoms: C16_23  and  C17_9 
REMARK    4  A    between atoms: C22_12  and  O23_26 
REMARK    5  A    between atoms: O23_26  and  C24_13 
REMARK    6  A    between atoms: C24_13  and  C25_27 
REMARK    7  A    between atoms: C26_14  and  C28_15 
REMARK    8  A    between atoms: C26_14  and  C27_28 
REMARK    9  A    between atoms: C28_15  and  C29_29 
REMARK   10  A    between atoms: C2_17  and  C3_18 
REMARK       I    between atoms: N14_22  and  C2_17 
REMARK   11  A    between atoms: N14_22  and  C16_23 
REMARK   12  A    between atoms: C29_29  and  C30_30 
ROOT
ATOM      1  C17 89L d   1       3.021  -2.727  48.666  0.00  0.00    -0.007 A 
ATOM      2  C20 89L d   1       1.625  -4.819  47.492  0.00  0.00    -0.080 A 
ATOM      3  C21 89L d   1       1.103  -3.501  47.503  0.00  0.00    -0.050 A 
ATOM      4  C22 89L d   1       1.784  -2.482  48.131  0.00  0.00     0.077 A 
ATOM      5  C18 89L d   1       3.561  -4.027  48.642  0.00  0.00    -0.073 A 
ATOM      6  C19 89L d   1       2.868  -5.087  48.028  0.00  0.00    -0.082 A 
ATOM      7  H9  89L d   1       1.042  -5.624  47.059  0.00  0.00     0.083 H 
ATOM      8  H10 89L d   1       0.159  -3.293  47.013  0.00  0.00     0.087 H 
ATOM      9  H19 89L d   1       4.524  -4.214  49.103  0.00  0.00     0.084 H 
ATOM     10  H20 89L d   1       3.297  -6.081  47.978  0.00  0.00     0.083 H 
ENDROOT
BRANCH   1  11
ATOM     11  C16 89L d   1       3.688  -1.499  49.311  0.00  0.00     0.024 C 
ATOM     12  H17 89L d   1       3.423  -1.482  50.379  0.00  0.00     0.071 H 
ATOM     13  H18 89L d   1       3.297  -0.595  48.821  0.00  0.00     0.071 H 
BRANCH  11  14
ATOM     14  N14 89L d   1       5.137  -1.489  49.199  0.00  0.00    -0.348 N 
ATOM     15  C2  89L d   1       5.951  -1.714  50.215  0.00  0.00     0.253 C 
ATOM     16  O1  89L d   1       7.196  -1.732  50.086  0.00  0.00    -0.267 OA
BRANCH  14  17
ATOM     17  C15 89L d   1       5.796  -1.246  47.888  0.00  0.00    -0.015 C 
ATOM     18  H6  89L d   1       5.029  -1.071  47.119  0.00  0.00     0.056 H 
ATOM     19  H7  89L d   1       6.399  -2.124  47.612  0.00  0.00     0.056 H 
ATOM     20  H8  89L d   1       6.447  -0.363  47.963  0.00  0.00     0.056 H 
ENDBRANCH  14  17
BRANCH  15  21
ATOM     21  C3  89L d   1       5.458  -2.001  51.574  0.00  0.00     0.032 A 
ATOM     22  C4  89L d   1       4.616  -3.061  51.843  0.00  0.00    -0.067 A 
ATOM     23  C5  89L d   1       4.243  -3.294  53.169  0.00  0.00    -0.069 A 
ATOM     24  H1  89L d   1       4.253  -3.698  51.044  0.00  0.00     0.085 H 
ATOM     25  C6  89L d   1       4.781  -2.476  54.201  0.00  0.00    -0.002 A 
ATOM     26  H2  89L d   1       3.549  -4.091  53.410  0.00  0.00     0.085 H 
ATOM     27  C12 89L d   1       5.635  -1.408  53.902  0.00  0.00    -0.069 A 
ATOM     28  C13 89L d   1       5.957  -1.184  52.591  0.00  0.00    -0.067 A 
ATOM     29  H16 89L d   1       6.031  -0.775  54.688  0.00  0.00     0.085 H 
ATOM     30  H5  89L d   1       6.611  -0.358  52.337  0.00  0.00     0.085 H 
BRANCH  25  31
ATOM     31  C7  89L d   1       4.409  -2.692  55.608  0.00  0.00     0.085 A 
ATOM     32  C8  89L d   1       3.545  -3.689  56.066  0.00  0.00    -0.048 A 
ATOM     33  C9  89L d   1       3.479  -3.582  57.408  0.00  0.00    -0.059 A 
ATOM     34  H3  89L d   1       3.021  -4.419  55.451  0.00  0.00     0.087 H 
ATOM     35  C10 89L d   1       4.336  -2.607  57.818  0.00  0.00     0.019 A 
ATOM     36  H15 89L d   1       2.843  -4.179  58.059  0.00  0.00     0.086 H 
ATOM     37  O11 89L d   1       4.954  -2.050  56.701  0.00  0.00    -0.322 OA
ATOM     38  H4  89L d   1       4.510  -2.311  58.851  0.00  0.00     0.123 H 
ENDBRANCH  25  31
ENDBRANCH  15  21
ENDBRANCH  11  14
ENDBRANCH   1  11
BRANCH   4  39
ATOM     39  O23 89L d   1       1.300  -1.170  48.223  0.00  0.00    -0.347 OA
BRANCH  39  40
ATOM     40  C24 89L d   1       0.035  -0.847  47.692  0.00  0.00     0.041 C 
ATOM     41  H11 89L d   1      -0.747  -1.196  48.383  0.00  0.00     0.081 H 
ATOM     42  H12 89L d   1      -0.086  -1.345  46.719  0.00  0.00     0.081 H 
BRANCH  40  43
ATOM     43  C25 89L d   1      -0.097   0.631  47.507  0.00  0.00    -0.078 C 
ATOM     44  C26 89L d   1      -0.873   1.284  48.349  0.00  0.00    -0.085 C 
ATOM     45  H21 89L d   1       0.429   1.149  46.706  0.00  0.00     0.080 H 
BRANCH  44  46
ATOM     46  C28 89L d   1      -1.097   2.754  48.257  0.00  0.00    -0.036 C 
ATOM     47  H13 89L d   1      -1.265   3.146  49.271  0.00  0.00     0.040 H 
ATOM     48  H14 89L d   1      -1.991   2.934  47.641  0.00  0.00     0.040 H 
BRANCH  46  49
ATOM     49  C29 89L d   1       0.061   3.492  47.645  0.00  0.00     0.019 C 
ATOM     50  H25 89L d   1       0.951   2.849  47.706  0.00  0.00     0.049 H 
ATOM     51  H26 89L d   1       0.232   4.410  48.226  0.00  0.00     0.049 H 
BRANCH  49  52
ATOM     52  C30 89L d   1      -0.145   3.871  46.223  0.00  0.00     0.172 C 
ATOM     53  O32 89L d   1       0.777   4.620  45.789  0.00  0.00    -0.648 OA
ATOM     54  O31 89L d   1      -1.099   3.441  45.512  0.00  0.00    -0.648 OA
ENDBRANCH  49  52
ENDBRANCH  46  49
ENDBRANCH  44  46
BRANCH  44  55
ATOM     55  C27 89L d   1      -1.569   0.558  49.464  0.00  0.00    -0.055 C 
ATOM     56  H22 89L d   1      -1.320  -0.512  49.416  0.00  0.00     0.033 H 
ATOM     57  H23 89L d   1      -2.657   0.686  49.362  0.00  0.00     0.033 H 
ATOM     58  H24 89L d   1      -1.240   0.969  50.430  0.00  0.00     0.033 H 
ENDBRANCH  44  55
ENDBRANCH  40  43
ENDBRANCH  39  40
ENDBRANCH   4  39
TORSDOF 12
