REMARK  4 active torsions:
REMARK  status: ('A' for Active; 'I' for Inactive)
REMARK    1  A    between atoms: CAV_4  and  CAA_5 
REMARK    2  A    between atoms: CAS_10  and  OAD_11 
REMARK    3  A    between atoms: CAR_13  and  OAC_14 
REMARK    4  A    between atoms: CAW_22  and  OAE_23 
ROOT
ATOM      1  CAO 36J d   1      -7.782  -3.448  -5.169  0.00  0.00    -0.041 C 
ATOM      2  CAL 36J d   1      -7.589  -1.818  -5.341  0.00  0.00    -0.060 C 
ATOM      3  CAM 36J d   1      -8.941  -1.159  -5.827  0.00  0.00    -0.041 C 
ATOM      4  CAV 36J d   1      -9.090   0.360  -5.647  0.00  0.00     0.045 C 
ATOM      5  OAP 36J d   1      -9.530   0.643  -4.181  0.00  0.00    -0.312 OA
ATOM      6  CAQ 36J d   1      -9.916   1.803  -3.667  0.00  0.00     0.297 C 
ATOM      7  OAB 36J d   1      -9.990   2.807  -4.348  0.00  0.00    -0.259 OA
ATOM      8  CAU 36J d   1      -9.802   1.866  -2.217  0.00  0.00     0.083 A 
ATOM      9  CAS 36J d   1      -9.386   3.088  -1.687  0.00  0.00     0.085 A 
ATOM     10  CAH 36J d   1      -9.193   3.323  -0.271  0.00  0.00    -0.018 A 
ATOM     11  CAR 36J d   1      -9.434   2.247   0.583  0.00  0.00     0.069 A 
ATOM     12  CAI 36J d   1      -9.886   1.032   0.047  0.00  0.00    -0.040 A 
ATOM     13  CAT 36J d   1     -10.046   0.786  -1.318  0.00  0.00    -0.015 A 
ATOM     14  CAG 36J d   1     -10.509  -0.517  -1.728  0.00  0.00    -0.075 C 
ATOM     15  CAF 36J d   1     -10.526  -1.698  -1.004  0.00  0.00    -0.102 C 
ATOM     16  CAJ 36J d   1     -11.058  -2.949  -1.458  0.00  0.00    -0.050 C 
ATOM     17  CAK 36J d   1      -9.782  -3.746  -1.760  0.00  0.00    -0.060 C 
ATOM     18  CAN 36J d   1      -9.570  -3.422  -3.299  0.00  0.00    -0.041 C 
ATOM     19  CAW 36J d   1      -8.086  -3.867  -3.814  0.00  0.00     0.035 C 
ATOM     20  H1  36J d   1      -6.850  -3.942  -5.483  0.00  0.00     0.036 H 
ATOM     21  H2  36J d   1      -8.606  -3.770  -5.823  0.00  0.00     0.036 H 
ATOM     22  H3  36J d   1      -6.801  -1.621  -6.083  0.00  0.00     0.033 H 
ATOM     23  H4  36J d   1      -7.299  -1.382  -4.374  0.00  0.00     0.033 H 
ATOM     24  H5  36J d   1      -9.761  -1.639  -5.272  0.00  0.00     0.036 H 
ATOM     25  H6  36J d   1      -9.047  -1.376  -6.900  0.00  0.00     0.036 H 
ATOM     26  H7  36J d   1      -9.858   0.725  -6.345  0.00  0.00     0.083 H 
ATOM     27  H12 36J d   1      -8.877   4.288   0.107  0.00  0.00     0.092 H 
ATOM     28  H14 36J d   1     -10.127   0.232   0.738  0.00  0.00     0.089 H 
ATOM     29  H15 36J d   1     -10.898  -0.581  -2.743  0.00  0.00     0.084 H 
ATOM     30  H16 36J d   1     -10.098  -1.674  -0.003  0.00  0.00     0.076 H 
ATOM     31  H17 36J d   1     -11.671  -2.818  -2.362  0.00  0.00     0.038 H 
ATOM     32  H18 36J d   1     -11.658  -3.436  -0.675  0.00  0.00     0.038 H 
ATOM     33  H19 36J d   1      -9.931  -4.823  -1.592  0.00  0.00     0.033 H 
ATOM     34  H20 36J d   1      -8.934  -3.394  -1.154  0.00  0.00     0.033 H 
ATOM     35  H21 36J d   1      -9.691  -2.340  -3.455  0.00  0.00     0.036 H 
ATOM     36  H22 36J d   1     -10.327  -3.964  -3.885  0.00  0.00     0.036 H 
ATOM     37  H23 36J d   1      -7.318  -3.515  -3.110  0.00  0.00     0.082 H 
ENDROOT
BRANCH   4  38
ATOM     38  CAA 36J d   1      -7.777   1.132  -5.897  0.00  0.00    -0.052 C 
ATOM     39  H8  36J d   1      -7.951   2.208  -5.753  0.00  0.00     0.030 H 
ATOM     40  H9  36J d   1      -7.436   0.951  -6.927  0.00  0.00     0.030 H 
ATOM     41  H10 36J d   1      -7.008   0.787  -5.190  0.00  0.00     0.030 H 
ENDBRANCH   4  38
BRANCH  19  42
ATOM     42  OAE 36J d   1      -8.109  -5.356  -3.942  0.00  0.00    -0.396 OA
ATOM     43  H24 36J d   1      -7.260  -5.660  -4.241  0.00  0.00     0.210 HD
ENDBRANCH  19  42
BRANCH   9  44
ATOM     44  OAD 36J d   1      -9.231   4.129  -2.548  0.00  0.00    -0.360 OA
ATOM     45  H11 36J d   1     -10.059   4.311  -2.976  0.00  0.00     0.217 HD
ENDBRANCH   9  44
BRANCH  11  46
ATOM     46  OAC 36J d   1      -9.243   2.403   1.955  0.00  0.00    -0.361 OA
ATOM     47  H13 36J d   1      -9.447   1.587   2.397  0.00  0.00     0.217 HD
ENDBRANCH  11  46
TORSDOF 4
