REMARK  11 active torsions:
REMARK  status: ('A' for Active; 'I' for Inactive)
REMARK    1  A    between atoms: C3_3  and  C11_6 
REMARK    2  A    between atoms: C13_8  and  C12_7 
REMARK    3  A    between atoms: C12_7  and  C14_9 
REMARK    4  A    between atoms: N4_25  and  C13_8 
REMARK    5  A    between atoms: C14_9  and  N5_26 
REMARK    6  A    between atoms: C15_10  and  C17_12 
REMARK    7  A    between atoms: N5_26  and  C15_10 
REMARK    8  A    between atoms: C16_11  and  C18_13 
REMARK    9  A    between atoms: N5_26  and  C16_11 
REMARK   10  A    between atoms: C7_20  and  N2_16 
REMARK   11  A    between atoms: C9_23  and  C7_20 
REMARK       I    between atoms: C9_23  and  N4_25 
ROOT
ATOM      1  O2  8C3 d   1     -34.890  -4.965  10.137  0.00  0.00    -0.272 OA
ATOM      2  C9  8C3 d   1     -35.168  -3.772  10.357  0.00  0.00     0.237 C 
ATOM      3  N4  8C3 d   1     -34.521  -2.979  11.245  0.00  0.00    -0.360 N 
ATOM      4  H25 8C3 d   1     -34.855  -2.040  11.324  0.00  0.00     0.162 HD
ENDROOT
BRANCH   3   5
ATOM      5  C13 8C3 d   1     -33.380  -3.340  12.109  0.00  0.00    -0.003 C 
ATOM      6  H6  8C3 d   1     -32.501  -3.484  11.464  0.00  0.00     0.064 H 
ATOM      7  H7  8C3 d   1     -33.198  -2.500  12.796  0.00  0.00     0.064 H 
BRANCH   5   8
ATOM      8  C12 8C3 d   1     -33.561  -4.627  12.965  0.00  0.00    -0.028 C 
ATOM      9  H4  8C3 d   1     -32.656  -4.765  13.575  0.00  0.00     0.037 H 
ATOM     10  H5  8C3 d   1     -33.676  -5.481  12.282  0.00  0.00     0.037 H 
BRANCH   8  11
ATOM     11  C14 8C3 d   1     -34.786  -4.597  13.915  0.00  0.00     0.085 C 
ATOM     12  H8  8C3 d   1     -35.275  -5.582  13.880  0.00  0.00     0.076 H 
ATOM     13  H9  8C3 d   1     -35.485  -3.828  13.554  0.00  0.00     0.076 H 
BRANCH  11  14
ATOM     14  N5  8C3 d   1     -34.444  -4.291  15.342  0.00  0.00    -0.072 N 
ATOM     15  H26 8C3 d   1     -33.603  -4.811  15.537  0.00  0.00     0.279 HD
BRANCH  14  16
ATOM     16  C15 8C3 d   1     -34.079  -2.849  15.567  0.00  0.00     0.080 C 
ATOM     17  H10 8C3 d   1     -34.647  -2.239  14.849  0.00  0.00     0.075 H 
ATOM     18  H11 8C3 d   1     -34.375  -2.580  16.592  0.00  0.00     0.075 H 
BRANCH  16  19
ATOM     19  C17 8C3 d   1     -32.580  -2.511  15.399  0.00  0.00    -0.053 C 
ATOM     20  H14 8C3 d   1     -32.423  -1.438  15.584  0.00  0.00     0.029 H 
ATOM     21  H15 8C3 d   1     -32.261  -2.757  14.375  0.00  0.00     0.029 H 
ATOM     22  H16 8C3 d   1     -31.989  -3.098  16.118  0.00  0.00     0.029 H 
ENDBRANCH  16  19
ENDBRANCH  14  16
BRANCH  14  23
ATOM     23  C16 8C3 d   1     -35.471  -4.820  16.296  0.00  0.00     0.080 C 
ATOM     24  H12 8C3 d   1     -35.651  -5.881  16.069  0.00  0.00     0.075 H 
ATOM     25  H13 8C3 d   1     -35.083  -4.725  17.321  0.00  0.00     0.075 H 
BRANCH  23  26
ATOM     26  C18 8C3 d   1     -36.809  -4.060  16.201  0.00  0.00    -0.053 C 
ATOM     27  H17 8C3 d   1     -37.525  -4.487  16.919  0.00  0.00     0.029 H 
ATOM     28  H18 8C3 d   1     -37.212  -4.154  15.182  0.00  0.00     0.029 H 
ATOM     29  H19 8C3 d   1     -36.645  -2.998  16.434  0.00  0.00     0.029 H 
ENDBRANCH  23  26
ENDBRANCH  14  23
ENDBRANCH  11  14
ENDBRANCH   8  11
ENDBRANCH   5   8
ENDBRANCH   3   5
BRANCH   2  30
ATOM     30  C7  8C3 d   1     -36.321  -3.091   9.603  0.00  0.00     0.094 C 
ATOM     31  H21 8C3 d   1     -37.258  -3.574   9.918  0.00  0.00     0.082 H 
ATOM     32  H22 8C3 d   1     -36.336  -2.032   9.901  0.00  0.00     0.082 H 
BRANCH  30  33
ATOM     33  N2  8C3 d   1     -36.264  -3.141   8.117  0.00  0.00    -0.222 N 
ATOM     34  C2  8C3 d   1     -35.189  -2.649   7.337  0.00  0.00     0.291 A 
ATOM     35  C1  8C3 d   1     -35.355  -2.767   5.832  0.00  0.00     0.112 A 
ATOM     36  O1  8C3 d   1     -34.157  -2.122   7.777  0.00  0.00    -0.264 OA
ATOM     37  N1  8C3 d   1     -36.569  -3.353   5.332  0.00  0.00    -0.292 N 
ATOM     38  C4  8C3 d   1     -34.529  -2.400   4.758  0.00  0.00    -0.032 A 
ATOM     39  C3  8C3 d   1     -37.608  -3.836   6.292  0.00  0.00     0.128 A 
ATOM     40  C5  8C3 d   1     -36.434  -3.309   3.993  0.00  0.00     0.059 A 
ATOM     41  N3  8C3 d   1     -37.435  -3.722   7.574  0.00  0.00    -0.155 NA
ATOM     42  C6  8C3 d   1     -35.239  -2.753   3.637  0.00  0.00     0.034 A 
ATOM     43  C8  8C3 d   1     -37.170  -3.663   2.827  0.00  0.00    -0.049 A 
ATOM     44  S1  8C3 d   1     -34.874  -2.621   1.970  0.00  0.00    -0.100 SA
ATOM     45  C10 8C3 d   1     -36.467  -3.345   1.696  0.00  0.00    -0.042 A 
ATOM     46  H24 8C3 d   1     -36.860  -3.525   0.697  0.00  0.00     0.095 H 
ATOM     47  H23 8C3 d   1     -38.157  -4.124   2.834  0.00  0.00     0.087 H 
ATOM     48  H20 8C3 d   1     -33.544  -1.938   4.804  0.00  0.00     0.089 H 
BRANCH  39  49
ATOM     49  C11 8C3 d   1     -38.861  -4.491   5.850  0.00  0.00    -0.019 C 
ATOM     50  H1  8C3 d   1     -39.465  -4.757   6.730  0.00  0.00     0.037 H 
ATOM     51  H2  8C3 d   1     -38.618  -5.402   5.282  0.00  0.00     0.037 H 
ATOM     52  H3  8C3 d   1     -39.430  -3.800   5.210  0.00  0.00     0.037 H 
ENDBRANCH  39  49
ENDBRANCH  30  33
ENDBRANCH   2  30
TORSDOF 11
