REMARK  2 active torsions:
REMARK  status: ('A' for Active; 'I' for Inactive)
REMARK    1  A    between atoms: C04_2  and  C02_1 
REMARK       I    between atoms: C02_1  and  N01_17 
REMARK    2  A    between atoms: C11_7  and  C12_8 
ROOT
ATOM      1  C04 8EC d   1      22.644 -14.843 -20.909  0.00  0.00     0.063 A 
ATOM      2  C05 8EC d   1      21.279 -14.967 -20.931  0.00  0.00    -0.028 A 
ATOM      3  C06 8EC d   1      20.591 -14.659 -22.095  0.00  0.00     0.119 A 
ATOM      4  C08 8EC d   1      21.283 -14.202 -23.262  0.00  0.00    -0.016 A 
ATOM      5  C09 8EC d   1      22.686 -14.110 -23.234  0.00  0.00     0.089 A 
ATOM      6  C11 8EC d   1      24.817 -13.776 -23.564  0.00  0.00     0.146 A 
ATOM      7  C22 8EC d   1      23.340 -14.441 -22.039  0.00  0.00     0.079 A 
ATOM      8  F07 8EC d   1      19.220 -14.814 -22.010  0.00  0.00    -0.206 F 
ATOM      9  N10 8EC d   1      23.652 -13.761 -23.983  0.00  0.00    -0.228 NA
ATOM     10  N21 8EC d   1      24.746 -14.212 -22.288  0.00  0.00    -0.337 N 
ATOM     11  H1  8EC d   1      20.744 -15.302 -20.050  0.00  0.00     0.089 H 
ATOM     12  H2  8EC d   1      20.733 -13.930 -24.156  0.00  0.00     0.091 H 
ATOM     13  H14 8EC d   1      25.527 -14.352 -21.631  0.00  0.00     0.167 HD
ENDROOT
BRANCH   6  14
ATOM     14  C12 8EC d   1      26.141 -13.440 -24.300  0.00  0.00     0.051 A 
ATOM     15  C13 8EC d   1      27.273 -13.442 -23.760  0.00  0.00    -0.056 A 
ATOM     16  C14 8EC d   1      28.364 -13.126 -24.678  0.00  0.00    -0.040 A 
ATOM     17  H3  8EC d   1      27.428 -13.659 -22.704  0.00  0.00     0.086 H 
ATOM     18  C15 8EC d   1      29.825 -12.967 -24.629  0.00  0.00    -0.017 C 
ATOM     19  C19 8EC d   1      27.838 -12.886 -26.009  0.00  0.00     0.015 A 
ATOM     20  C16 8EC d   1      30.536 -12.325 -26.005  0.00  0.00     0.086 C 
ATOM     21  H4  8EC d   1      30.267 -13.959 -24.453  0.00  0.00     0.042 H 
ATOM     22  H5  8EC d   1      30.064 -12.304 -23.785  0.00  0.00     0.042 H 
ATOM     23  N17 8EC d   1      29.837 -12.721 -27.324  0.00  0.00    -0.070 N 
ATOM     24  H6  8EC d   1      31.578 -12.674 -26.049  0.00  0.00     0.076 H 
ATOM     25  H7  8EC d   1      30.519 -11.228 -25.922  0.00  0.00     0.076 H 
ATOM     26  C18 8EC d   1      28.447 -12.560 -27.168  0.00  0.00     0.112 C 
ATOM     27  H12 8EC d   1      30.044 -13.683 -27.541  0.00  0.00     0.277 HD
ATOM     28  H13 8EC d   1      30.165 -12.130 -28.072  0.00  0.00     0.277 HD
ATOM     29  H8  8EC d   1      28.233 -11.496 -27.346  0.00  0.00     0.084 H 
ATOM     30  H9  8EC d   1      27.971 -13.166 -27.953  0.00  0.00     0.084 H 
ATOM     31  S20 8EC d   1      25.938 -13.112 -25.894  0.00  0.00    -0.089 SA
ENDBRANCH   6  14
BRANCH   1  32
ATOM     32  C02 8EC d   1      23.425 -15.244 -19.628  0.00  0.00     0.251 C 
ATOM     33  N01 8EC d   1      24.841 -15.084 -19.632  0.00  0.00    -0.366 N 
ATOM     34  H10 8EC d   1      25.375 -15.332 -18.824  0.00  0.00     0.159 HD
ATOM     35  H11 8EC d   1      25.301 -14.723 -20.443  0.00  0.00     0.159 HD
ATOM     36  O03 8EC d   1      22.838 -15.720 -18.689  0.00  0.00    -0.268 OA
ENDBRANCH   1  32
TORSDOF 2
