REMARK  5 active torsions:
REMARK  status: ('A' for Active; 'I' for Inactive)
REMARK    1  A    between atoms: C4_1  and  NAL_21 
REMARK    2  A    between atoms: CAS_15  and  C2_6 
REMARK    3  A    between atoms: NAL_21  and  CAM_11 
REMARK    4  A    between atoms: CAO_13  and  CAR_14 
REMARK       I    between atoms: NAT_24  and  CAS_15 
REMARK    5  A    between atoms: CAV_17  and  CAZ_20 
ROOT
ATOM      1  C4  8FU d   1      -6.972 -12.207  18.959  0.00  0.00     0.144 A 
ATOM      2  C5  8FU d   1      -7.029 -13.603  18.549  0.00  0.00     0.040 A 
ATOM      3  C6  8FU d   1      -6.257 -14.059  17.411  0.00  0.00     0.073 A 
ATOM      4  N1  8FU d   1      -5.445 -13.166  16.723  0.00  0.00    -0.224 NA
ATOM      5  N3  8FU d   1      -6.211 -11.373  18.299  0.00  0.00    -0.205 NA
ATOM      6  C2  8FU d   1      -5.415 -11.865  17.146  0.00  0.00     0.221 A 
ATOM      7  CAA 8FU d   1      -7.833 -14.456  19.229  0.00  0.00    -0.046 A 
ATOM      8  CAB 8FU d   1      -7.872 -15.883  18.770  0.00  0.00     0.035 A 
ATOM      9  CAC 8FU d   1      -7.165 -16.311  17.749  0.00  0.00    -0.060 A 
ATOM     10  CAD 8FU d   1      -6.288 -15.364  16.996  0.00  0.00    -0.052 A 
ATOM     11 CL   8FU d   1      -8.877 -16.997  19.625  0.00  0.00    -0.084 Cl
ATOM     12  H1  8FU d   1      -8.425 -14.120  20.072  0.00  0.00     0.087 H 
ATOM     13  H2  8FU d   1      -7.218 -17.352  17.452  0.00  0.00     0.086 H 
ATOM     14  H3  8FU d   1      -5.697 -15.698  16.151  0.00  0.00     0.087 H 
ENDROOT
BRANCH   6  15
ATOM     15  CAS 8FU d   1      -4.533 -10.853  16.457  0.00  0.00     0.291 C 
ATOM     16  NAT 8FU d   1      -5.125  -9.790  15.699  0.00  0.00    -0.342 N 
ATOM     17  CAU 8FU d   1      -4.203  -8.847  15.091  0.00  0.00     0.024 C 
ATOM     18  CAY 8FU d   1      -6.563  -9.686  15.552  0.00  0.00     0.021 C 
ATOM     19  CAV 8FU d   1      -4.785  -7.431  15.157  0.00  0.00     0.114 C 
ATOM     20  H8  8FU d   1      -3.245  -8.873  15.632  0.00  0.00     0.067 H 
ATOM     21  H9  8FU d   1      -4.038  -9.125  14.040  0.00  0.00     0.067 H 
ATOM     22  NAW 8FU d   1      -6.125  -7.484  14.654  0.00  0.00    -0.068 N 
ATOM     23  H10 8FU d   1      -4.787  -7.062  16.193  0.00  0.00     0.086 H 
ATOM     24  CAX 8FU d   1      -6.970  -8.228  15.541  0.00  0.00     0.097 C 
ATOM     25  H20 8FU d   1      -6.122  -7.929  13.749  0.00  0.00     0.277 HD
ATOM     26  H21 8FU d   1      -6.483  -6.546  14.566  0.00  0.00     0.277 HD
ATOM     27  H11 8FU d   1      -6.880  -7.818  16.558  0.00  0.00     0.078 H 
ATOM     28  H12 8FU d   1      -8.014  -8.145  15.203  0.00  0.00     0.078 H 
ATOM     29  H13 8FU d   1      -6.869 -10.158  14.607  0.00  0.00     0.067 H 
ATOM     30  H14 8FU d   1      -7.054 -10.197  16.393  0.00  0.00     0.067 H 
ATOM     31  OBA 8FU d   1      -3.328 -10.935  16.597  0.00  0.00    -0.264 OA
BRANCH  19  32
ATOM     32  CAZ 8FU d   1      -3.940  -6.548  14.303  0.00  0.00    -0.048 C 
ATOM     33  H15 8FU d   1      -4.336  -5.522  14.332  0.00  0.00     0.030 H 
ATOM     34  H16 8FU d   1      -3.954  -6.917  13.267  0.00  0.00     0.030 H 
ATOM     35  H17 8FU d   1      -2.907  -6.553  14.680  0.00  0.00     0.030 H 
ENDBRANCH  19  32
ENDBRANCH   6  15
BRANCH   1  36
ATOM     36  NAL 8FU d   1      -7.738 -11.769  20.065  0.00  0.00    -0.325 N 
ATOM     37  H18 8FU d   1      -8.415 -12.422  20.485  0.00  0.00     0.169 HD
BRANCH  36  38
ATOM     38  CAM 8FU d   1      -7.612 -10.454  20.626  0.00  0.00     0.125 A 
ATOM     39  CAN 8FU d   1      -6.919  -9.307  20.164  0.00  0.00    -0.014 A 
ATOM     40  CAO 8FU d   1      -7.147  -8.304  21.086  0.00  0.00     0.054 A 
ATOM     41  H4  8FU d   1      -6.322  -9.231  19.257  0.00  0.00     0.092 H 
ATOM     42  NAP 8FU d   1      -7.954  -8.820  22.087  0.00  0.00    -0.178 NA
ATOM     43  NAQ 8FU d   1      -8.234 -10.140  21.796  0.00  0.00    -0.262 N 
ATOM     44  H19 8FU d   1      -8.812 -10.776  22.364  0.00  0.00     0.191 HD
BRANCH  40  45
ATOM     45  CAR 8FU d   1      -6.627  -6.858  21.070  0.00  0.00    -0.034 C 
ATOM     46  H5  8FU d   1      -6.999  -6.325  21.957  0.00  0.00     0.035 H 
ATOM     47  H6  8FU d   1      -6.983  -6.350  20.161  0.00  0.00     0.035 H 
ATOM     48  H7  8FU d   1      -5.527  -6.864  21.080  0.00  0.00     0.035 H 
ENDBRANCH  40  45
ENDBRANCH  36  38
ENDBRANCH   1  36
TORSDOF 5
