REMARK  7 active torsions:
REMARK  status: ('A' for Active; 'I' for Inactive)
REMARK    1  A    between atoms: C4_1  and  NAK_23 
REMARK    2  A    between atoms: CAR_15  and  C2_6 
REMARK    3  A    between atoms: NAK_23  and  CAL_11 
REMARK    4  A    between atoms: CAN_13  and  CAQ_14 
REMARK    5  A    between atoms: CAQ_14  and  CBB_21 
REMARK    6  A    between atoms: CAQ_14  and  CBC_22 
REMARK       I    between atoms: NAS_26  and  CAR_15 
REMARK    7  A    between atoms: CAU_17  and  CAY_20 
ROOT
ATOM      1  C4  8FX d   1      -7.013 -12.251  18.935  0.00  0.00     0.144 A 
ATOM      2  C5  8FX d   1      -7.072 -13.640  18.472  0.00  0.00     0.040 A 
ATOM      3  C6  8FX d   1      -6.271 -14.076  17.332  0.00  0.00     0.073 A 
ATOM      4  N1  8FX d   1      -5.444 -13.159  16.689  0.00  0.00    -0.224 NA
ATOM      5  N3  8FX d   1      -6.229 -11.395  18.310  0.00  0.00    -0.205 NA
ATOM      6  C2  8FX d   1      -5.414 -11.864  17.137  0.00  0.00     0.221 A 
ATOM      7  CAA 8FX d   1      -7.884 -14.539  19.091  0.00  0.00    -0.046 A 
ATOM      8  CAB 8FX d   1      -7.918 -15.958  18.599  0.00  0.00     0.035 A 
ATOM      9  CAC 8FX d   1      -7.195 -16.361  17.559  0.00  0.00    -0.060 A 
ATOM     10  CAD 8FX d   1      -6.306 -15.364  16.872  0.00  0.00    -0.052 A 
ATOM     11 CL   8FX d   1      -8.953 -17.072  19.419  0.00  0.00    -0.084 Cl
ATOM     12  H1  8FX d   1      -8.500 -14.235  19.930  0.00  0.00     0.087 H 
ATOM     13  H2  8FX d   1      -7.246 -17.387  17.214  0.00  0.00     0.086 H 
ATOM     14  H3  8FX d   1      -5.700 -15.661  16.023  0.00  0.00     0.087 H 
ENDROOT
BRANCH   6  15
ATOM     15  CAR 8FX d   1      -4.503 -10.885  16.449  0.00  0.00     0.291 C 
ATOM     16  NAS 8FX d   1      -5.052  -9.810  15.691  0.00  0.00    -0.342 N 
ATOM     17  CAT 8FX d   1      -4.136  -8.902  15.059  0.00  0.00     0.024 C 
ATOM     18  CAX 8FX d   1      -6.480  -9.644  15.582  0.00  0.00     0.021 C 
ATOM     19  CAU 8FX d   1      -4.599  -7.468  15.233  0.00  0.00     0.114 C 
ATOM     20  H6  8FX d   1      -3.141  -9.018  15.513  0.00  0.00     0.067 H 
ATOM     21  H7  8FX d   1      -4.079  -9.136  13.986  0.00  0.00     0.067 H 
ATOM     22  NAV 8FX d   1      -5.987  -7.344  14.907  0.00  0.00    -0.068 N 
ATOM     23  H8  8FX d   1      -4.449  -7.160  16.278  0.00  0.00     0.086 H 
ATOM     24  CAW 8FX d   1      -6.798  -8.161  15.784  0.00  0.00     0.097 C 
ATOM     25  H24 8FX d   1      -6.130  -7.640  13.954  0.00  0.00     0.277 HD
ATOM     26  H25 8FX d   1      -6.264  -6.380  15.004  0.00  0.00     0.277 HD
ATOM     27  H9  8FX d   1      -6.591  -7.886  16.829  0.00  0.00     0.078 H 
ATOM     28  H10 8FX d   1      -7.861  -7.985  15.562  0.00  0.00     0.078 H 
ATOM     29  H11 8FX d   1      -6.819  -9.967  14.586  0.00  0.00     0.067 H 
ATOM     30  H12 8FX d   1      -6.986 -10.243  16.354  0.00  0.00     0.067 H 
ATOM     31  OAZ 8FX d   1      -3.304 -11.035  16.553  0.00  0.00    -0.264 OA
BRANCH  19  32
ATOM     32  CAY 8FX d   1      -3.763  -6.589  14.322  0.00  0.00    -0.048 C 
ATOM     33  H13 8FX d   1      -4.081  -5.542  14.431  0.00  0.00     0.030 H 
ATOM     34  H14 8FX d   1      -3.900  -6.907  13.278  0.00  0.00     0.030 H 
ATOM     35  H15 8FX d   1      -2.702  -6.681  14.597  0.00  0.00     0.030 H 
ENDBRANCH  19  32
ENDBRANCH   6  15
BRANCH   1  36
ATOM     36  NAK 8FX d   1      -7.790 -11.796  20.045  0.00  0.00    -0.325 N 
ATOM     37  H22 8FX d   1      -8.478 -12.445  20.453  0.00  0.00     0.169 HD
BRANCH  36  38
ATOM     38  CAL 8FX d   1      -7.667 -10.475  20.630  0.00  0.00     0.125 A 
ATOM     39  CAM 8FX d   1      -6.951  -9.324  20.180  0.00  0.00    -0.013 A 
ATOM     40  CAN 8FX d   1      -7.171  -8.301  21.089  0.00  0.00     0.061 A 
ATOM     41  H4  8FX d   1      -6.340  -9.261  19.281  0.00  0.00     0.092 H 
ATOM     42  NAO 8FX d   1      -8.017  -8.797  22.080  0.00  0.00    -0.177 NA
ATOM     43  NAP 8FX d   1      -8.308 -10.132  21.792  0.00  0.00    -0.262 N 
ATOM     44  H23 8FX d   1      -8.904 -10.754  22.357  0.00  0.00     0.191 HD
BRANCH  40  45
ATOM     45  CAQ 8FX d   1      -6.569  -6.737  21.071  0.00  0.00    -0.017 C 
ATOM     46  H5  8FX d   1      -7.154  -6.108  21.758  0.00  0.00     0.048 H 
BRANCH  45  47
ATOM     47  CBB 8FX d   1      -6.479  -6.211  19.841  0.00  0.00    -0.068 C 
ATOM     48  H16 8FX d   1      -6.078  -5.189  19.908  0.00  0.00     0.028 H 
ATOM     49  H17 8FX d   1      -7.477  -6.184  19.380  0.00  0.00     0.028 H 
ATOM     50  H18 8FX d   1      -5.808  -6.829  19.226  0.00  0.00     0.028 H 
ENDBRANCH  45  47
BRANCH  45  51
ATOM     51  CBC 8FX d   1      -5.254  -6.716  21.330  0.00  0.00    -0.068 C 
ATOM     52  H19 8FX d   1      -5.072  -7.121  22.336  0.00  0.00     0.028 H 
ATOM     53  H20 8FX d   1      -4.887  -5.680  21.280  0.00  0.00     0.028 H 
ATOM     54  H21 8FX d   1      -4.724  -7.329  20.587  0.00  0.00     0.028 H 
ENDBRANCH  45  51
ENDBRANCH  40  45
ENDBRANCH  36  38
ENDBRANCH   1  36
TORSDOF 7
