REMARK  9 active torsions:
REMARK  status: ('A' for Active; 'I' for Inactive)
REMARK    1  A    between atoms: CAR_2  and  CAO_4 
REMARK    2  A    between atoms: CAO_4  and  CAM_5 
REMARK    3  A    between atoms: CAM_5  and  CAL_6 
REMARK    4  A    between atoms: CAL_6  and  CAN_7 
REMARK    5  A    between atoms: CAN_7  and  NAP_8 
REMARK    6  A    between atoms: NAP_8  and  SAW_9 
REMARK    7  A    between atoms: SAW_9  and  CAT_12 
REMARK    8  A    between atoms: CAS_19  and  OAQ_20 
REMARK    9  A    between atoms: OAQ_20  and  CAA_21 
ROOT
ATOM      1  CAT 8JX d   1      -5.101   8.312 -20.077  0.00  0.00     0.090 A 
ATOM      2  CAV 8JX d   1      -5.170   7.654 -21.297  0.00  0.00     0.000 A 
ATOM      3  CAK 8JX d   1      -6.046   8.106 -22.347  0.00  0.00    -0.071 A 
ATOM      4  CAG 8JX d   1      -6.087   7.456 -23.532  0.00  0.00    -0.082 A 
ATOM      5  CAF 8JX d   1      -5.252   6.306 -23.745  0.00  0.00    -0.082 A 
ATOM      6  CAJ 8JX d   1      -4.420   5.867 -22.732  0.00  0.00    -0.070 A 
ATOM      7  CAU 8JX d   1      -4.373   6.556 -21.506  0.00  0.00     0.009 A 
ATOM      8  CAS 8JX d   1      -3.506   6.106 -20.480  0.00  0.00     0.079 A 
ATOM      9  CAH 8JX d   1      -3.455   6.750 -19.276  0.00  0.00    -0.048 A 
ATOM     10  CAI 8JX d   1      -4.247   7.859 -19.068  0.00  0.00    -0.057 A 
ATOM     11  H10 8JX d   1      -6.677   8.973 -22.186  0.00  0.00     0.084 H 
ATOM     12  H11 8JX d   1      -6.748   7.801 -24.319  0.00  0.00     0.083 H 
ATOM     13  H12 8JX d   1      -5.274   5.785 -24.695  0.00  0.00     0.083 H 
ATOM     14  H13 8JX d   1      -3.802   4.989 -22.883  0.00  0.00     0.085 H 
ATOM     15  H17 8JX d   1      -2.798   6.392 -18.492  0.00  0.00     0.087 H 
ATOM     16  H18 8JX d   1      -4.207   8.381 -18.119  0.00  0.00     0.086 H 
ENDROOT
BRANCH   1  17
ATOM     17  SAW 8JX d   1      -6.122   9.795 -19.696  0.00  0.00     0.259 S 
ATOM     18  OAC 8JX d   1      -5.605  10.365 -18.429  0.00  0.00    -0.201 OA
ATOM     19  OAD 8JX d   1      -6.046  10.777 -20.787  0.00  0.00    -0.201 OA
BRANCH  17  20
ATOM     20  NAP 8JX d   1      -7.665   9.338 -19.563  0.00  0.00    -0.315 N 
ATOM     21  H9  8JX d   1      -8.428   9.788 -20.027  0.00  0.00     0.172 HD
BRANCH  20  22
ATOM     22  CAN 8JX d   1      -7.813   8.121 -18.631  0.00  0.00     0.003 C 
ATOM     23  H7  8JX d   1      -8.777   7.638 -18.849  0.00  0.00     0.065 H 
ATOM     24  H8  8JX d   1      -6.994   7.420 -18.850  0.00  0.00     0.065 H 
BRANCH  22  25
ATOM     25  CAL 8JX d   1      -7.773   8.442 -17.173  0.00  0.00    -0.049 C 
ATOM     26  H5  8JX d   1      -6.788   8.882 -16.959  0.00  0.00     0.035 H 
ATOM     27  H6  8JX d   1      -8.558   9.187 -16.978  0.00  0.00     0.035 H 
BRANCH  25  28
ATOM     28  CAM 8JX d   1      -7.979   7.305 -16.207  0.00  0.00    -0.055 C 
ATOM     29  H3  8JX d   1      -7.753   7.683 -15.199  0.00  0.00     0.033 H 
ATOM     30  H4  8JX d   1      -9.039   7.015 -16.261  0.00  0.00     0.033 H 
BRANCH  28  31
ATOM     31  CAO 8JX d   1      -7.156   6.056 -16.417  0.00  0.00     0.016 C 
ATOM     32  H1  8JX d   1      -7.845   5.200 -16.467  0.00  0.00     0.049 H 
ATOM     33  H2  8JX d   1      -6.625   6.156 -17.375  0.00  0.00     0.049 H 
BRANCH  31  34
ATOM     34  CAR 8JX d   1      -6.151   5.773 -15.365  0.00  0.00     0.172 C 
ATOM     35  OAB 8JX d   1      -5.871   4.589 -15.067  0.00  0.00    -0.648 OA
ATOM     36  OAE 8JX d   1      -5.576   6.732 -14.784  0.00  0.00    -0.648 OA
ENDBRANCH  31  34
ENDBRANCH  28  31
ENDBRANCH  25  28
ENDBRANCH  22  25
ENDBRANCH  20  22
ENDBRANCH  17  20
ENDBRANCH   1  17
BRANCH   8  37
ATOM     37  OAQ 8JX d   1      -2.706   4.989 -20.697  0.00  0.00    -0.355 OA
BRANCH  37  38
ATOM     38  CAA 8JX d   1      -2.062   4.398 -19.643  0.00  0.00     0.010 C 
ATOM     39  H14 8JX d   1      -1.482   3.536 -20.005  0.00  0.00     0.066 H 
ATOM     40  H15 8JX d   1      -2.803   4.057 -18.905  0.00  0.00     0.066 H 
ATOM     41  H16 8JX d   1      -1.384   5.126 -19.173  0.00  0.00     0.066 H 
ENDBRANCH  37  38
ENDBRANCH   8  37
TORSDOF 9
