REMARK  7 active torsions:
REMARK  status: ('A' for Active; 'I' for Inactive)
REMARK    1  A    between atoms: CAQ_2  and  CAO_4 
REMARK    2  A    between atoms: CAO_4  and  CAM_5 
REMARK    3  A    between atoms: CAM_5  and  CAL_6 
REMARK    4  A    between atoms: CAL_6  and  CAN_7 
REMARK    5  A    between atoms: CAN_7  and  NAP_8 
REMARK    6  A    between atoms: NAP_8  and  SAV_9 
REMARK    7  A    between atoms: SAV_9  and  CAS_12 
ROOT
ATOM      1  SAV 8K0 d   1      -6.074   9.898 -19.680  0.00  0.00     0.259 S 
ATOM      2  OAB 8K0 d   1      -5.995  10.838 -20.889  0.00  0.00    -0.201 OA
ATOM      3  OAC 8K0 d   1      -5.541  10.540 -18.460  0.00  0.00    -0.201 OA
ENDROOT
BRANCH   1   4
ATOM      4  NAP 8K0 d   1      -7.653   9.585 -19.469  0.00  0.00    -0.315 N 
ATOM      5  H9  8K0 d   1      -8.373  10.265 -19.611  0.00  0.00     0.172 HD
BRANCH   4   6
ATOM      6  CAN 8K0 d   1      -7.914   8.222 -19.054  0.00  0.00     0.003 C 
ATOM      7  H7  8K0 d   1      -8.989   8.033 -19.192  0.00  0.00     0.065 H 
ATOM      8  H8  8K0 d   1      -7.337   7.558 -19.714  0.00  0.00     0.065 H 
BRANCH   6   9
ATOM      9  CAL 8K0 d   1      -7.567   7.860 -17.627  0.00  0.00    -0.049 C 
ATOM     10  H5  8K0 d   1      -6.750   8.518 -17.295  0.00  0.00     0.035 H 
ATOM     11  H6  8K0 d   1      -8.456   8.036 -17.003  0.00  0.00     0.035 H 
BRANCH   9  12
ATOM     12  CAM 8K0 d   1      -7.121   6.407 -17.425  0.00  0.00    -0.055 C 
ATOM     13  H3  8K0 d   1      -7.617   5.794 -18.192  0.00  0.00     0.033 H 
ATOM     14  H4  8K0 d   1      -6.032   6.367 -17.571  0.00  0.00     0.033 H 
BRANCH  12  15
ATOM     15  CAO 8K0 d   1      -7.417   5.816 -16.125  0.00  0.00     0.016 C 
ATOM     16  H1  8K0 d   1      -8.191   6.428 -15.639  0.00  0.00     0.049 H 
ATOM     17  H2  8K0 d   1      -7.804   4.800 -16.291  0.00  0.00     0.049 H 
BRANCH  15  18
ATOM     18  CAQ 8K0 d   1      -6.250   5.723 -15.199  0.00  0.00     0.172 C 
ATOM     19  OAA 8K0 d   1      -5.772   4.549 -14.912  0.00  0.00    -0.648 OA
ATOM     20  OAD 8K0 d   1      -5.720   6.797 -14.717  0.00  0.00    -0.648 OA
ENDBRANCH  15  18
ENDBRANCH  12  15
ENDBRANCH   9  12
ENDBRANCH   6   9
ENDBRANCH   4   6
ENDBRANCH   1   4
BRANCH   1  21
ATOM     21  CAS 8K0 d   1      -5.127   8.386 -19.969  0.00  0.00     0.090 A 
ATOM     22  CAU 8K0 d   1      -5.161   7.618 -21.211  0.00  0.00    -0.001 A 
ATOM     23  CAK 8K0 d   1      -5.946   8.031 -22.276  0.00  0.00    -0.071 A 
ATOM     24  CAT 8K0 d   1      -4.383   6.454 -21.314  0.00  0.00    -0.007 A 
ATOM     25  CAG 8K0 d   1      -5.962   7.278 -23.473  0.00  0.00    -0.082 A 
ATOM     26  H10 8K0 d   1      -6.547   8.930 -22.192  0.00  0.00     0.084 H 
ATOM     27  CAF 8K0 d   1      -5.185   6.104 -23.577  0.00  0.00    -0.082 A 
ATOM     28  H11 8K0 d   1      -6.570   7.602 -24.310  0.00  0.00     0.083 H 
ATOM     29  CAJ 8K0 d   1      -4.420   5.696 -22.526  0.00  0.00    -0.071 A 
ATOM     30  H12 8K0 d   1      -5.197   5.526 -24.494  0.00  0.00     0.083 H 
ATOM     31  H13 8K0 d   1      -3.834   4.788 -22.609  0.00  0.00     0.084 H 
ATOM     32  CAR 8K0 d   1      -3.596   6.046 -20.207  0.00  0.00     0.022 A 
ATOM     33 BRAE 8K0 d   1      -2.451   4.442 -20.098  0.00  0.00    -0.050 Br
ATOM     34  CAH 8K0 d   1      -3.588   6.814 -19.014  0.00  0.00    -0.064 A 
ATOM     35  CAI 8K0 d   1      -4.352   7.972 -18.917  0.00  0.00    -0.058 A 
ATOM     36  H14 8K0 d   1      -2.983   6.496 -18.173  0.00  0.00     0.085 H 
ATOM     37  H15 8K0 d   1      -4.334   8.552 -18.002  0.00  0.00     0.086 H 
ENDBRANCH   1  21
TORSDOF 7
