REMARK  8 active torsions:
REMARK  status: ('A' for Active; 'I' for Inactive)
REMARK    1  A    between atoms: CAY_1  and  OAI_2 
REMARK    2  A    between atoms: OAI_2  and  CAD_3 
REMARK    3  A    between atoms: CAJ_8  and  CAK_9 
REMARK    4  A    between atoms: CAC_12  and  NAH_13 
REMARK    5  A    between atoms: NAH_13  and  SAM_14 
REMARK    6  A    between atoms: SAM_14  and  CAP_17 
REMARK    7  A    between atoms: CAQ_23  and  OAV_24 
REMARK    8  A    between atoms: OAV_24  and  CAW_25 
ROOT
ATOM      1  CAD 8PX d   1      12.613   8.494   2.013  0.00  0.00     0.098 A 
ATOM      2  CAE 8PX d   1      13.620   7.591   1.648  0.00  0.00    -0.013 A 
ATOM      3  CAF 8PX d   1      13.447   6.699   0.679  0.00  0.00     0.116 A 
ATOM      4  OAG 8PX d   1      14.305   5.783   0.219  0.00  0.00    -0.212 OA
ATOM      5  NAL 8PX d   1      13.558   5.061  -0.822  0.00  0.00    -0.132 NA
ATOM      6  CAJ 8PX d   1      12.374   5.637  -0.882  0.00  0.00     0.071 A 
ATOM      7  CAA 8PX d   1      12.261   6.622   0.002  0.00  0.00     0.029 A 
ATOM      8  CAB 8PX d   1      11.255   7.459   0.333  0.00  0.00    -0.039 A 
ATOM      9  CAC 8PX d   1      11.400   8.425   1.339  0.00  0.00     0.077 A 
ATOM     10  H4  8PX d   1      14.569   7.621   2.172  0.00  0.00     0.092 H 
ATOM     11  H8  8PX d   1      10.310   7.382  -0.193  0.00  0.00     0.088 H 
ENDROOT
BRANCH   9  12
ATOM     12  NAH 8PX d   1      10.463   9.378   1.668  0.00  0.00    -0.278 N 
ATOM     13  H9  8PX d   1      10.724  10.341   1.600  0.00  0.00     0.179 HD
BRANCH  12  14
ATOM     14  SAM 8PX d   1       8.910   9.012   2.176  0.00  0.00     0.266 S 
ATOM     15  OAN 8PX d   1       8.241   8.055   1.247  0.00  0.00    -0.200 OA
ATOM     16  OAO 8PX d   1       8.168  10.323   2.483  0.00  0.00    -0.200 OA
BRANCH  14  17
ATOM     17  CAP 8PX d   1       9.207   8.258   3.784  0.00  0.00     0.114 A 
ATOM     18  CAU 8PX d   1       8.837   6.929   3.931  0.00  0.00    -0.041 A 
ATOM     19  CAT 8PX d   1       9.014   6.260   5.124  0.00  0.00     0.012 A 
ATOM     20  H10 8PX d   1       8.399   6.405   3.089  0.00  0.00     0.088 H 
ATOM     21 BRAX 8PX d   1       8.444   4.478   5.136  0.00  0.00    -0.051 Br
ATOM     22  CAS 8PX d   1       9.618   6.908   6.177  0.00  0.00    -0.063 A 
ATOM     23  CAR 8PX d   1      10.017   8.241   6.059  0.00  0.00    -0.048 A 
ATOM     24  H11 8PX d   1       9.786   6.378   7.108  0.00  0.00     0.085 H 
ATOM     25  CAQ 8PX d   1       9.822   8.939   4.861  0.00  0.00     0.091 A 
ATOM     26  H12 8PX d   1      10.482   8.740   6.902  0.00  0.00     0.087 H 
BRANCH  25  27
ATOM     27  OAV 8PX d   1      10.184  10.292   4.664  0.00  0.00    -0.354 OA
BRANCH  27  28
ATOM     28  CAW 8PX d   1      10.628  11.067   5.716  0.00  0.00     0.010 C 
ATOM     29  H13 8PX d   1      10.856  12.081   5.354  0.00  0.00     0.066 H 
ATOM     30  H14 8PX d   1      11.536  10.618   6.144  0.00  0.00     0.066 H 
ATOM     31  H15 8PX d   1       9.846  11.120   6.488  0.00  0.00     0.066 H 
ENDBRANCH  27  28
ENDBRANCH  25  27
ENDBRANCH  14  17
ENDBRANCH  12  14
ENDBRANCH   9  12
BRANCH   1  32
ATOM     32  OAI 8PX d   1      12.727   9.463   3.000  0.00  0.00    -0.354 OA
BRANCH  32  33
ATOM     33  CAY 8PX d   1      13.970   9.586   3.728  0.00  0.00     0.010 C 
ATOM     34  H1  8PX d   1      13.884  10.398   4.466  0.00  0.00     0.066 H 
ATOM     35  H2  8PX d   1      14.785   9.814   3.026  0.00  0.00     0.066 H 
ATOM     36  H3  8PX d   1      14.186   8.640   4.247  0.00  0.00     0.066 H 
ENDBRANCH  32  33
ENDBRANCH   1  32
BRANCH   6  37
ATOM     37  CAK 8PX d   1      11.372   5.158  -1.867  0.00  0.00    -0.033 C 
ATOM     38  H5  8PX d   1      10.451   5.752  -1.772  0.00  0.00     0.035 H 
ATOM     39  H6  8PX d   1      11.146   4.099  -1.675  0.00  0.00     0.035 H 
ATOM     40  H7  8PX d   1      11.776   5.268  -2.884  0.00  0.00     0.035 H 
ENDBRANCH   6  37
TORSDOF 8
