REMARK  8 active torsions:
REMARK  status: ('A' for Active; 'I' for Inactive)
REMARK    1  A    between atoms: CAW_1  and  OAU_2 
REMARK    2  A    between atoms: OAU_2  and  CAP_3 
REMARK    3  A    between atoms: CAO_9  and  SAL_10 
REMARK    4  A    between atoms: SAL_10  and  NAK_13 
REMARK    5  A    between atoms: NAK_13  and  CAB_14 
REMARK    6  A    between atoms: CAG_17  and  CAX_18 
REMARK    7  A    between atoms: CAA_23  and  NAJ_24 
REMARK    8  A    between atoms: NAJ_24  and  CAY_25 
ROOT
ATOM      1  CAB 8QC d   1      -6.900  10.608   1.816  0.00  0.00     0.070 A 
ATOM      2  CAC 8QC d   1      -7.161   9.558   2.730  0.00  0.00    -0.040 A 
ATOM      3  CAD 8QC d   1      -8.259   8.802   2.593  0.00  0.00     0.029 A 
ATOM      4  CAG 8QC d   1      -8.783   7.741   3.291  0.00  0.00     0.071 A 
ATOM      5  NAH 8QC d   1      -9.916   7.281   2.778  0.00  0.00    -0.132 NA
ATOM      6  OAI 8QC d   1     -10.177   8.190   1.612  0.00  0.00    -0.212 OA
ATOM      7  CAE 8QC d   1      -9.127   9.065   1.561  0.00  0.00     0.116 A 
ATOM      8  CAF 8QC d   1      -8.947  10.045   0.688  0.00  0.00    -0.020 A 
ATOM      9  CAA 8QC d   1      -7.825  10.827   0.752  0.00  0.00     0.058 A 
ATOM     10  H8  8QC d   1      -6.470   9.365   3.543  0.00  0.00     0.088 H 
ATOM     11  H12 8QC d   1      -9.690  10.228  -0.079  0.00  0.00     0.091 H 
ENDROOT
BRANCH   1  12
ATOM     12  NAK 8QC d   1      -5.792  11.468   1.897  0.00  0.00    -0.278 N 
ATOM     13  H7  8QC d   1      -5.936  12.428   2.137  0.00  0.00     0.179 HD
BRANCH  12  14
ATOM     14  SAL 8QC d   1      -4.217  10.916   1.598  0.00  0.00     0.266 S 
ATOM     15  OAM 8QC d   1      -3.854   9.792   2.512  0.00  0.00    -0.200 OA
ATOM     16  OAN 8QC d   1      -3.311  12.033   1.814  0.00  0.00    -0.200 OA
BRANCH  14  17
ATOM     17  CAO 8QC d   1      -4.108  10.390  -0.023  0.00  0.00     0.114 A 
ATOM     18  CAP 8QC d   1      -4.266  11.241  -1.123  0.00  0.00     0.091 A 
ATOM     19  CAQ 8QC d   1      -4.170  10.678  -2.411  0.00  0.00    -0.048 A 
ATOM     20  CAR 8QC d   1      -3.900   9.347  -2.573  0.00  0.00    -0.063 A 
ATOM     21  H4  8QC d   1      -4.312  11.306  -3.283  0.00  0.00     0.087 H 
ATOM     22  CAS 8QC d   1      -3.732   8.540  -1.471  0.00  0.00     0.012 A 
ATOM     23  H5  8QC d   1      -3.818   8.928  -3.569  0.00  0.00     0.085 H 
ATOM     24 BRAV 8QC d   1      -3.336   6.745  -1.749  0.00  0.00    -0.051 Br
ATOM     25  CAT 8QC d   1      -3.826   9.052  -0.202  0.00  0.00    -0.041 A 
ATOM     26  H6  8QC d   1      -3.679   8.407   0.657  0.00  0.00     0.088 H 
BRANCH  18  27
ATOM     27  OAU 8QC d   1      -4.508  12.568  -0.924  0.00  0.00    -0.354 OA
BRANCH  27  28
ATOM     28  CAW 8QC d   1      -4.696  13.402  -2.096  0.00  0.00     0.010 C 
ATOM     29  H1  8QC d   1      -4.881  14.440  -1.782  0.00  0.00     0.066 H 
ATOM     30  H2  8QC d   1      -5.558  13.035  -2.673  0.00  0.00     0.066 H 
ATOM     31  H3  8QC d   1      -3.792  13.364  -2.722  0.00  0.00     0.066 H 
ENDBRANCH  27  28
ENDBRANCH  18  27
ENDBRANCH  14  17
ENDBRANCH  12  14
ENDBRANCH   1  12
BRANCH   9  32
ATOM     32  NAJ 8QC d   1      -7.598  11.816  -0.142  0.00  0.00    -0.392 N 
ATOM     33  H13 8QC d   1      -7.049  12.638   0.148  0.00  0.00     0.159 HD
BRANCH  32  34
ATOM     34  CAY 8QC d   1      -8.123  11.748  -1.543  0.00  0.00    -0.021 C 
ATOM     35  H14 8QC d   1      -7.822  12.652  -2.092  0.00  0.00     0.056 H 
ATOM     36  H15 8QC d   1      -9.221  11.681  -1.520  0.00  0.00     0.056 H 
ATOM     37  H16 8QC d   1      -7.712  10.860  -2.046  0.00  0.00     0.056 H 
ENDBRANCH  32  34
ENDBRANCH   9  32
BRANCH   4  38
ATOM     38  CAX 8QC d   1      -8.233   7.063   4.497  0.00  0.00    -0.033 C 
ATOM     39  H9  8QC d   1      -8.908   6.248   4.799  0.00  0.00     0.035 H 
ATOM     40  H10 8QC d   1      -8.145   7.790   5.318  0.00  0.00     0.035 H 
ATOM     41  H11 8QC d   1      -7.240   6.650   4.265  0.00  0.00     0.035 H 
ENDBRANCH   4  38
TORSDOF 8
