REMARK  5 active torsions:
REMARK  status: ('A' for Active; 'I' for Inactive)
REMARK    1  A    between atoms: CAA_1  and  OAP_2 
REMARK    2  A    between atoms: OAP_2  and  CAS_3 
REMARK    3  A    between atoms: CAR_8  and  CAK_9 
REMARK    4  A    between atoms: CAK_9  and  CAU_10 
REMARK    5  A    between atoms: CAV_17  and  CAT_18 
ROOT
ATOM      1  CAU 6TD d   1      14.377  -9.219 -20.869  0.00  0.00     0.157 A 
ATOM      2  NAL 6TD d   1      14.952  -8.036 -21.017  0.00  0.00    -0.132 NA
ATOM      3  NAM 6TD d   1      14.270  -7.137 -20.301  0.00  0.00    -0.120 NA
ATOM      4  CAY 6TD d   1      13.239  -7.736 -19.677  0.00  0.00     0.218 A 
ATOM      5  SAQ 6TD d   1      11.875  -7.577 -18.619  0.00  0.00    -0.025 SA
ATOM      6  NAZ 6TD d   1      13.281  -9.050 -20.022  0.00  0.00    -0.190 N 
ATOM      7  NAN 6TD d   1      12.320  -9.880 -19.496  0.00  0.00    -0.154 NA
ATOM      8  CAV 6TD d   1      11.450  -9.276 -18.679  0.00  0.00     0.148 A 
ENDROOT
BRANCH   1   9
ATOM      9  CAK 6TD d   1      14.788 -10.521 -21.493  0.00  0.00     0.018 C 
ATOM     10  H8  6TD d   1      13.899 -11.011 -21.916  0.00  0.00     0.051 H 
ATOM     11  H9  6TD d   1      15.513 -10.320 -22.295  0.00  0.00     0.051 H 
BRANCH   9  12
ATOM     12  CAR 6TD d   1      15.414 -11.432 -20.488  0.00  0.00    -0.051 A 
ATOM     13  CAE 6TD d   1      16.717 -11.191 -20.083  0.00  0.00    -0.074 A 
ATOM     14  CAG 6TD d   1      17.321 -12.021 -19.153  0.00  0.00    -0.050 A 
ATOM     15  H5  6TD d   1      17.265 -10.351 -20.495  0.00  0.00     0.084 H 
ATOM     16  CAS 6TD d   1      16.625 -13.100 -18.631  0.00  0.00     0.068 A 
ATOM     17  H4  6TD d   1      18.338 -11.827 -18.833  0.00  0.00     0.087 H 
ATOM     18  CAF 6TD d   1      15.324 -13.347 -19.034  0.00  0.00    -0.050 A 
ATOM     19  CAD 6TD d   1      14.714 -12.513 -19.964  0.00  0.00    -0.074 A 
ATOM     20  H6  6TD d   1      14.781 -14.191 -18.624  0.00  0.00     0.087 H 
ATOM     21  H7  6TD d   1      13.695 -12.705 -20.280  0.00  0.00     0.084 H 
BRANCH  16  22
ATOM     22  OAP 6TD d   1      17.239 -13.912 -17.709  0.00  0.00    -0.356 OA
BRANCH  22  23
ATOM     23  CAA 6TD d   1      16.556 -15.011 -17.224  0.00  0.00     0.010 C 
ATOM     24  H1  6TD d   1      17.189 -15.546 -16.501  0.00  0.00     0.066 H 
ATOM     25  H2  6TD d   1      16.303 -15.683 -18.058  0.00  0.00     0.066 H 
ATOM     26  H3  6TD d   1      15.633 -14.679 -16.727  0.00  0.00     0.066 H 
ENDBRANCH  22  23
ENDBRANCH  16  22
ENDBRANCH   9  12
ENDBRANCH   1   9
BRANCH   8  27
ATOM     27  CAT 6TD d   1      10.296  -9.929 -18.038  0.00  0.00     0.071 A 
ATOM     28  CAJ 6TD d   1       9.969 -11.284 -18.128  0.00  0.00    -0.042 A 
ATOM     29  CAW 6TD d   1       8.742 -11.422 -17.403  0.00  0.00    -0.007 A 
ATOM     30  H10 6TD d   1      10.527 -12.067 -18.639  0.00  0.00     0.088 H 
ATOM     31  CAH 6TD d   1       7.910 -12.529 -17.107  0.00  0.00    -0.071 A 
ATOM     32  CAX 6TD d   1       8.398 -10.168 -16.943  0.00  0.00     0.043 A 
ATOM     33  CAB 6TD d   1       6.749 -12.341 -16.355  0.00  0.00    -0.082 A 
ATOM     34  H11 6TD d   1       8.174 -13.518 -17.463  0.00  0.00     0.084 H 
ATOM     35  CAC 6TD d   1       6.397 -11.065 -15.893  0.00  0.00    -0.081 A 
ATOM     36  H12 6TD d   1       6.114 -13.189 -16.126  0.00  0.00     0.083 H 
ATOM     37  CAI 6TD d   1       7.213  -9.974 -16.178  0.00  0.00    -0.056 A 
ATOM     38  H13 6TD d   1       5.490 -10.928 -15.315  0.00  0.00     0.083 H 
ATOM     39  H14 6TD d   1       6.949  -8.985 -15.821  0.00  0.00     0.086 H 
ATOM     40  NAO 6TD d   1       9.352  -9.276 -17.359  0.00  0.00    -0.353 N 
ATOM     41  H15 6TD d   1       9.341  -8.262 -17.176  0.00  0.00     0.166 HD
ENDBRANCH   8  27
TORSDOF 5
