REMARK  4 active torsions:
REMARK  status: ('A' for Active; 'I' for Inactive)
REMARK    1  A    between atoms: C_1  and  O1_2 
REMARK    2  A    between atoms: C_1  and  O2_3 
REMARK    3  A    between atoms: C_1  and  C1_4 
REMARK    4  A    between atoms: C_1  and  C2_5 
ROOT
ATOM      1  C   FAC d   1      13.412  52.124  16.491  0.00  0.00     0.361 C 
ENDROOT
BRANCH   1   2
ATOM      2  O1  FAC d   1      13.477  52.556  15.133  0.00  0.00    -0.352 OA
ATOM      3  H1  FAC d   1      14.350  52.398  14.793  0.00  0.00     0.213 HD
ENDBRANCH   1   2
BRANCH   1   4
ATOM      4  O2  FAC d   1      13.709  50.737  16.512  0.00  0.00    -0.352 OA
ATOM      5  H2  FAC d   1      14.580  50.595  16.159  0.00  0.00     0.213 HD
ENDBRANCH   1   4
BRANCH   1   6
ATOM      6  C1  FAC d   1      14.410  52.909  17.319  0.00  0.00     0.454 C 
ATOM      7  F1  FAC d   1      14.221  52.694  18.669  0.00  0.00    -0.165 F 
ATOM      8  F2  FAC d   1      14.266  54.239  17.013  0.00  0.00    -0.165 F 
ATOM      9  F3  FAC d   1      15.655  52.486  16.986  0.00  0.00    -0.165 F 
ENDBRANCH   1   6
BRANCH   1  10
ATOM     10  C2  FAC d   1      11.991  52.248  16.963  0.00  0.00     0.454 C 
ATOM     11  F4  FAC d   1      11.791  51.663  18.203  0.00  0.00    -0.165 F 
ATOM     12  F5  FAC d   1      11.315  51.585  16.035  0.00  0.00    -0.165 F 
ATOM     13  F6  FAC d   1      11.565  53.545  16.963  0.00  0.00    -0.165 F 
ENDBRANCH   1  10
TORSDOF 4
