REMARK  7 active torsions:
REMARK  status: ('A' for Active; 'I' for Inactive)
REMARK    1  A    between atoms: O5_11  and  P_1 
REMARK    2  A    between atoms: C1_2  and  O1_3 
REMARK    3  A    between atoms: O1_3  and  PA_12 
REMARK    4  A    between atoms: C2_4  and  O2_5 
REMARK    5  A    between atoms: C3_6  and  O3_7 
REMARK    6  A    between atoms: C5_10  and  C4_8 
REMARK    7  A    between atoms: C5_10  and  O5_11 
ROOT
ATOM      1  C1  RI2 d   1     -32.898 -13.833  20.750  0.00  0.00     0.171 C 
ATOM      2  C2  RI2 d   1     -34.087 -14.695  21.092  0.00  0.00     0.110 C 
ATOM      3  C3  RI2 d   1     -33.391 -16.036  21.209  0.00  0.00     0.092 C 
ATOM      4  C4  RI2 d   1     -32.101 -15.692  21.969  0.00  0.00     0.090 C 
ATOM      5  O4  RI2 d   1     -31.788 -14.395  21.497  0.00  0.00    -0.348 OA
ATOM      6  H1  RI2 d   1     -32.699 -13.903  19.671  0.00  0.00     0.134 H 
ATOM      7  H2  RI2 d   1     -34.871 -14.675  20.320  0.00  0.00     0.094 H 
ATOM      8  H4  RI2 d   1     -33.167 -16.409  20.199  0.00  0.00     0.091 H 
ATOM      9  H6  RI2 d   1     -32.327 -15.630  23.044  0.00  0.00     0.090 H 
ENDROOT
BRANCH   4  10
ATOM     10  C5  RI2 d   1     -31.012 -16.710  21.822  0.00  0.00     0.059 C 
ATOM     11  H7  RI2 d   1     -31.376 -17.672  22.212  0.00  0.00     0.079 H 
ATOM     12  H8  RI2 d   1     -30.143 -16.381  22.410  0.00  0.00     0.079 H 
BRANCH  10  13
ATOM     13  O5  RI2 d   1     -30.607 -16.891  20.485  0.00  0.00    -0.280 OA
BRANCH  13  14
ATOM     14  P   RI2 d   1     -29.370 -17.786  20.002  0.00  0.00     0.422 P 
ATOM     15  O1P RI2 d   1     -29.387 -17.668  18.492  0.00  0.00    -0.617 OA
ATOM     16  O2P RI2 d   1     -28.198 -17.056  20.613  0.00  0.00    -0.617 OA
ATOM     17  O3P RI2 d   1     -29.354 -19.208  20.509  0.00  0.00    -0.617 OA
ENDBRANCH  13  14
ENDBRANCH  10  13
ENDBRANCH   4  10
BRANCH   3  18
ATOM     18  O3  RI2 d   1     -34.031 -17.048  21.905  0.00  0.00    -0.390 OA
ATOM     19  H5  RI2 d   1     -34.180 -16.770  22.801  0.00  0.00     0.210 HD
ENDBRANCH   3  18
BRANCH   2  20
ATOM     20  O2  RI2 d   1     -34.613 -14.333  22.373  0.00  0.00    -0.388 OA
ATOM     21  H3  RI2 d   1     -33.942 -14.453  23.035  0.00  0.00     0.210 HD
ENDBRANCH   2  20
BRANCH   1  22
ATOM     22  O1  RI2 d   1     -33.067 -12.440  21.090  0.00  0.00    -0.249 OA
BRANCH  22  23
ATOM     23  PA  RI2 d   1     -33.215 -11.284  19.940  0.00  0.00     0.424 P 
ATOM     24  O1A RI2 d   1     -31.768 -10.827  19.578  0.00  0.00    -0.617 OA
ATOM     25  O2A RI2 d   1     -33.970 -11.839  18.679  0.00  0.00    -0.617 OA
ATOM     26  O3A RI2 d   1     -34.033 -10.184  20.647  0.00  0.00    -0.617 OA
ENDBRANCH  22  23
ENDBRANCH   1  22
TORSDOF 7
