REMARK  7 active torsions:
REMARK  status: ('A' for Active; 'I' for Inactive)
REMARK    1  A    between atoms: O5_11  and  P_1 
REMARK    2  A    between atoms: C1_2  and  O1_3 
REMARK    3  A    between atoms: O1_3  and  PA_12 
REMARK    4  A    between atoms: C2_4  and  O2_5 
REMARK    5  A    between atoms: C3_6  and  O3_7 
REMARK    6  A    between atoms: C5_10  and  C4_8 
REMARK    7  A    between atoms: C5_10  and  O5_11 
ROOT
ATOM      1  C1  RI2 d   1      65.645  71.104 277.584  0.00  0.00     0.171 C 
ATOM      2  C2  RI2 d   1      64.490  71.034 278.597  0.00  0.00     0.110 C 
ATOM      3  C3  RI2 d   1      65.239  70.472 279.795  0.00  0.00     0.092 C 
ATOM      4  C4  RI2 d   1      66.553  71.247 279.769  0.00  0.00     0.090 C 
ATOM      5  O4  RI2 d   1      66.840  71.458 278.355  0.00  0.00    -0.348 OA
ATOM      6  H1  RI2 d   1      65.782  70.130 277.091  0.00  0.00     0.134 H 
ATOM      7  H2  RI2 d   1      63.678  70.376 278.255  0.00  0.00     0.094 H 
ATOM      8  H4  RI2 d   1      65.424  69.397 279.655  0.00  0.00     0.091 H 
ATOM      9  H6  RI2 d   1      66.364  72.230 280.224  0.00  0.00     0.090 H 
ENDROOT
BRANCH   4  10
ATOM     10  C5  RI2 d   1      67.705  70.647 280.556  0.00  0.00     0.059 C 
ATOM     11  H7  RI2 d   1      67.450  70.625 281.626  0.00  0.00     0.079 H 
ATOM     12  H8  RI2 d   1      68.610  71.255 280.407  0.00  0.00     0.079 H 
BRANCH  10  13
ATOM     13  O5  RI2 d   1      67.932  69.360 280.107  0.00  0.00    -0.280 OA
BRANCH  13  14
ATOM     14  P   RI2 d   1      69.213  68.508 280.566  0.00  0.00     0.422 P 
ATOM     15  O1P RI2 d   1      69.238  67.219 279.841  0.00  0.00    -0.617 OA
ATOM     16  O2P RI2 d   1      70.369  69.395 280.246  0.00  0.00    -0.617 OA
ATOM     17  O3P RI2 d   1      69.016  68.278 282.080  0.00  0.00    -0.617 OA
ENDBRANCH  13  14
ENDBRANCH  10  13
ENDBRANCH   4  10
BRANCH   3  18
ATOM     18  O3  RI2 d   1      64.546  70.653 281.031  0.00  0.00    -0.390 OA
ATOM     19  H5  RI2 d   1      64.413  71.581 281.185  0.00  0.00     0.210 HD
ENDBRANCH   3  18
BRANCH   2  20
ATOM     20  O2  RI2 d   1      63.966  72.347 278.932  0.00  0.00    -0.388 OA
ATOM     21  H3  RI2 d   1      64.658  72.876 279.312  0.00  0.00     0.210 HD
ENDBRANCH   2  20
BRANCH   1  22
ATOM     22  O1  RI2 d   1      65.376  72.106 276.599  0.00  0.00    -0.249 OA
BRANCH  22  23
ATOM     23  PA  RI2 d   1      65.197  71.738 275.033  0.00  0.00     0.424 P 
ATOM     24  O1A RI2 d   1      64.538  72.931 274.473  0.00  0.00    -0.617 OA
ATOM     25  O2A RI2 d   1      66.647  71.646 274.447  0.00  0.00    -0.617 OA
ATOM     26  O3A RI2 d   1      64.516  70.389 274.885  0.00  0.00    -0.617 OA
ENDBRANCH  22  23
ENDBRANCH   1  22
TORSDOF 7
