REMARK  12 active torsions:
REMARK  status: ('A' for Active; 'I' for Inactive)
REMARK    1  A    between atoms: C_2  and  CA_4 
REMARK    2  A    between atoms: CA_4  and  CB_5 
REMARK    3  A    between atoms: CA_4  and  N_6 
REMARK    4  A    between atoms: N_6  and  CAV_7 
REMARK    5  A    between atoms: CAV_7  and  CAR_8 
REMARK    6  A    between atoms: CAV_7  and  CAK_11 
REMARK    7  A    between atoms: CAK_11  and  CAJ_12 
REMARK    8  A    between atoms: CAJ_12  and  NAN_13 
REMARK    9  A    between atoms: NAN_13  and  CAW_14 
REMARK   10  A    between atoms: CAW_14  and  CAS_15 
REMARK   11  A    between atoms: CAW_14  and  CAL_18 
REMARK   12  A    between atoms: CAL_18  and  CAT_19 
ROOT
ATOM      1  CAJ 8UX d   1     -17.468  23.861 -19.992  0.00  0.00     0.085 C 
ATOM      2  H10 8UX d   1     -17.457  24.538 -19.125  0.00  0.00     0.075 H 
ATOM      3  H11 8UX d   1     -18.406  23.996 -20.551  0.00  0.00     0.075 H 
ENDROOT
BRANCH   1   4
ATOM      4  CAK 8UX d   1     -17.404  22.420 -19.487  0.00  0.00    -0.006 C 
ATOM      5  H8  8UX d   1     -18.374  22.156 -19.041  0.00  0.00     0.039 H 
ATOM      6  H9  8UX d   1     -17.199  21.754 -20.338  0.00  0.00     0.039 H 
BRANCH   4   7
ATOM      7  CAV 8UX d   1     -16.302  22.231 -18.430  0.00  0.00     0.187 C 
ATOM      8  H7  8UX d   1     -16.697  21.567 -17.647  0.00  0.00     0.101 H 
BRANCH   7   9
ATOM      9  N   8UX d   1     -15.829  23.492 -17.730  0.00  0.00    -0.047 N 
ATOM     10  H5  8UX d   1     -15.254  23.980 -18.398  0.00  0.00     0.279 HD
ATOM     11  H6  8UX d   1     -16.659  24.032 -17.543  0.00  0.00     0.279 HD
BRANCH   9  12
ATOM     12  CA  8UX d   1     -15.063  23.478 -16.471  0.00  0.00     0.182 C 
ATOM     13  H1  8UX d   1     -15.502  24.229 -15.798  0.00  0.00     0.101 H 
BRANCH  12  14
ATOM     14  C   8UX d   1     -13.624  23.897 -16.757  0.00  0.00     0.204 C 
ATOM     15  O   8UX d   1     -12.820  23.675 -15.848  0.00  0.00    -0.646 OA
ATOM     16  OXT 8UX d   1     -13.342  24.413 -17.891  0.00  0.00    -0.646 OA
ENDBRANCH  12  14
BRANCH  12  17
ATOM     17  CB  8UX d   1     -15.166  22.107 -15.756  0.00  0.00    -0.040 C 
ATOM     18  H2  8UX d   1     -16.224  21.864 -15.579  0.00  0.00     0.031 H 
ATOM     19  H3  8UX d   1     -14.635  22.154 -14.794  0.00  0.00     0.031 H 
ATOM     20  H4  8UX d   1     -14.712  21.329 -16.387  0.00  0.00     0.031 H 
ENDBRANCH  12  17
ENDBRANCH   9  12
ENDBRANCH   7   9
BRANCH   7  21
ATOM     21  CAR 8UX d   1     -15.168  21.515 -19.149  0.00  0.00     0.204 C 
ATOM     22  OAF 8UX d   1     -15.326  20.304 -19.439  0.00  0.00    -0.646 OA
ATOM     23  OAC 8UX d   1     -14.240  22.247 -19.525  0.00  0.00    -0.646 OA
ENDBRANCH   7  21
ENDBRANCH   4   7
ENDBRANCH   1   4
BRANCH   1  24
ATOM     24  NAN 8UX d   1     -16.336  24.209 -20.878  0.00  0.00    -0.061 N 
ATOM     25  H12 8UX d   1     -16.443  23.679 -21.728  0.00  0.00     0.278 HD
ATOM     26  H13 8UX d   1     -15.489  23.927 -20.411  0.00  0.00     0.278 HD
BRANCH  24  27
ATOM     27  CAW 8UX d   1     -16.182  25.627 -21.257  0.00  0.00     0.189 C 
ATOM     28  H14 8UX d   1     -17.161  25.953 -21.638  0.00  0.00     0.102 H 
BRANCH  27  29
ATOM     29  CAS 8UX d   1     -15.845  26.595 -20.098  0.00  0.00     0.205 C 
ATOM     30  OAG 8UX d   1     -15.296  26.139 -19.070  0.00  0.00    -0.646 OA
ATOM     31  OAD 8UX d   1     -16.084  27.809 -20.315  0.00  0.00    -0.646 OA
ENDBRANCH  27  29
BRANCH  27  32
ATOM     32  CAL 8UX d   1     -15.211  25.722 -22.409  0.00  0.00     0.011 C 
ATOM     33  H15 8UX d   1     -15.142  26.772 -22.730  0.00  0.00     0.046 H 
ATOM     34  H16 8UX d   1     -15.586  25.108 -23.241  0.00  0.00     0.046 H 
BRANCH  32  35
ATOM     35  CAT 8UX d   1     -13.812  25.229 -22.021  0.00  0.00     0.030 A 
ATOM     36  CAI 8UX d   1     -12.839  25.143 -22.922  0.00  0.00     0.025 A 
ATOM     37  NAM 8UX d   1     -11.772  24.663 -22.310  0.00  0.00    -0.254 NA
ATOM     38  H17 8UX d   1     -12.909  25.418 -23.973  0.00  0.00     0.117 H 
ATOM     39  CAH 8UX d   1     -12.058  24.476 -21.029  0.00  0.00     0.063 A 
ATOM     40  NAP 8UX d   1     -13.343  24.804 -20.836  0.00  0.00    -0.353 N 
ATOM     41  H18 8UX d   1     -11.368  24.118 -20.266  0.00  0.00     0.143 H 
ATOM     42  H19 8UX d   1     -13.868  24.742 -19.952  0.00  0.00     0.166 HD
ENDBRANCH  32  35
ENDBRANCH  27  32
ENDBRANCH  24  27
ENDBRANCH   1  24
TORSDOF 12
