REMARK  12 active torsions:
REMARK  status: ('A' for Active; 'I' for Inactive)
REMARK    1  A    between atoms: C_2  and  CA_4 
REMARK    2  A    between atoms: CA_4  and  CB_5 
REMARK    3  A    between atoms: CA_4  and  N_6 
REMARK    4  A    between atoms: N_6  and  CAV_7 
REMARK    5  A    between atoms: CAV_7  and  CAR_8 
REMARK    6  A    between atoms: CAV_7  and  CAK_11 
REMARK    7  A    between atoms: CAK_11  and  CAJ_12 
REMARK    8  A    between atoms: CAJ_12  and  NAN_13 
REMARK    9  A    between atoms: NAN_13  and  CAW_14 
REMARK   10  A    between atoms: CAW_14  and  CAS_15 
REMARK   11  A    between atoms: CAW_14  and  CAL_18 
REMARK   12  A    between atoms: CAL_18  and  CAT_19 
ROOT
ATOM      1  CAJ 8UX d   1      14.865  22.817  22.942  0.00  0.00     0.085 C 
ATOM      2  H10 8UX d   1      14.830  23.578  22.148  0.00  0.00     0.075 H 
ATOM      3  H11 8UX d   1      15.733  23.004  23.592  0.00  0.00     0.075 H 
ENDROOT
BRANCH   1   4
ATOM      4  CAK 8UX d   1      15.071  21.451  22.270  0.00  0.00    -0.006 C 
ATOM      5  H8  8UX d   1      16.016  21.461  21.707  0.00  0.00     0.039 H 
ATOM      6  H9  8UX d   1      15.112  20.668  23.042  0.00  0.00     0.039 H 
BRANCH   4   7
ATOM      7  CAV 8UX d   1      13.892  21.153  21.295  0.00  0.00     0.187 C 
ATOM      8  H7  8UX d   1      14.226  20.305  20.680  0.00  0.00     0.101 H 
BRANCH   7   9
ATOM      9  N   8UX d   1      13.758  22.279  20.323  0.00  0.00    -0.047 N 
ATOM     10  H5  8UX d   1      13.566  23.095  20.882  0.00  0.00     0.279 HD
ATOM     11  H6  8UX d   1      14.665  22.372  19.892  0.00  0.00     0.279 HD
BRANCH   9  12
ATOM     12  CA  8UX d   1      12.782  22.327  19.205  0.00  0.00     0.182 C 
ATOM     13  H1  8UX d   1      13.125  23.106  18.509  0.00  0.00     0.101 H 
BRANCH  12  14
ATOM     14  C   8UX d   1      11.331  22.630  19.564  0.00  0.00     0.204 C 
ATOM     15  O   8UX d   1      11.063  23.168  20.673  0.00  0.00    -0.646 OA
ATOM     16  OXT 8UX d   1      10.535  22.457  18.623  0.00  0.00    -0.646 OA
ENDBRANCH  12  14
BRANCH  12  17
ATOM     17  CB  8UX d   1      12.765  20.976  18.486  0.00  0.00    -0.040 C 
ATOM     18  H2  8UX d   1      13.791  20.700  18.199  0.00  0.00     0.031 H 
ATOM     19  H3  8UX d   1      12.139  21.048  17.584  0.00  0.00     0.031 H 
ATOM     20  H4  8UX d   1      12.353  20.208  19.158  0.00  0.00     0.031 H 
ENDBRANCH  12  17
ENDBRANCH   9  12
ENDBRANCH   7   9
BRANCH   7  21
ATOM     21  CAR 8UX d   1      12.646  20.607  22.009  0.00  0.00     0.204 C 
ATOM     22  OAF 8UX d   1      11.759  21.399  22.396  0.00  0.00    -0.646 OA
ATOM     23  OAC 8UX d   1      12.666  19.370  22.194  0.00  0.00    -0.646 OA
ENDBRANCH   7  21
ENDBRANCH   4   7
ENDBRANCH   1   4
BRANCH   1  24
ATOM     24  NAN 8UX d   1      13.655  22.969  23.759  0.00  0.00    -0.061 N 
ATOM     25  H12 8UX d   1      13.721  22.379  24.574  0.00  0.00     0.278 HD
ATOM     26  H13 8UX d   1      12.847  22.705  23.218  0.00  0.00     0.278 HD
BRANCH  24  27
ATOM     27  CAW 8UX d   1      13.530  24.387  24.180  0.00  0.00     0.189 C 
ATOM     28  H14 8UX d   1      14.489  24.695  24.621  0.00  0.00     0.102 H 
BRANCH  27  29
ATOM     29  CAS 8UX d   1      13.214  25.343  22.985  0.00  0.00     0.205 C 
ATOM     30  OAG 8UX d   1      13.506  26.549  23.154  0.00  0.00    -0.646 OA
ATOM     31  OAD 8UX d   1      12.667  24.877  21.945  0.00  0.00    -0.646 OA
ENDBRANCH  27  29
BRANCH  27  32
ATOM     32  CAL 8UX d   1      12.434  24.529  25.243  0.00  0.00     0.011 C 
ATOM     33  H15 8UX d   1      12.337  25.593  25.506  0.00  0.00     0.046 H 
ATOM     34  H16 8UX d   1      12.734  23.957  26.133  0.00  0.00     0.046 H 
BRANCH  32  35
ATOM     35  CAT 8UX d   1      11.063  24.015  24.769  0.00  0.00     0.030 A 
ATOM     36  CAI 8UX d   1       9.996  23.911  25.562  0.00  0.00     0.025 A 
ATOM     37  NAM 8UX d   1       8.998  23.435  24.815  0.00  0.00    -0.254 NA
ATOM     38  H17 8UX d   1       9.948  24.166  26.620  0.00  0.00     0.117 H 
ATOM     39  CAH 8UX d   1       9.462  23.239  23.579  0.00  0.00     0.063 A 
ATOM     40  NAP 8UX d   1      10.750  23.594  23.543  0.00  0.00    -0.353 N 
ATOM     41  H18 8UX d   1       8.886  22.854  22.739  0.00  0.00     0.143 H 
ATOM     42  H19 8UX d   1      11.378  23.551  22.728  0.00  0.00     0.166 HD
ENDBRANCH  32  35
ENDBRANCH  27  32
ENDBRANCH  24  27
ENDBRANCH   1  24
TORSDOF 12
