REMARK  12 active torsions:
REMARK  status: ('A' for Active; 'I' for Inactive)
REMARK    1  A    between atoms: C_2  and  CA_4 
REMARK    2  A    between atoms: CA_4  and  CB_5 
REMARK    3  A    between atoms: CA_4  and  N_6 
REMARK    4  A    between atoms: N_6  and  CAV_7 
REMARK    5  A    between atoms: CAV_7  and  CAR_8 
REMARK    6  A    between atoms: CAV_7  and  CAK_11 
REMARK    7  A    between atoms: CAK_11  and  CAJ_12 
REMARK    8  A    between atoms: CAJ_12  and  NAN_13 
REMARK    9  A    between atoms: NAN_13  and  CAW_14 
REMARK   10  A    between atoms: CAW_14  and  CAS_15 
REMARK   11  A    between atoms: CAW_14  and  CAL_18 
REMARK   12  A    between atoms: CAL_18  and  CAT_19 
ROOT
ATOM      1  CAJ 8UX d   1     105.938  18.782  51.367  0.00  0.00     0.085 C 
ATOM      2  H10 8UX d   1     105.034  18.175  51.213  0.00  0.00     0.075 H 
ATOM      3  H11 8UX d   1     106.411  18.500  52.319  0.00  0.00     0.075 H 
ENDROOT
BRANCH   1   4
ATOM      4  CAK 8UX d   1     105.532  20.248  51.441  0.00  0.00    -0.006 C 
ATOM      5  H8  8UX d   1     105.152  20.459  52.452  0.00  0.00     0.039 H 
ATOM      6  H9  8UX d   1     106.418  20.870  51.245  0.00  0.00     0.039 H 
BRANCH   4   7
ATOM      7  CAV 8UX d   1     104.459  20.601  50.435  0.00  0.00     0.187 C 
ATOM      8  H7  8UX d   1     103.760  21.301  50.916  0.00  0.00     0.101 H 
BRANCH   7   9
ATOM      9  N   8UX d   1     103.614  19.406  49.955  0.00  0.00    -0.047 N 
ATOM     10  H5  8UX d   1     104.229  18.866  49.367  0.00  0.00     0.279 HD
ATOM     11  H6  8UX d   1     103.400  18.881  50.789  0.00  0.00     0.279 HD
BRANCH   9  12
ATOM     12  CA  8UX d   1     102.356  19.487  49.221  0.00  0.00     0.182 C 
ATOM     13  H1  8UX d   1     101.638  18.840  49.746  0.00  0.00     0.101 H 
BRANCH  12  14
ATOM     14  C   8UX d   1     102.544  18.937  47.821  0.00  0.00     0.204 C 
ATOM     15  O   8UX d   1     103.621  18.395  47.492  0.00  0.00    -0.646 OA
ATOM     16  OXT 8UX d   1     101.594  19.152  47.067  0.00  0.00    -0.646 OA
ENDBRANCH  12  14
BRANCH  12  17
ATOM     17  CB  8UX d   1     101.708  20.921  49.147  0.00  0.00    -0.040 C 
ATOM     18  H2  8UX d   1     101.574  21.316  50.165  0.00  0.00     0.031 H 
ATOM     19  H3  8UX d   1     100.730  20.856  48.647  0.00  0.00     0.031 H 
ATOM     20  H4  8UX d   1     102.367  21.592  48.578  0.00  0.00     0.031 H 
ENDBRANCH  12  17
ENDBRANCH   9  12
ENDBRANCH   7   9
BRANCH   7  21
ATOM     21  CAR 8UX d   1     105.182  21.349  49.308  0.00  0.00     0.204 C 
ATOM     22  OAF 8UX d   1     105.476  22.572  49.452  0.00  0.00    -0.646 OA
ATOM     23  OAC 8UX d   1     105.433  20.674  48.321  0.00  0.00    -0.646 OA
ENDBRANCH   7  21
ENDBRANCH   4   7
ENDBRANCH   1   4
BRANCH   1  24
ATOM     24  NAN 8UX d   1     106.872  18.506  50.285  0.00  0.00    -0.061 N 
ATOM     25  H12 8UX d   1     107.728  19.005  50.473  0.00  0.00     0.278 HD
ATOM     26  H13 8UX d   1     106.468  18.845  49.426  0.00  0.00     0.278 HD
BRANCH  24  27
ATOM     27  CAW 8UX d   1     107.202  17.071  50.107  0.00  0.00     0.189 C 
ATOM     28  H14 8UX d   1     107.621  16.766  51.077  0.00  0.00     0.102 H 
BRANCH  27  29
ATOM     29  CAS 8UX d   1     106.042  16.052  49.883  0.00  0.00     0.205 C 
ATOM     30  OAG 8UX d   1     106.312  14.858  50.305  0.00  0.00    -0.646 OA
ATOM     31  OAD 8UX d   1     104.902  16.460  49.398  0.00  0.00    -0.646 OA
ENDBRANCH  27  29
BRANCH  27  32
ATOM     32  CAL 8UX d   1     108.342  16.947  49.128  0.00  0.00     0.011 C 
ATOM     33  H15 8UX d   1     108.649  15.893  49.057  0.00  0.00     0.046 H 
ATOM     34  H16 8UX d   1     109.191  17.553  49.478  0.00  0.00     0.046 H 
BRANCH  32  35
ATOM     35  CAT 8UX d   1     107.914  17.426  47.789  0.00  0.00     0.030 A 
ATOM     36  CAI 8UX d   1     108.756  17.465  46.812  0.00  0.00     0.025 A 
ATOM     37  NAM 8UX d   1     108.124  17.965  45.767  0.00  0.00    -0.254 NA
ATOM     38  H17 8UX d   1     109.796  17.144  46.844  0.00  0.00     0.117 H 
ATOM     39  CAH 8UX d   1     106.889  18.225  46.098  0.00  0.00     0.063 A 
ATOM     40  NAP 8UX d   1     106.739  17.911  47.373  0.00  0.00    -0.353 N 
ATOM     41  H18 8UX d   1     106.120  18.628  45.441  0.00  0.00     0.143 H 
ATOM     42  H19 8UX d   1     105.884  18.019  47.937  0.00  0.00     0.166 HD
ENDBRANCH  32  35
ENDBRANCH  27  32
ENDBRANCH  24  27
ENDBRANCH   1  24
TORSDOF 12
