REMARK  12 active torsions:
REMARK  status: ('A' for Active; 'I' for Inactive)
REMARK    1  A    between atoms: C6_8  and  O23_9 
REMARK    2  A    between atoms: O23_9  and  C24_10 
REMARK    3  A    between atoms: C4_12  and  C5_11 
REMARK    4  A    between atoms: C4_12  and  C3_13 
REMARK    5  A    between atoms: N14_17  and  O62_18 
REMARK    6  A    between atoms: O62_18  and  C63_19 
REMARK       I    between atoms: N16_26  and  C17_27 
REMARK       I    between atoms: C17_27  and  N19_29 
REMARK    7  A    between atoms: N19_29  and  C20_30 
REMARK    8  A    between atoms: C20_30  and  C30_31 
REMARK    9  A    between atoms: C20_30  and  C21_33 
REMARK   10  A    between atoms: C30_31  and  C35_32 
REMARK   11  A    between atoms: C26_35  and  N57_36 
REMARK   12  A    between atoms: C27_39  and  C31_40 
ROOT
ATOM      1  C1  8W3 d   1      -9.519 -16.738  -6.085  0.00  0.00     0.234 C 
ATOM      2  O2  8W3 d   1      -8.567 -17.215  -5.481  0.00  0.00    -0.272 OA
ATOM      3  C3  8W3 d   1     -10.631 -16.043  -5.311  0.00  0.00     0.043 C 
ATOM      4  C11 8W3 d   1     -12.054 -16.590  -5.482  0.00  0.00     0.005 C 
ATOM      5  N12 8W3 d   1     -12.608 -16.851  -6.764  0.00  0.00    -0.374 N 
ATOM      6  C13 8W3 d   1     -12.088 -16.614  -7.995  0.00  0.00     0.146 C 
ATOM      7  N14 8W3 d   1     -12.703 -16.899  -9.055  0.00  0.00    -0.113 NA
ATOM      8  C15 8W3 d   1     -10.709 -16.034  -8.167  0.00  0.00     0.063 C 
ATOM      9  N16 8W3 d   1      -9.684 -16.825  -7.470  0.00  0.00    -0.263 N 
ATOM     10  C17 8W3 d   1      -8.843 -17.556  -8.323  0.00  0.00     0.326 C 
ATOM     11  O18 8W3 d   1      -9.020 -17.589  -9.498  0.00  0.00    -0.247 OA
ATOM     12  N19 8W3 d   1      -7.898 -18.313  -7.805  0.00  0.00    -0.334 N 
ATOM     13  H9  8W3 d   1     -10.702 -15.097  -5.868  0.00  0.00     0.057 H 
ATOM     14  H10 8W3 d   1     -12.724 -15.864  -4.998  0.00  0.00     0.065 H 
ATOM     15  H11 8W3 d   1     -12.087 -17.542  -4.932  0.00  0.00     0.065 H 
ATOM     16  H12 8W3 d   1     -13.543 -17.284  -6.758  0.00  0.00     0.161 HD
ATOM     17  H18 8W3 d   1     -10.702 -15.011  -7.764  0.00  0.00     0.077 H 
ATOM     18  H19 8W3 d   1     -10.467 -16.007  -9.240  0.00  0.00     0.077 H 
ATOM     19  H20 8W3 d   1      -7.827 -18.352  -6.808  0.00  0.00     0.165 HD
ENDROOT
BRANCH   3  20
ATOM     20  C4  8W3 d   1     -10.305 -15.535  -3.922  0.00  0.00    -0.025 C 
ATOM     21  H7  8W3 d   1     -10.090 -16.418  -3.302  0.00  0.00     0.041 H 
ATOM     22  H8  8W3 d   1      -9.397 -14.921  -4.012  0.00  0.00     0.041 H 
BRANCH  20  23
ATOM     23  C5  8W3 d   1     -11.299 -14.725  -3.185  0.00  0.00    -0.022 A 
ATOM     24  C10 8W3 d   1     -12.169 -15.319  -2.270  0.00  0.00    -0.053 A 
ATOM     25  C9  8W3 d   1     -13.053 -14.495  -1.585  0.00  0.00     0.034 A 
ATOM     26  H1  8W3 d   1     -12.155 -16.389  -2.099  0.00  0.00     0.087 H 
ATOM     27 CL2  8W3 d   1     -14.062 -15.108  -0.439  0.00  0.00    -0.084 Cl
ATOM     28  C8  8W3 d   1     -13.125 -13.122  -1.791  0.00  0.00    -0.059 A 
ATOM     29  C7  8W3 d   1     -12.281 -12.579  -2.743  0.00  0.00    -0.049 A 
ATOM     30  H2  8W3 d   1     -13.814 -12.502  -1.229  0.00  0.00     0.086 H 
ATOM     31  C6  8W3 d   1     -11.348 -13.364  -3.458  0.00  0.00     0.074 A 
ATOM     32  H3  8W3 d   1     -12.337 -11.516  -2.947  0.00  0.00     0.087 H 
BRANCH  31  33
ATOM     33  O23 8W3 d   1     -10.499 -12.984  -4.458  0.00  0.00    -0.355 OA
BRANCH  33  34
ATOM     34  C24 8W3 d   1     -10.387 -11.634  -4.892  0.00  0.00     0.010 C 
ATOM     35  H4  8W3 d   1      -9.646 -11.570  -5.702  0.00  0.00     0.066 H 
ATOM     36  H5  8W3 d   1     -10.065 -11.004  -4.050  0.00  0.00     0.066 H 
ATOM     37  H6  8W3 d   1     -11.363 -11.285  -5.259  0.00  0.00     0.066 H 
ENDBRANCH  33  34
ENDBRANCH  31  33
ENDBRANCH  20  23
ENDBRANCH   3  20
BRANCH  12  38
ATOM     38  C20 8W3 d   1      -6.949 -19.097  -8.583  0.00  0.00     0.039 C 
ATOM     39  H21 8W3 d   1      -6.873 -18.741  -9.621  0.00  0.00     0.080 H 
BRANCH  38  40
ATOM     40  C30 8W3 d   1      -7.516 -20.522  -8.679  0.00  0.00    -0.045 C 
ATOM     41  H22 8W3 d   1      -7.916 -20.667  -9.693  0.00  0.00     0.035 H 
ATOM     42  H23 8W3 d   1      -8.330 -20.620  -7.946  0.00  0.00     0.035 H 
BRANCH  40  43
ATOM     43  C35 8W3 d   1      -6.538 -21.571  -8.419  0.00  0.00    -0.074 C 
ATOM     44  H24 8W3 d   1      -7.023 -22.554  -8.507  0.00  0.00     0.027 H 
ATOM     45  H25 8W3 d   1      -6.134 -21.452  -7.403  0.00  0.00     0.027 H 
ATOM     46  H26 8W3 d   1      -5.720 -21.499  -9.150  0.00  0.00     0.027 H 
ENDBRANCH  40  43
ENDBRANCH  38  40
BRANCH  38  47
ATOM     47  C21 8W3 d   1      -5.718 -18.627  -7.858  0.00  0.00    -0.033 A 
ATOM     48  C25 8W3 d   1      -5.213 -19.220  -6.661  0.00  0.00    -0.049 A 
ATOM     49  C26 8W3 d   1      -4.104 -18.697  -5.989  0.00  0.00     0.043 A 
ATOM     50  H27 8W3 d   1      -5.703 -20.101  -6.262  0.00  0.00     0.087 H 
ATOM     51  C27 8W3 d   1      -3.492 -17.492  -6.472  0.00  0.00     0.067 A 
ATOM     52  C28 8W3 d   1      -4.035 -16.873  -7.631  0.00  0.00    -0.064 A 
ATOM     53  C29 8W3 d   1      -5.130 -17.428  -8.303  0.00  0.00    -0.074 A 
ATOM     54  H31 8W3 d   1      -3.593 -15.955  -8.001  0.00  0.00     0.085 H 
ATOM     55  H30 8W3 d   1      -5.530 -16.928  -9.178  0.00  0.00     0.084 H 
BRANCH  49  56
ATOM     56  N57 8W3 d   1      -3.631 -19.383  -4.886  0.00  0.00    -0.398 N 
ATOM     57  H28 8W3 d   1      -4.102 -20.244  -4.574  0.00  0.00     0.156 HD
ATOM     58  H29 8W3 d   1      -2.808 -19.033  -4.376  0.00  0.00     0.156 HD
ENDBRANCH  49  56
BRANCH  51  59
ATOM     59  C31 8W3 d   1      -2.301 -16.822  -5.811  0.00  0.00     0.211 C 
ATOM     60  O32 8W3 d   1      -1.813 -15.744  -6.296  0.00  0.00    -0.644 OA
ATOM     61  O33 8W3 d   1      -1.800 -17.364  -4.777  0.00  0.00    -0.644 OA
ENDBRANCH  51  59
ENDBRANCH  38  47
ENDBRANCH  12  38
BRANCH   7  62
ATOM     62  O62 8W3 d   1     -14.015 -17.369  -8.779  0.00  0.00    -0.212 OA
BRANCH  62  63
ATOM     63  C63 8W3 d   1     -14.749 -17.859  -9.809  0.00  0.00     0.101 A 
ATOM     64  C68 8W3 d   1     -14.315 -17.949 -11.141  0.00  0.00    -0.048 A 
ATOM     65  C67 8W3 d   1     -15.172 -18.528 -12.109  0.00  0.00    -0.080 A 
ATOM     66  H13 8W3 d   1     -13.336 -17.580 -11.425  0.00  0.00     0.087 H 
ATOM     67  C66 8W3 d   1     -16.398 -19.091 -11.752  0.00  0.00    -0.083 A 
ATOM     68  H14 8W3 d   1     -14.869 -18.534 -13.150  0.00  0.00     0.083 H 
ATOM     69  C65 8W3 d   1     -16.814 -19.012 -10.419  0.00  0.00    -0.080 A 
ATOM     70  H15 8W3 d   1     -17.017 -19.581 -12.495  0.00  0.00     0.083 H 
ATOM     71  C64 8W3 d   1     -15.974 -18.443  -9.457  0.00  0.00    -0.048 A 
ATOM     72  H16 8W3 d   1     -17.788 -19.392 -10.132  0.00  0.00     0.083 H 
ATOM     73  H17 8W3 d   1     -16.276 -18.454  -8.416  0.00  0.00     0.087 H 
ENDBRANCH  62  63
ENDBRANCH   7  62
TORSDOF 12
