REMARK  10 active torsions:
REMARK  status: ('A' for Active; 'I' for Inactive)
REMARK    1  A    between atoms: C01_1  and  O02_2 
REMARK    2  A    between atoms: O02_2  and  C03_3 
REMARK    3  A    between atoms: C06_6  and  C07_7 
REMARK    4  A    between atoms: C08_8  and  C09_9 
REMARK    5  A    between atoms: C09_9  and  C11_11 
REMARK    6  A    between atoms: C14_14  and  O15_15 
REMARK    7  A    between atoms: O15_15  and  C16_16 
REMARK    8  A    between atoms: C20_20  and  C21_21 
REMARK    9  A    between atoms: C20_20  and  C22_22 
REMARK   10  A    between atoms: C26_26  and  O27_27 
ROOT
ATOM      1  C11 8WU d   1      18.156 225.897  40.029  0.00  0.00     0.048 A 
ATOM      2  C12 8WU d   1      18.725 225.656  38.791  0.00  0.00    -0.064 A 
ATOM      3  C13 8WU d   1      17.907 225.227  37.686  0.00  0.00    -0.049 A 
ATOM      4  C14 8WU d   1      16.520 225.043  37.878  0.00  0.00     0.081 A 
ATOM      5  C17 8WU d   1      15.913 225.294  39.172  0.00  0.00     0.031 A 
ATOM      6  C18 8WU d   1      14.478 225.118  39.381  0.00  0.00    -0.068 C 
ATOM      7  C19 8WU d   1      13.854 225.715  40.525  0.00  0.00    -0.070 C 
ATOM      8  C20 8WU d   1      14.723 226.538  41.491  0.00  0.00     0.078 C 
ATOM      9  O23 8WU d   1      16.104 225.984  41.547  0.00  0.00    -0.335 OA
ATOM     10  C24 8WU d   1      16.704 225.716  40.214  0.00  0.00     0.097 A 
ATOM     11  H8  8WU d   1      19.792 225.791  38.652  0.00  0.00     0.085 H 
ATOM     12  H9  8WU d   1      18.352 225.047  36.714  0.00  0.00     0.087 H 
ATOM     13  H13 8WU d   1      13.887 224.538  38.673  0.00  0.00     0.084 H 
ATOM     14  H14 8WU d   1      12.788 225.589  40.706  0.00  0.00     0.081 H 
ENDROOT
BRANCH   1  15
ATOM     15  C09 8WU d   1      19.086 226.361  41.187  0.00  0.00     0.184 C 
ATOM     16  O10 8WU d   1      19.947 227.165  40.953  0.00  0.00    -0.287 OA
BRANCH  15  17
ATOM     17  C08 8WU d   1      18.913 225.796  42.594  0.00  0.00    -0.033 C 
ATOM     18  C07 8WU d   1      18.302 224.562  42.762  0.00  0.00    -0.069 C 
ATOM     19  H6  8WU d   1      17.995 224.030  41.863  0.00  0.00     0.085 H 
ATOM     20  H7  8WU d   1      19.266 226.357  43.458  0.00  0.00     0.089 H 
BRANCH  18  21
ATOM     21  C06 8WU d   1      18.022 223.883  44.116  0.00  0.00    -0.033 A 
ATOM     22  C05 8WU d   1      17.590 222.559  44.095  0.00  0.00    -0.070 A 
ATOM     23  C04 8WU d   1      17.309 221.882  45.329  0.00  0.00    -0.047 A 
ATOM     24  H5  8WU d   1      17.466 222.042  43.150  0.00  0.00     0.084 H 
ATOM     25  C03 8WU d   1      17.458 222.537  46.519  0.00  0.00     0.101 A 
ATOM     26  H4  8WU d   1      16.978 220.850  45.317  0.00  0.00     0.087 H 
ATOM     27  C26 8WU d   1      17.890 223.899  46.529  0.00  0.00     0.099 A 
ATOM     28  C25 8WU d   1      18.161 224.561  45.323  0.00  0.00    -0.038 A 
ATOM     29  H21 8WU d   1      18.478 225.598  45.331  0.00  0.00     0.089 H 
BRANCH  25  30
ATOM     30  O02 8WU d   1      17.191 221.930  47.717  0.00  0.00    -0.353 OA
BRANCH  30  31
ATOM     31  C01 8WU d   1      16.883 220.529  47.713  0.00  0.00     0.010 C 
ATOM     32  H1  8WU d   1      16.694 220.192  48.743  0.00  0.00     0.066 H 
ATOM     33  H2  8WU d   1      17.731 219.968  47.294  0.00  0.00     0.066 H 
ATOM     34  H3  8WU d   1      15.987 220.352  47.099  0.00  0.00     0.066 H 
ENDBRANCH  30  31
ENDBRANCH  25  30
BRANCH  27  35
ATOM     35  O27 8WU d   1      18.038 224.579  47.730  0.00  0.00    -0.358 OA
ATOM     36  H22 8WU d   1      18.938 224.870  47.819  0.00  0.00     0.217 HD
ENDBRANCH  27  35
ENDBRANCH  18  21
ENDBRANCH  15  17
ENDBRANCH   1  15
BRANCH   4  37
ATOM     37  O15 8WU d   1      15.727 224.612  36.792  0.00  0.00    -0.355 OA
BRANCH  37  38
ATOM     38  C16 8WU d   1      16.015 223.301  36.441  0.00  0.00     0.010 C 
ATOM     39  H10 8WU d   1      15.380 223.000  35.594  0.00  0.00     0.066 H 
ATOM     40  H11 8WU d   1      15.819 222.640  37.298  0.00  0.00     0.066 H 
ATOM     41  H12 8WU d   1      17.073 223.223  36.152  0.00  0.00     0.066 H 
ENDBRANCH  37  38
ENDBRANCH   4  37
BRANCH   8  42
ATOM     42  C21 8WU d   1      14.776 228.069  41.159  0.00  0.00    -0.044 C 
ATOM     43  H15 8WU d   1      15.415 228.582  41.893  0.00  0.00     0.032 H 
ATOM     44  H16 8WU d   1      13.760 228.489  41.201  0.00  0.00     0.032 H 
ATOM     45  H17 8WU d   1      15.191 228.211  40.150  0.00  0.00     0.032 H 
ENDBRANCH   8  42
BRANCH   8  46
ATOM     46  C22 8WU d   1      14.148 226.614  42.884  0.00  0.00    -0.044 C 
ATOM     47  H18 8WU d   1      14.037 225.598  43.291  0.00  0.00     0.032 H 
ATOM     48  H19 8WU d   1      13.164 227.105  42.848  0.00  0.00     0.032 H 
ATOM     49  H20 8WU d   1      14.824 227.195  43.529  0.00  0.00     0.032 H 
ENDBRANCH   8  46
TORSDOF 10
