REMARK  5 active torsions:
REMARK  status: ('A' for Active; 'I' for Inactive)
REMARK    1  A    between atoms: CAT_3  and  CAR_4 
REMARK    2  A    between atoms: CAR_4  and  CAP_5 
REMARK    3  A    between atoms: CAH_15  and  CAA_16 
REMARK    4  A    between atoms: CAB_17  and  CAF_18 
REMARK    5  A    between atoms: CAE_21  and  CAG_22 
ROOT
ATOM      1  CAP E0K d   1     -15.134  -0.112   8.077  0.00  0.00     0.123 C 
ATOM      2  CAO E0K d   1     -15.644   0.649   9.167  0.00  0.00     0.251 C 
ATOM      3  OAS E0K d   1     -16.166   1.762   9.030  0.00  0.00    -0.270 OA
ATOM      4  NAN E0K d   1     -15.392   0.219  10.470  0.00  0.00    -0.323 N 
ATOM      5  OAQ E0K d   1     -15.225  -1.539   8.347  0.00  0.00    -0.334 OA
ATOM      6  CAL E0K d   1     -14.735  -1.976   9.570  0.00  0.00     0.097 C 
ATOM      7  CAM E0K d   1     -14.134  -3.221   9.673  0.00  0.00    -0.038 C 
ATOM      8  CAK E0K d   1     -14.768  -1.086  10.649  0.00  0.00     0.068 C 
ATOM      9  CAJ E0K d   1     -14.265  -1.494  11.879  0.00  0.00    -0.053 C 
ATOM     10  CAI E0K d   1     -13.707  -2.771  11.999  0.00  0.00    -0.070 C 
ATOM     11  CAH E0K d   1     -13.685  -3.673  10.941  0.00  0.00    -0.019 C 
ATOM     12  H6  E0K d   1     -15.726   0.120   7.179  0.00  0.00     0.099 H 
ATOM     13  H7  E0K d   1     -15.632   0.788  11.256  0.00  0.00     0.169 HD
ATOM     14  H8  E0K d   1     -14.008  -3.843   8.794  0.00  0.00     0.089 H 
ATOM     15  H9  E0K d   1     -14.305  -0.830  12.735  0.00  0.00     0.087 H 
ATOM     16  H10 E0K d   1     -13.277  -3.067  12.949  0.00  0.00     0.084 H 
ENDROOT
BRANCH  11  17
ATOM     17  CAA E0K d   1     -13.117  -4.934  11.040  0.00  0.00     0.032 A 
ATOM     18  CAB E0K d   1     -13.615  -6.121  10.545  0.00  0.00     0.088 A 
ATOM     19  OAC E0K d   1     -12.794  -7.125  10.804  0.00  0.00    -0.217 OA
ATOM     20  NAD E0K d   1     -11.714  -6.557  11.533  0.00  0.00    -0.133 NA
ATOM     21  CAE E0K d   1     -11.954  -5.244  11.671  0.00  0.00     0.071 A 
BRANCH  18  22
ATOM     22  CAF E0K d   1     -14.921  -6.417   9.831  0.00  0.00    -0.028 C 
ATOM     23  H11 E0K d   1     -14.970  -7.488   9.585  0.00  0.00     0.036 H 
ATOM     24  H12 E0K d   1     -14.975  -5.825   8.905  0.00  0.00     0.036 H 
ATOM     25  H13 E0K d   1     -15.765  -6.153  10.485  0.00  0.00     0.036 H 
ENDBRANCH  18  22
BRANCH  21  26
ATOM     26  CAG E0K d   1     -10.934  -4.363  12.332  0.00  0.00    -0.033 C 
ATOM     27  H14 E0K d   1     -10.120  -4.983  12.736  0.00  0.00     0.035 H 
ATOM     28  H15 E0K d   1     -11.409  -3.803  13.151  0.00  0.00     0.035 H 
ATOM     29  H16 E0K d   1     -10.525  -3.657  11.594  0.00  0.00     0.035 H 
ENDBRANCH  21  26
ENDBRANCH  11  17
BRANCH   1  30
ATOM     30  CAR E0K d   1     -13.682   0.240   7.819  0.00  0.00    -0.023 C 
ATOM     31  H4  E0K d   1     -13.603   1.259   7.413  0.00  0.00     0.038 H 
ATOM     32  H5  E0K d   1     -13.101   0.170   8.751  0.00  0.00     0.038 H 
BRANCH  30  33
ATOM     33  CAT E0K d   1     -13.159  -0.802   6.774  0.00  0.00    -0.019 A 
ATOM     34  CAU E0K d   1     -13.301  -0.566   5.375  0.00  0.00    -0.099 A 
ATOM     35  CAV E0K d   1     -12.069  -0.258   5.943  0.00  0.00    -0.099 A 
ATOM     36  H1  E0K d   1     -13.931  -0.602   4.487  0.00  0.00     0.077 H 
ATOM     37  H2  E0K d   1     -11.050   0.112   5.846  0.00  0.00     0.077 H 
ATOM     38  H3  E0K d   1     -13.168  -1.825   7.178  0.00  0.00     0.052 H 
ENDBRANCH  30  33
ENDBRANCH   1  30
TORSDOF 5
