REMARK  6 active torsions:
REMARK  status: ('A' for Active; 'I' for Inactive)
REMARK    1  A    between atoms: N_1  and  CA_2 
REMARK    2  A    between atoms: CA_2  and  C_3 
REMARK    3  A    between atoms: CA_2  and  CB_5 
REMARK    4  A    between atoms: CB_5  and  CG1_6 
REMARK    5  A    between atoms: CB_5  and  CG2_7 
REMARK    6  A    between atoms: CG1_6  and  CD1_8 
ROOT
ATOM      1  CB  ILE d   1     -12.026  20.818   7.622  0.00  0.00    -0.021 C 
ATOM      2  H5  ILE d   1     -11.815  21.728   7.041  0.00  0.00     0.043 H 
ENDROOT
BRANCH   1   3
ATOM      3  CA  ILE d   1     -13.295  21.063   8.456  0.00  0.00     0.185 C 
ATOM      4  H4  ILE d   1     -13.054  21.805   9.232  0.00  0.00     0.101 H 
BRANCH   3   5
ATOM      5  N   ILE d   1     -13.738  19.848   9.117  0.00  0.00    -0.065 N 
ATOM      6  H1  ILE d   1     -14.569  20.041   9.654  0.00  0.00     0.275 HD
ATOM      7  H2  ILE d   1     -13.011  19.515   9.731  0.00  0.00     0.275 HD
ATOM      8  H3  ILE d   1     -13.941  19.144   8.425  0.00  0.00     0.275 HD
ENDBRANCH   3   5
BRANCH   3   9
ATOM      9  C   ILE d   1     -14.412  21.632   7.583  0.00  0.00     0.204 C 
ATOM     10  O   ILE d   1     -14.205  22.580   6.824  0.00  0.00    -0.646 OA
ATOM     11  OXT ILE d   1     -15.549  21.159   7.610  0.00  0.00    -0.646 OA
ENDBRANCH   3   9
ENDBRANCH   1   3
BRANCH   1  12
ATOM     12  CG1 ILE d   1     -12.248  19.671   6.647  0.00  0.00    -0.063 C 
ATOM     13  H6  ILE d   1     -13.300  19.681   6.325  0.00  0.00     0.033 H 
ATOM     14  H7  ILE d   1     -12.031  18.724   7.162  0.00  0.00     0.033 H 
BRANCH  12  15
ATOM     15  CD1 ILE d   1     -11.382  19.769   5.447  0.00  0.00    -0.076 C 
ATOM     16  H11 ILE d   1     -11.583  18.918   4.779  0.00  0.00     0.027 H 
ATOM     17  H12 ILE d   1     -10.326  19.752   5.755  0.00  0.00     0.027 H 
ATOM     18  H13 ILE d   1     -11.595  20.709   4.917  0.00  0.00     0.027 H 
ENDBRANCH  12  15
ENDBRANCH   1  12
BRANCH   1  19
ATOM     19  CG2 ILE d   1     -10.829  20.544   8.523  0.00  0.00    -0.070 C 
ATOM     20  H8  ILE d   1     -10.691  21.387   9.216  0.00  0.00     0.028 H 
ATOM     21  H9  ILE d   1      -9.926  20.425   7.907  0.00  0.00     0.028 H 
ATOM     22  H10 ILE d   1     -11.005  19.622   9.097  0.00  0.00     0.028 H 
ENDBRANCH   1  19
TORSDOF 6
