REMARK  32 active torsions:
REMARK  status: ('A' for Active; 'I' for Inactive)
REMARK    1  A    between atoms: C1_1  and  O1_2 
REMARK    2  A    between atoms: C1_1  and  O2_3 
REMARK    3  A    between atoms: C1_1  and  N_11 
REMARK    4  A    between atoms: O2_3  and  C2_4 
REMARK    5  A    between atoms: C2_4  and  C3_5 
REMARK    6  A    between atoms: N_11  and  CA_12 
REMARK    7  A    between atoms: CA_12  and  C_13 
REMARK    8  A    between atoms: CA_12  and  CB_15 
REMARK       I    between atoms: C_13  and  N_20 
REMARK    9  A    between atoms: CB_15  and  CG_16 
REMARK   10  A    between atoms: CG_16  and  CD_17 
REMARK       I    between atoms: CD_17  and  NE2_19 
REMARK   11  A    between atoms: N_20  and  CA_21 
REMARK   12  A    between atoms: CA_21  and  C_22 
REMARK   13  A    between atoms: CA_21  and  CB_24 
REMARK       I    between atoms: C_22  and  N_27 
REMARK   14  A    between atoms: CB_24  and  OG1_25 
REMARK   15  A    between atoms: CB_24  and  CG2_26 
REMARK   16  A    between atoms: N_27  and  CA_28 
REMARK   17  A    between atoms: CA_28  and  C_29 
REMARK   18  A    between atoms: CA_28  and  CB_31 
REMARK       I    between atoms: C_29  and  N_32 
REMARK   19  A    between atoms: N_32  and  CA_33 
REMARK   20  A    between atoms: CA_33  and  C_34 
REMARK   21  A    between atoms: CA_33  and  CB_36 
REMARK       I    between atoms: C_34  and  N_43 
REMARK   22  A    between atoms: CB_36  and  CG_37 
REMARK   23  A    between atoms: CG_37  and  CD_38 
REMARK   24  A    between atoms: CD_38  and  NE_39 
REMARK       I    between atoms: NE_39  and  CZ_40 
REMARK       I    between atoms: CZ_40  and  NH1_41 
REMARK   25  A    between atoms: N_43  and  CA_44 
REMARK   26  A    between atoms: CA_44  and  C_45 
REMARK   27  A    between atoms: CA_44  and  CB_47 
REMARK       I    between atoms: C_45  and  N_52 
REMARK   28  A    between atoms: CB_47  and  CG_48 
REMARK   29  A    between atoms: CG_48  and  CD_49 
REMARK   30  A    between atoms: CD_49  and  CE_50 
REMARK   31  A    between atoms: CE_50  and  NZ_51 
REMARK       I    between atoms: NZ_51  and  C1_53 
REMARK   32  A    between atoms: C1_53  and  C2_54 
ROOT
ATOM      1  CA  ALA d   1      21.267 -11.870  37.195  0.00  0.00     0.086 C 
ATOM      2  H27 ALA d   1      21.849 -11.887  36.262  0.00  0.00     0.086 H 
ENDROOT
BRANCH   1   3
ATOM      3  N   ALA d   1      21.792 -10.822  38.050  0.00  0.00    -0.346 N 
ATOM      4  C   THR d   1      21.891  -9.575  37.600  0.00  0.00     0.243 C 
ATOM      5  O   THR d   1      21.717  -9.285  36.413  0.00  0.00    -0.271 OA
ATOM      6  H26 ALA d   1      22.081 -11.039  38.983  0.00  0.00     0.163 HD
BRANCH   4   7
ATOM      7  CA  THR d   1      22.220  -8.520  38.654  0.00  0.00     0.113 C 
ATOM      8  H20 THR d   1      23.167  -8.790  39.143  0.00  0.00     0.091 H 
BRANCH   7   9
ATOM      9  N   THR d   1      22.376  -7.215  38.030  0.00  0.00    -0.344 N 
ATOM     10  C   GLN d   1      23.361  -6.968  37.167  0.00  0.00     0.249 C 
ATOM     11  O   GLN d   1      24.276  -7.766  36.956  0.00  0.00    -0.271 OA
ATOM     12  H19 THR d   1      21.729  -6.486  38.254  0.00  0.00     0.163 HD
BRANCH  10  13
ATOM     13  CA  GLN d   1      23.320  -5.620  36.442  0.00  0.00     0.183 C 
ATOM     14  H12 GLN d   1      22.845  -4.885  37.108  0.00  0.00     0.099 H 
BRANCH  13  15
ATOM     15  N   GLN d   1      24.664  -5.155  36.131  0.00  0.00    -0.012 N 
ATOM     16  H10 GLN d   1      25.148  -5.876  35.620  0.00  0.00     0.284 HD
ATOM     17  H11 GLN d   1      24.599  -4.326  35.562  0.00  0.00     0.284 HD
BRANCH  15  18
ATOM     18  C1  PHQ d   1      25.407  -4.847  37.313  0.00  0.00     0.290 C 
ATOM     19  H1  PHQ d   1      25.839  -5.802  37.647  0.00  0.00     0.177 H 
BRANCH  18  20
ATOM     20  O1  PHQ d   1      25.011  -4.397  38.377  0.00  0.00    -0.350 OA
ATOM     21  H2  PHQ d   1      25.740  -4.332  38.983  0.00  0.00     0.214 HD
ENDBRANCH  18  20
BRANCH  18  22
ATOM     22  O2  PHQ d   1      26.390  -4.176  36.578  0.00  0.00    -0.335 OA
BRANCH  22  23
ATOM     23  C2  PHQ d   1      27.359  -3.488  37.387  0.00  0.00     0.048 C 
ATOM     24  H3  PHQ d   1      28.370  -3.845  37.141  0.00  0.00     0.082 H 
ATOM     25  H4  PHQ d   1      27.154  -3.674  38.452  0.00  0.00     0.082 H 
BRANCH  23  26
ATOM     26  C3  PHQ d   1      27.252  -1.986  37.092  0.00  0.00    -0.034 A 
ATOM     27  C4  PHQ d   1      28.247  -1.343  36.303  0.00  0.00    -0.075 A 
ATOM     28  C5  PHQ d   1      28.151   0.003  36.039  0.00  0.00    -0.082 A 
ATOM     29  H5  PHQ d   1      29.080  -1.914  35.910  0.00  0.00     0.084 H 
ATOM     30  C6  PHQ d   1      27.080   0.734  36.542  0.00  0.00    -0.083 A 
ATOM     31  H6  PHQ d   1      28.909   0.494  35.440  0.00  0.00     0.083 H 
ATOM     32  C7  PHQ d   1      26.102   0.097  37.316  0.00  0.00    -0.082 A 
ATOM     33  H7  PHQ d   1      27.002   1.795  36.335  0.00  0.00     0.083 H 
ATOM     34  C8  PHQ d   1      26.203  -1.270  37.583  0.00  0.00    -0.075 A 
ATOM     35  H8  PHQ d   1      25.266   0.665  37.708  0.00  0.00     0.083 H 
ATOM     36  H9  PHQ d   1      25.445  -1.762  38.182  0.00  0.00     0.084 H 
ENDBRANCH  23  26
ENDBRANCH  22  23
ENDBRANCH  18  22
ENDBRANCH  15  18
ENDBRANCH  13  15
BRANCH  13  37
ATOM     37  CB  GLN d   1      22.485  -5.722  35.158  0.00  0.00    -0.022 C 
ATOM     38  H13 GLN d   1      23.044  -6.325  34.428  0.00  0.00     0.037 H 
ATOM     39  H14 GLN d   1      22.337  -4.708  34.759  0.00  0.00     0.037 H 
BRANCH  37  40
ATOM     40  CG  GLN d   1      21.128  -6.357  35.363  0.00  0.00     0.011 C 
ATOM     41  H15 GLN d   1      20.617  -5.826  36.179  0.00  0.00     0.047 H 
ATOM     42  H16 GLN d   1      21.277  -7.409  35.647  0.00  0.00     0.047 H 
BRANCH  40  43
ATOM     43  CD  GLN d   1      20.241  -6.316  34.141  0.00  0.00     0.215 C 
ATOM     44  OE1 GLN d   1      19.402  -7.192  33.948  0.00  0.00    -0.274 OA
ATOM     45  NE2 GLN d   1      20.409  -5.292  33.314  0.00  0.00    -0.370 N 
ATOM     46  H17 GLN d   1      19.847  -5.217  32.490  0.00  0.00     0.159 HD
ATOM     47  H18 GLN d   1      21.097  -4.595  33.515  0.00  0.00     0.159 HD
ENDBRANCH  40  43
ENDBRANCH  37  40
ENDBRANCH  13  37
ENDBRANCH  10  13
ENDBRANCH   7   9
BRANCH   7  48
ATOM     48  CB  THR d   1      21.115  -8.488  39.708  0.00  0.00     0.060 C 
ATOM     49  H21 THR d   1      21.156  -9.416  40.297  0.00  0.00     0.086 H 
BRANCH  48  50
ATOM     50  OG1 THR d   1      19.840  -8.397  39.058  0.00  0.00    -0.393 OA
ATOM     51  H22 THR d   1      19.719  -9.151  38.493  0.00  0.00     0.210 HD
ENDBRANCH  48  50
BRANCH  48  52
ATOM     52  CG2 THR d   1      21.293  -7.303  40.641  0.00  0.00    -0.050 C 
ATOM     53  H23 THR d   1      20.487  -7.301  41.390  0.00  0.00     0.031 H 
ATOM     54  H24 THR d   1      21.255  -6.370  40.060  0.00  0.00     0.031 H 
ATOM     55  H25 THR d   1      22.265  -7.379  41.149  0.00  0.00     0.031 H 
ENDBRANCH  48  52
ENDBRANCH   7  48
ENDBRANCH   4   7
ENDBRANCH   1   3
BRANCH   1  56
ATOM     56  C   ALA d   1      19.806 -11.577  36.855  0.00  0.00     0.240 C 
ATOM     57  O   ALA d   1      19.151 -10.726  37.464  0.00  0.00    -0.271 OA
ATOM     58  N   ARG d   1      19.299 -12.294  35.860  0.00  0.00    -0.346 N 
ATOM     59  H31 ARG d   1      19.876 -12.967  35.398  0.00  0.00     0.163 HD
BRANCH  58  60
ATOM     60  CA  ARG d   1      17.919 -12.121  35.426  0.00  0.00     0.089 C 
ATOM     61  H32 ARG d   1      17.428 -11.410  36.107  0.00  0.00     0.087 H 
BRANCH  60  62
ATOM     62  C   ARG d   1      17.168 -13.443  35.485  0.00  0.00     0.241 C 
ATOM     63  O   ARG d   1      17.766 -14.497  35.694  0.00  0.00    -0.271 OA
ATOM     64  N   LYS d   1      15.855 -13.383  35.297  0.00  0.00    -0.346 N 
ATOM     65  H44 LYS d   1      15.422 -12.495  35.145  0.00  0.00     0.163 HD
BRANCH  64  66
ATOM     66  CA  LYS d   1      15.021 -14.604  35.308  0.00  0.00     0.089 C 
ATOM     67  H45 LYS d   1      15.604 -15.477  34.978  0.00  0.00     0.087 H 
BRANCH  66  68
ATOM     68  C   LYS d   1      13.840 -14.319  34.306  0.00  0.00     0.238 C 
ATOM     69  O   LYS d   1      13.487 -13.177  34.081  0.00  0.00    -0.271 OA
ATOM     70  N   NH2 d   1      13.182 -15.365  33.668  0.00  0.00    -0.368 N 
ATOM     71  H55 NH2 d   1      12.433 -15.172  33.034  0.00  0.00     0.159 HD
ATOM     72  H56 NH2 d   1      13.457 -16.310  33.844  0.00  0.00     0.159 HD
ENDBRANCH  66  68
BRANCH  66  73
ATOM     73  CB  LYS d   1      14.474 -14.849  36.753  0.00  0.00    -0.038 C 
ATOM     74  H46 LYS d   1      15.328 -14.901  37.444  0.00  0.00     0.036 H 
ATOM     75  H47 LYS d   1      13.935 -15.808  36.763  0.00  0.00     0.036 H 
BRANCH  73  76
ATOM     76  CG  LYS d   1      13.514 -13.744  37.244  0.00  0.00    -0.061 C 
ATOM     77  H48 LYS d   1      12.666 -13.698  36.545  0.00  0.00     0.033 H 
ATOM     78  H49 LYS d   1      14.059 -12.789  37.223  0.00  0.00     0.033 H 
BRANCH  76  79
ATOM     79  CD  LYS d   1      12.948 -13.935  38.663  0.00  0.00    -0.050 C 
ATOM     80  H50 LYS d   1      13.765 -14.290  39.309  0.00  0.00     0.035 H 
ATOM     81  H51 LYS d   1      12.160 -14.701  38.614  0.00  0.00     0.035 H 
BRANCH  79  82
ATOM     82  CE  LYS d   1      12.341 -12.668  39.313  0.00  0.00    -0.004 C 
ATOM     83  H52 LYS d   1      11.643 -12.220  38.591  0.00  0.00     0.064 H 
ATOM     84  H53 LYS d   1      13.163 -11.965  39.514  0.00  0.00     0.064 H 
BRANCH  82  85
ATOM     85  NZ  LYS d   1      11.614 -12.880  40.568  0.00  0.00    -0.355 N 
ATOM     86  C1  FOA d   1      11.918 -12.240  41.773  0.00  0.00     0.275 C 
ATOM     87  O6  FOA d   1      12.837 -11.450  41.811  0.00  0.00    -0.265 OA
ATOM     88  H54 LYS d   1      10.850 -13.525  40.562  0.00  0.00     0.162 HD
BRANCH  86  89
ATOM     89  C2  FOA d   1      11.144 -12.488  43.063  0.00  0.00     0.142 A 
ATOM     90  C3  FOA d   1      11.285 -12.064  44.351  0.00  0.00    -0.043 A 
ATOM     91  C4  FOA d   1      10.240 -12.644  45.118  0.00  0.00    -0.059 A 
ATOM     92  H57 LYS d   1      12.061 -11.399  44.725  0.00  0.00     0.088 H 
ATOM     93  C5  FOA d   1       9.528 -13.398  44.246  0.00  0.00     0.020 A 
ATOM     94  H58 LYS d   1      10.051 -12.511  46.182  0.00  0.00     0.086 H 
ATOM     95  O8  FOA d   1      10.049 -13.333  42.965  0.00  0.00    -0.317 OA
ATOM     96  H59 LYS d   1       8.652 -13.984  44.520  0.00  0.00     0.123 H 
ENDBRANCH  86  89
ENDBRANCH  82  85
ENDBRANCH  79  82
ENDBRANCH  76  79
ENDBRANCH  73  76
ENDBRANCH  66  73
ENDBRANCH  64  66
ENDBRANCH  60  62
BRANCH  60  97
ATOM     97  CB  ARG d   1      17.868 -11.549  34.010  0.00  0.00    -0.036 C 
ATOM     98  H33 ARG d   1      16.813 -11.424  33.725  0.00  0.00     0.036 H 
ATOM     99  H34 ARG d   1      18.349 -12.267  33.329  0.00  0.00     0.036 H 
BRANCH  97 100
ATOM    100  CG  ARG d   1      18.564 -10.210  33.860  0.00  0.00    -0.048 C 
ATOM    101  H35 ARG d   1      19.614 -10.315  34.170  0.00  0.00     0.035 H 
ATOM    102  H36 ARG d   1      18.064  -9.472  34.504  0.00  0.00     0.035 H 
BRANCH 100 103
ATOM    103  CD  ARG d   1      18.518  -9.724  32.420  0.00  0.00     0.009 C 
ATOM    104  H37 ARG d   1      18.998 -10.476  31.776  0.00  0.00     0.064 H 
ATOM    105  H38 ARG d   1      19.068  -8.774  32.348  0.00  0.00     0.064 H 
BRANCH 103 106
ATOM    106  NE  ARG d   1      17.150  -9.512  31.958  0.00  0.00    -0.227 N 
ATOM    107  CZ  ARG d   1      16.461  -8.390  32.143  0.00  0.00     0.665 C 
ATOM    108  NH1 ARG d   1      17.009  -7.367  32.786  0.00  0.00    -0.235 N 
ATOM    109  NH2 ARG d   1      15.221  -8.292  31.684  0.00  0.00    -0.235 N 
ATOM    110  H40 ARG d   1      16.471  -6.500  32.927  0.00  0.00     0.174 HD
ATOM    111  H41 ARG d   1      17.972  -7.440  33.144  0.00  0.00     0.174 HD
ATOM    112  H42 ARG d   1      14.793  -9.084  31.184  0.00  0.00     0.174 HD
ATOM    113  H43 ARG d   1      14.686  -7.423  31.827  0.00  0.00     0.174 HD
ATOM    114  H39 ARG d   1      16.688 -10.283  31.455  0.00  0.00     0.177 HD
ENDBRANCH 103 106
ENDBRANCH 100 103
ENDBRANCH  97 100
ENDBRANCH  60  97
ENDBRANCH  58  60
ENDBRANCH   1  56
BRANCH   1 115
ATOM    115  CB  ALA d   1      21.399 -13.232  37.874  0.00  0.00    -0.049 C 
ATOM    116  H28 ALA d   1      20.996 -14.012  37.212  0.00  0.00     0.030 H 
ATOM    117  H29 ALA d   1      20.836 -13.227  38.819  0.00  0.00     0.030 H 
ATOM    118  H30 ALA d   1      22.460 -13.438  38.080  0.00  0.00     0.030 H 
ENDBRANCH   1 115
TORSDOF 32
