REMARK  4 active torsions:
REMARK  status: ('A' for Active; 'I' for Inactive)
REMARK    1  A    between atoms: C1_1  and  CC_8 
REMARK    2  A    between atoms: CM2_5  and  OM_6 
REMARK    3  A    between atoms: OM_6  and  CV_9 
REMARK    4  A    between atoms: CZ_7  and  O3_12 
ROOT
ATOM      1  C1  VNL d   1      36.751  -3.571  10.776  0.00  0.00     0.043 A 
ATOM      2  CO1 VNL d   1      35.602  -4.278  11.123  0.00  0.00    -0.064 A 
ATOM      3  CO2 VNL d   1      37.267  -2.573  11.621  0.00  0.00    -0.032 A 
ATOM      4  CM1 VNL d   1      34.950  -4.025  12.321  0.00  0.00    -0.047 A 
ATOM      5  CM2 VNL d   1      36.619  -2.280  12.836  0.00  0.00     0.102 A 
ATOM      6  CZ  VNL d   1      35.408  -3.040  13.191  0.00  0.00     0.099 A 
ATOM      7  H1  VNL d   1      35.213  -5.034  10.450  0.00  0.00     0.085 H 
ATOM      8  H2  VNL d   1      38.162  -2.030  11.338  0.00  0.00     0.089 H 
ATOM      9  H3  VNL d   1      34.071  -4.603  12.583  0.00  0.00     0.087 H 
ENDROOT
BRANCH   5  10
ATOM     10  OM  VNL d   1      37.074  -1.322  13.710  0.00  0.00    -0.353 OA
BRANCH  10  11
ATOM     11  CV  VNL d   1      38.394  -0.775  13.609  0.00  0.00     0.010 C 
ATOM     12  H4  VNL d   1      38.544  -0.030  14.404  0.00  0.00     0.066 H 
ATOM     13  H5  VNL d   1      38.517  -0.294  12.628  0.00  0.00     0.066 H 
ATOM     14  H6  VNL d   1      39.134  -1.581  13.718  0.00  0.00     0.066 H 
ENDBRANCH  10  11
ENDBRANCH   5  10
BRANCH   6  15
ATOM     15  O3  VNL d   1      34.724  -2.807  14.352  0.00  0.00    -0.358 OA
ATOM     16  H7  VNL d   1      33.977  -3.393  14.401  0.00  0.00     0.217 HD
ENDBRANCH   6  15
BRANCH   1  17
ATOM     17  CC  VNL d   1      37.394  -3.906   9.470  0.00  0.00     0.209 C 
ATOM     18  O1  VNL d   1      37.371  -5.047   9.003  0.00  0.00    -0.644 OA
ATOM     19  O2  VNL d   1      38.050  -2.854   8.737  0.00  0.00    -0.644 OA
ENDBRANCH   1  17
TORSDOF 4
