REMARK  4 active torsions:
REMARK  status: ('A' for Active; 'I' for Inactive)
REMARK    1  A    between atoms: CAV_4  and  CAA_5 
REMARK    2  A    between atoms: CAS_10  and  OAD_11 
REMARK    3  A    between atoms: CAR_13  and  OAC_14 
REMARK    4  A    between atoms: CAW_22  and  OAE_23 
ROOT
ATOM      1  CAO 36J d   1      -8.257   4.102   5.978  0.00  0.00    -0.041 C 
ATOM      2  CAL 36J d   1      -7.920   2.625   6.130  0.00  0.00    -0.060 C 
ATOM      3  CAM 36J d   1      -9.098   1.764   6.567  0.00  0.00    -0.041 C 
ATOM      4  CAV 36J d   1      -8.990   0.285   6.249  0.00  0.00     0.045 C 
ATOM      5  OAP 36J d   1      -9.634   0.121   4.935  0.00  0.00    -0.312 OA
ATOM      6  CAQ 36J d   1      -9.863  -1.130   4.514  0.00  0.00     0.297 C 
ATOM      7  OAB 36J d   1     -10.108  -2.031   5.271  0.00  0.00    -0.259 OA
ATOM      8  CAU 36J d   1      -9.757  -1.314   3.049  0.00  0.00     0.083 A 
ATOM      9  CAS 36J d   1      -9.419  -2.610   2.594  0.00  0.00     0.085 A 
ATOM     10  CAH 36J d   1      -9.290  -2.882   1.246  0.00  0.00    -0.018 A 
ATOM     11  CAR 36J d   1      -9.499  -1.874   0.318  0.00  0.00     0.069 A 
ATOM     12  CAI 36J d   1      -9.833  -0.591   0.729  0.00  0.00    -0.040 A 
ATOM     13  CAT 36J d   1      -9.970  -0.290   2.083  0.00  0.00    -0.015 A 
ATOM     14  CAG 36J d   1     -10.322   1.089   2.446  0.00  0.00    -0.075 C 
ATOM     15  CAF 36J d   1     -10.748   2.025   1.620  0.00  0.00    -0.102 C 
ATOM     16  CAJ 36J d   1     -11.259   3.371   2.019  0.00  0.00    -0.050 C 
ATOM     17  CAK 36J d   1     -10.184   4.287   2.584  0.00  0.00    -0.060 C 
ATOM     18  CAN 36J d   1      -9.903   4.033   4.056  0.00  0.00    -0.041 C 
ATOM     19  CAW 36J d   1      -8.572   4.552   4.559  0.00  0.00     0.035 C 
ATOM     20  H1  36J d   1      -7.397   4.686   6.337  0.00  0.00     0.036 H 
ATOM     21  H2  36J d   1      -9.134   4.317   6.606  0.00  0.00     0.036 H 
ATOM     22  H3  36J d   1      -7.122   2.527   6.881  0.00  0.00     0.033 H 
ATOM     23  H4  36J d   1      -7.559   2.251   5.161  0.00  0.00     0.033 H 
ATOM     24  H5  36J d   1     -10.001   2.151   6.071  0.00  0.00     0.036 H 
ATOM     25  H6  36J d   1      -9.206   1.868   7.657  0.00  0.00     0.036 H 
ATOM     26  H7  36J d   1      -9.523  -0.297   7.016  0.00  0.00     0.083 H 
ATOM     27  H12 36J d   1      -9.026  -3.880   0.915  0.00  0.00     0.092 H 
ATOM     28  H14 36J d   1      -9.989   0.185  -0.011  0.00  0.00     0.089 H 
ATOM     29  H15 36J d   1     -10.222   1.364   3.495  0.00  0.00     0.084 H 
ATOM     30  H16 36J d   1     -10.725   1.797   0.555  0.00  0.00     0.076 H 
ATOM     31  H17 36J d   1     -12.037   3.235   2.784  0.00  0.00     0.038 H 
ATOM     32  H18 36J d   1     -11.697   3.854   1.133  0.00  0.00     0.038 H 
ATOM     33  H19 36J d   1     -10.513   5.330   2.465  0.00  0.00     0.033 H 
ATOM     34  H20 36J d   1      -9.255   4.129   2.017  0.00  0.00     0.033 H 
ATOM     35  H21 36J d   1      -9.930   2.946   4.225  0.00  0.00     0.036 H 
ATOM     36  H22 36J d   1     -10.699   4.515   4.642  0.00  0.00     0.036 H 
ATOM     37  H23 36J d   1      -7.784   4.161   3.899  0.00  0.00     0.082 H 
ENDROOT
BRANCH   4  38
ATOM     38  CAA 36J d   1      -7.568  -0.212   6.159  0.00  0.00    -0.052 C 
ATOM     39  H8  36J d   1      -7.569  -1.287   5.927  0.00  0.00     0.030 H 
ATOM     40  H9  36J d   1      -7.060  -0.045   7.120  0.00  0.00     0.030 H 
ATOM     41  H10 36J d   1      -7.038   0.334   5.364  0.00  0.00     0.030 H 
ENDBRANCH   4  38
BRANCH  19  42
ATOM     42  OAE 36J d   1      -8.559   5.987   4.485  0.00  0.00    -0.396 OA
ATOM     43  H24 36J d   1      -7.724   6.312   4.801  0.00  0.00     0.210 HD
ENDBRANCH  19  42
BRANCH   9  44
ATOM     44  OAD 36J d   1      -9.216  -3.617   3.471  0.00  0.00    -0.360 OA
ATOM     45  H11 36J d   1     -10.006  -3.757   3.979  0.00  0.00     0.217 HD
ENDBRANCH   9  44
BRANCH  11  46
ATOM     46  OAC 36J d   1      -9.372  -2.134  -1.012  0.00  0.00    -0.361 OA
ATOM     47  H13 36J d   1      -9.547  -1.342  -1.506  0.00  0.00     0.217 HD
ENDBRANCH  11  46
TORSDOF 4
