REMARK  11 active torsions:
REMARK  status: ('A' for Active; 'I' for Inactive)
REMARK    1  A    between atoms: C2_2  and  C1_1 
REMARK    2  A    between atoms: C2_2  and  O2_15 
REMARK    3  A    between atoms: C4_4  and  O4_16 
REMARK    4  A    between atoms: N5_12  and  C5_5 
REMARK    5  A    between atoms: C6_6  and  C7_7 
REMARK    6  A    between atoms: C7_7  and  C8_8 
REMARK    7  A    between atoms: C7_7  and  O7_18 
REMARK    8  A    between atoms: C8_8  and  C9_9 
REMARK    9  A    between atoms: C8_8  and  O8_19 
REMARK   10  A    between atoms: C9_9  and  O9_20 
REMARK   11  A    between atoms: C10_10  and  C11_11 
REMARK       I    between atoms: C10_10  and  N5_12 
ROOT
ATOM      1  C2  SLB d   1       7.159  37.683  -3.268  0.00  0.00     0.256 C 
ATOM      2  C3  SLB d   1       7.631  39.074  -2.900  0.00  0.00     0.023 C 
ATOM      3  C4  SLB d   1       6.854  39.550  -1.743  0.00  0.00     0.063 C 
ATOM      4  C5  SLB d   1       6.980  38.604  -0.564  0.00  0.00     0.064 C 
ATOM      5  C6  SLB d   1       6.643  37.167  -0.944  0.00  0.00     0.091 C 
ATOM      6  O6  SLB d   1       7.368  36.747  -2.127  0.00  0.00    -0.336 OA
ATOM      7  H1  SLB d   1       7.479  39.753  -3.752  0.00  0.00     0.045 H 
ATOM      8  H2  SLB d   1       8.700  39.045  -2.641  0.00  0.00     0.045 H 
ATOM      9  H3  SLB d   1       5.794  39.600  -2.031  0.00  0.00     0.086 H 
ATOM     10  H4  SLB d   1       8.001  38.657  -0.158  0.00  0.00     0.080 H 
ATOM     11  H5  SLB d   1       5.562  37.110  -1.137  0.00  0.00     0.090 H 
ENDROOT
BRANCH   5  12
ATOM     12  C7  SLB d   1       7.007  36.174   0.134  0.00  0.00     0.089 C 
ATOM     13  H6  SLB d   1       6.438  36.419   1.043  0.00  0.00     0.091 H 
BRANCH  12  14
ATOM     14  C8  SLB d   1       6.644  34.745  -0.320  0.00  0.00     0.083 C 
ATOM     15  H7  SLB d   1       7.270  34.487  -1.187  0.00  0.00     0.090 H 
BRANCH  14  16
ATOM     16  C9  SLB d   1       6.920  33.724   0.791  0.00  0.00     0.043 C 
ATOM     17  H8  SLB d   1       7.974  33.798   1.096  0.00  0.00     0.078 H 
ATOM     18  H9  SLB d   1       6.719  32.712   0.409  0.00  0.00     0.078 H 
BRANCH  16  19
ATOM     19  O9  SLB d   1       6.098  33.968   1.907  0.00  0.00    -0.398 OA
ATOM     20  H18 SLB d   1       5.186  33.902   1.648  0.00  0.00     0.209 HD
ENDBRANCH  16  19
ENDBRANCH  14  16
BRANCH  14  21
ATOM     21  O8  SLB d   1       5.290  34.700  -0.717  0.00  0.00    -0.391 OA
ATOM     22  H17 SLB d   1       4.736  34.900   0.028  0.00  0.00     0.210 HD
ENDBRANCH  14  21
ENDBRANCH  12  14
BRANCH  12  23
ATOM     23  O7  SLB d   1       8.392  36.216   0.435  0.00  0.00    -0.390 OA
ATOM     24  H16 SLB d   1       8.891  35.986  -0.340  0.00  0.00     0.210 HD
ENDBRANCH  12  23
ENDBRANCH   5  12
BRANCH   4  25
ATOM     25  N5  SLB d   1       5.992  38.990   0.455  0.00  0.00    -0.352 N 
ATOM     26  C10 SLB d   1       6.348  39.773   1.611  0.00  0.00     0.214 C 
ATOM     27  O10 SLB d   1       7.472  40.139   1.799  0.00  0.00    -0.274 OA
ATOM     28  H13 SLB d   1       5.042  38.699   0.342  0.00  0.00     0.163 HD
BRANCH  26  29
ATOM     29  C11 SLB d   1       5.224  40.112   2.573  0.00  0.00    -0.003 C 
ATOM     30  H10 SLB d   1       5.623  40.708   3.407  0.00  0.00     0.040 H 
ATOM     31  H11 SLB d   1       4.783  39.183   2.964  0.00  0.00     0.040 H 
ATOM     32  H12 SLB d   1       4.452  40.691   2.045  0.00  0.00     0.040 H 
ENDBRANCH  26  29
ENDBRANCH   4  25
BRANCH   3  33
ATOM     33  O4  SLB d   1       7.305  40.896  -1.381  0.00  0.00    -0.393 OA
ATOM     34  H15 SLB d   1       6.774  41.225  -0.666  0.00  0.00     0.210 HD
ENDBRANCH   3  33
BRANCH   1  35
ATOM     35  C1  SLB d   1       7.986  37.087  -4.387  0.00  0.00     0.238 C 
ATOM     36  O1A SLB d   1       7.553  37.165  -5.566  0.00  0.00    -0.644 OA
ATOM     37  O1B SLB d   1       9.080  36.518  -4.111  0.00  0.00    -0.644 OA
ENDBRANCH   1  35
BRANCH   1  38
ATOM     38  O2  SLB d   1       5.832  37.709  -3.629  0.00  0.00    -0.357 OA
ATOM     39  H14 SLB d   1       5.715  38.309  -4.356  0.00  0.00     0.213 HD
ENDBRANCH   1  38
TORSDOF 11
