REMARK  3 active torsions:
REMARK  status: ('A' for Active; 'I' for Inactive)
REMARK    1  A    between atoms: N4_21  and  C2_3 
REMARK    2  A    between atoms: C3_5  and  N3_20 
REMARK    3  A    between atoms: C4_6  and  C5_7 
REMARK       I    between atoms: C5_7  and  N5_16 
REMARK       I    between atoms: N5_16  and  C12_14 
REMARK       I    between atoms: C12_14  and  N7_17 
ROOT
ATOM      1  C1  HMX d   1     -28.079 -16.965  -1.694  0.00  0.00     0.172 A 
ATOM      2  N1  HMX d   1     -27.689 -16.044  -3.820  0.00  0.00    -0.208 NA
ATOM      3  C2  HMX d   1     -27.379 -16.081  -2.499  0.00  0.00     0.169 A 
ATOM      4  N2  HMX d   1     -29.015 -17.761  -2.193  0.00  0.00    -0.223 NA
ATOM      5  C3  HMX d   1     -28.630 -16.856  -4.346  0.00  0.00     0.158 A 
ATOM      6  C4  HMX d   1     -29.326 -17.706  -3.503  0.00  0.00     0.172 A 
ATOM      7 CL1  HMX d   1     -27.805 -17.175   0.056  0.00  0.00    -0.058 Cl
ENDROOT
BRANCH   3   8
ATOM      8  N4  HMX d   1     -26.405 -15.189  -2.013  0.00  0.00    -0.363 N 
ATOM      9  C6  HMX d   1     -26.251 -14.913  -0.577  0.00  0.00    -0.003 C 
ATOM     10  C7  HMX d   1     -25.909 -13.446  -0.329  0.00  0.00    -0.050 C 
ATOM     11  H1  HMX d   1     -27.193 -15.153  -0.063  0.00  0.00     0.064 H 
ATOM     12  H2  HMX d   1     -25.443 -15.542  -0.176  0.00  0.00     0.064 H 
ATOM     13  C8  HMX d   1     -27.001 -12.511  -0.833  0.00  0.00    -0.064 C 
ATOM     14  H3  HMX d   1     -24.970 -13.208  -0.850  0.00  0.00     0.035 H 
ATOM     15  H4  HMX d   1     -25.779 -13.290   0.752  0.00  0.00     0.035 H 
ATOM     16  C9  HMX d   1     -27.248 -12.604  -2.337  0.00  0.00    -0.064 C 
ATOM     17  H5  HMX d   1     -26.710 -11.478  -0.593  0.00  0.00     0.033 H 
ATOM     18  H6  HMX d   1     -27.938 -12.759  -0.312  0.00  0.00     0.033 H 
ATOM     19  C10 HMX d   1     -26.044 -13.053  -3.173  0.00  0.00    -0.050 C 
ATOM     20  H7  HMX d   1     -27.557 -11.610  -2.693  0.00  0.00     0.033 H 
ATOM     21  H8  HMX d   1     -28.064 -13.323  -2.503  0.00  0.00     0.033 H 
ATOM     22  C11 HMX d   1     -25.555 -14.483  -2.965  0.00  0.00    -0.003 C 
ATOM     23  H9  HMX d   1     -25.207 -12.378  -2.940  0.00  0.00     0.035 H 
ATOM     24  H10 HMX d   1     -26.317 -12.946  -4.233  0.00  0.00     0.035 H 
ATOM     25  H11 HMX d   1     -24.525 -14.459  -2.580  0.00  0.00     0.064 H 
ATOM     26  H12 HMX d   1     -25.574 -15.014  -3.928  0.00  0.00     0.064 H 
ENDBRANCH   3   8
BRANCH   5  27
ATOM     27  N3  HMX d   1     -28.888 -16.761  -5.685  0.00  0.00    -0.382 N 
ATOM     28  H18 HMX d   1     -29.600 -17.367  -6.117  0.00  0.00     0.157 HD
ATOM     29  H19 HMX d   1     -28.370 -16.084  -6.263  0.00  0.00     0.157 HD
ENDBRANCH   5  27
BRANCH   6  30
ATOM     30  C5  HMX d   1     -30.376 -18.658  -3.939  0.00  0.00     0.292 C 
ATOM     31  O1  HMX d   1     -30.520 -18.866  -5.134  0.00  0.00    -0.265 OA
ATOM     32  N5  HMX d   1     -31.075 -19.233  -2.942  0.00  0.00    -0.155 N 
ATOM     33  C12 HMX d   1     -32.046 -20.136  -3.079  0.00  0.00     0.672 C 
ATOM     34  H13 HMX d   1     -30.843 -18.956  -2.009  0.00  0.00     0.187 HD
ATOM     35  N7  HMX d   1     -32.662 -20.594  -1.989  0.00  0.00    -0.235 N 
ATOM     36  N6  HMX d   1     -32.403 -20.585  -4.277  0.00  0.00    -0.235 N 
ATOM     37  H14 HMX d   1     -33.414 -21.292  -2.078  0.00  0.00     0.174 HD
ATOM     38  H15 HMX d   1     -32.386 -20.250  -1.058  0.00  0.00     0.174 HD
ATOM     39  H16 HMX d   1     -31.929 -20.233  -5.121  0.00  0.00     0.174 HD
ATOM     40  H17 HMX d   1     -33.154 -21.285  -4.362  0.00  0.00     0.174 HD
ENDBRANCH   6  30
TORSDOF 3
