REMARK  5 active torsions:
REMARK  status: ('A' for Active; 'I' for Inactive)
REMARK    1  A    between atoms: N1_1  and  C4_18 
REMARK       I    between atoms: C9_3  and  N7_4 
REMARK    2  A    between atoms: C6_8  and  C9_3 
REMARK       I    between atoms: N7_4  and  C10_5 
REMARK       I    between atoms: C10_5  and  N9_6 
REMARK    3  A    between atoms: C7_10  and  N6_11 
REMARK    4  A    between atoms: C8_13  and  N5_20 
REMARK    5  A    between atoms: C3_15  and  C5_14 
ROOT
ATOM      1  C6  27I d   1     -29.082 -17.826  -3.055  0.00  0.00     0.171 A 
ATOM      2  N3  27I d   1     -28.598 -17.977  -1.793  0.00  0.00    -0.235 NA
ATOM      3  C7  27I d   1     -28.546 -16.839  -3.866  0.00  0.00     0.158 A 
ATOM      4  N4  27I d   1     -27.569 -16.054  -3.355  0.00  0.00    -0.209 NA
ATOM      5  C8  27I d   1     -27.080 -16.204  -2.092  0.00  0.00     0.158 A 
ATOM      6  C5  27I d   1     -27.609 -17.205  -1.257  0.00  0.00     0.116 A 
ENDROOT
BRANCH   5   7
ATOM      7  N5  27I d   1     -26.110 -15.264  -1.716  0.00  0.00    -0.364 N 
ATOM      8  C16 27I d   1     -26.448 -14.336  -0.614  0.00  0.00    -0.004 C 
ATOM      9  C15 27I d   1     -26.715 -12.917  -1.097  0.00  0.00    -0.050 C 
ATOM     10  H13 27I d   1     -25.608 -14.313   0.096  0.00  0.00     0.064 H 
ATOM     11  H14 27I d   1     -27.349 -14.709  -0.105  0.00  0.00     0.064 H 
ATOM     12  C14 27I d   1     -25.416 -12.112  -1.144  0.00  0.00    -0.064 C 
ATOM     13  H15 27I d   1     -27.419 -12.427  -0.408  0.00  0.00     0.035 H 
ATOM     14  H16 27I d   1     -27.154 -12.955  -2.105  0.00  0.00     0.035 H 
ATOM     15  C13 27I d   1     -24.325 -12.671  -2.067  0.00  0.00    -0.064 C 
ATOM     16  H17 27I d   1     -25.007 -12.069  -0.124  0.00  0.00     0.033 H 
ATOM     17  H18 27I d   1     -25.660 -11.095  -1.485  0.00  0.00     0.033 H 
ATOM     18  C12 27I d   1     -24.755 -13.768  -3.056  0.00  0.00    -0.050 C 
ATOM     19  H19 27I d   1     -23.531 -13.088  -1.431  0.00  0.00     0.033 H 
ATOM     20  H20 27I d   1     -23.922 -11.832  -2.654  0.00  0.00     0.033 H 
ATOM     21  C11 27I d   1     -24.837 -15.143  -2.403  0.00  0.00    -0.004 C 
ATOM     22  H21 27I d   1     -24.023 -13.810  -3.876  0.00  0.00     0.035 H 
ATOM     23  H22 27I d   1     -25.745 -13.510  -3.461  0.00  0.00     0.035 H 
ATOM     24  H23 27I d   1     -24.759 -15.923  -3.175  0.00  0.00     0.064 H 
ATOM     25  H24 27I d   1     -24.015 -15.258  -1.681  0.00  0.00     0.064 H 
ENDBRANCH   5   7
BRANCH   6  26
ATOM     26  C3  27I d   1     -27.226 -17.518   0.080  0.00  0.00     0.033 A 
ATOM     27  C2  27I d   1     -27.813 -18.539   0.822  0.00  0.00     0.035 A 
ATOM     28  N2  27I d   1     -27.275 -18.646   2.055  0.00  0.00    -0.185 NA
ATOM     29  H8  27I d   1     -28.613 -19.177   0.451  0.00  0.00     0.118 H 
ATOM     30  N1  27I d   1     -26.322 -17.646   2.093  0.00  0.00    -0.285 N 
ATOM     31  C1  27I d   1     -26.274 -16.980   0.944  0.00  0.00     0.012 A 
ATOM     32  H12 27I d   1     -25.603 -16.153   0.716  0.00  0.00     0.115 H 
BRANCH  30  33
ATOM     33  C4  27I d   1     -25.578 -17.525   3.374  0.00  0.00     0.002 C 
ATOM     34  H9  27I d   1     -24.849 -16.705   3.299  0.00  0.00     0.059 H 
ATOM     35  H10 27I d   1     -25.050 -18.467   3.582  0.00  0.00     0.059 H 
ATOM     36  H11 27I d   1     -26.285 -17.313   4.190  0.00  0.00     0.059 H 
ENDBRANCH  30  33
ENDBRANCH   6  26
BRANCH   3  37
ATOM     37  N6  27I d   1     -28.978 -16.620  -5.136  0.00  0.00    -0.382 N 
ATOM     38  H6  27I d   1     -28.551 -15.875  -5.704  0.00  0.00     0.157 HD
ATOM     39  H7  27I d   1     -29.733 -17.200  -5.530  0.00  0.00     0.157 HD
ENDBRANCH   3  37
BRANCH   1  40
ATOM     40  C9  27I d   1     -30.171 -18.747  -3.510  0.00  0.00     0.292 C 
ATOM     41  O1  27I d   1     -30.385 -18.865  -4.703  0.00  0.00    -0.265 OA
ATOM     42  N7  27I d   1     -30.871 -19.363  -2.544  0.00  0.00    -0.155 N 
ATOM     43  C10 27I d   1     -31.866 -20.230  -2.705  0.00  0.00     0.672 C 
ATOM     44  H1  27I d   1     -30.616 -19.146  -1.601  0.00  0.00     0.187 HD
ATOM     45  N9  27I d   1     -32.455 -20.729  -1.624  0.00  0.00    -0.235 N 
ATOM     46  N8  27I d   1     -32.297 -20.586  -3.905  0.00  0.00    -0.235 N 
ATOM     47  H2  27I d   1     -33.228 -21.402  -1.723  0.00  0.00     0.174 HD
ATOM     48  H3  27I d   1     -32.139 -20.443  -0.687  0.00  0.00     0.174 HD
ATOM     49  H4  27I d   1     -31.846 -20.204  -4.748  0.00  0.00     0.174 HD
ATOM     50  H5  27I d   1     -33.083 -21.245  -3.995  0.00  0.00     0.174 HD
ENDBRANCH   1  40
TORSDOF 5
