REMARK  4 active torsions:
REMARK  status: ('A' for Active; 'I' for Inactive)
REMARK    1  A    between atoms: C11_4  and  C8_27 
REMARK    2  A    between atoms: C7_5  and  N1_25 
REMARK    3  A    between atoms: C10_6  and  N4_24 
REMARK       I    between atoms: C12_7  and  N5_18 
REMARK    4  A    between atoms: C9_22  and  C12_7 
REMARK       I    between atoms: N5_18  and  C13_19 
REMARK       I    between atoms: C13_19  and  N6_21 
ROOT
ATOM      1  C7  50I d   1      27.768  15.398 -11.934  0.00  0.00     0.160 A 
ATOM      2  C10 50I d   1      28.863  16.487 -10.178  0.00  0.00     0.158 A 
ATOM      3  N3  50I d   1      27.759  15.893 -10.678  0.00  0.00    -0.209 NA
ATOM      4  C9  50I d   1      30.005  16.587 -10.953  0.00  0.00     0.171 A 
ATOM      5  N2  50I d   1      30.014  16.092 -12.209  0.00  0.00    -0.233 NA
ATOM      6  C8  50I d   1      28.910  15.499 -12.709  0.00  0.00     0.137 A 
ENDROOT
BRANCH   1   7
ATOM      7  N1  50I d   1      26.621  14.784 -12.453  0.00  0.00    -0.364 N 
ATOM      8  C5  50I d   1      25.352  15.504 -12.402  0.00  0.00    -0.004 C 
ATOM      9  C4  50I d   1      24.276  14.487 -12.031  0.00  0.00    -0.050 C 
ATOM     10  H3  50I d   1      25.399  16.298 -11.643  0.00  0.00     0.064 H 
ATOM     11  H4  50I d   1      25.130  15.948 -13.384  0.00  0.00     0.064 H 
ATOM     12  C3  50I d   1      23.608  13.928 -13.283  0.00  0.00    -0.064 C 
ATOM     13  H1  50I d   1      23.516  14.977 -11.405  0.00  0.00     0.035 H 
ATOM     14  H2  50I d   1      24.738  13.662 -11.469  0.00  0.00     0.035 H 
ATOM     15  C2  50I d   1      24.479  12.869 -13.951  0.00  0.00    -0.064 C 
ATOM     16  H23 50I d   1      23.435  14.749 -13.994  0.00  0.00     0.033 H 
ATOM     17  H24 50I d   1      22.645  13.476 -13.004  0.00  0.00     0.033 H 
ATOM     18  C1  50I d   1      25.865  13.414 -14.276  0.00  0.00    -0.050 C 
ATOM     19  H9  50I d   1      24.582  12.010 -13.272  0.00  0.00     0.033 H 
ATOM     20  H10 50I d   1      23.995  12.543 -14.883  0.00  0.00     0.033 H 
ATOM     21  C6  50I d   1      26.739  13.444 -13.027  0.00  0.00    -0.004 C 
ATOM     22  H7  50I d   1      26.338  12.770 -15.032  0.00  0.00     0.035 H 
ATOM     23  H8  50I d   1      25.767  14.435 -14.673  0.00  0.00     0.035 H 
ATOM     24  H5  50I d   1      27.786  13.239 -13.294  0.00  0.00     0.064 H 
ATOM     25  H6  50I d   1      26.390  12.692 -12.304  0.00  0.00     0.064 H 
ENDBRANCH   1   7
BRANCH   6  26
ATOM     26  C11 50I d   1      28.920  14.953 -14.096  0.00  0.00     0.109 A 
ATOM     27  C16 50I d   1      28.798  15.702 -15.282  0.00  0.00    -0.035 A 
ATOM     28  C15 50I d   1      28.868  14.714 -16.325  0.00  0.00     0.001 A 
ATOM     29  H11 50I d   1      28.678  16.779 -15.386  0.00  0.00     0.089 H 
ATOM     30  C20 50I d   1      28.805  14.841 -17.706  0.00  0.00    -0.070 A 
ATOM     31  C14 50I d   1      29.021  13.485 -15.755  0.00  0.00     0.086 A 
ATOM     32  C19 50I d   1      28.904  13.686 -18.479  0.00  0.00    -0.082 A 
ATOM     33  H15 50I d   1      28.682  15.813 -18.171  0.00  0.00     0.084 H 
ATOM     34  C18 50I d   1      29.061  12.435 -17.882  0.00  0.00    -0.080 A 
ATOM     35  H14 50I d   1      28.858  13.761 -19.559  0.00  0.00     0.083 H 
ATOM     36  C17 50I d   1      29.122  12.318 -16.496  0.00  0.00    -0.049 A 
ATOM     37  H13 50I d   1      29.136  11.548 -18.501  0.00  0.00     0.083 H 
ATOM     38  H12 50I d   1      29.244  11.354 -16.016  0.00  0.00     0.087 H 
ATOM     39  O2  50I d   1      29.053  13.621 -14.444  0.00  0.00    -0.307 OA
ENDBRANCH   6  26
BRANCH   2  40
ATOM     40  N4  50I d   1      28.854  16.983  -8.918  0.00  0.00    -0.382 N 
ATOM     41  H21 50I d   1      29.697  17.436  -8.537  0.00  0.00     0.157 HD
ATOM     42  H22 50I d   1      28.004  16.907  -8.341  0.00  0.00     0.157 HD
ENDBRANCH   2  40
BRANCH   4  43
ATOM     43  C12 50I d   1      31.234  17.246 -10.398  0.00  0.00     0.292 C 
ATOM     44  O1  50I d   1      31.438  17.209  -9.195  0.00  0.00    -0.265 OA
ATOM     45  N5  50I d   1      32.213  17.637 -11.398  0.00  0.00    -0.155 N 
ATOM     46  C13 50I d   1      33.392  17.832 -11.050  0.00  0.00     0.672 C 
ATOM     47  H16 50I d   1      31.943  17.748 -12.354  0.00  0.00     0.187 HD
ATOM     48  N7  50I d   1      34.088  18.325 -11.923  0.00  0.00    -0.235 N 
ATOM     49  N6  50I d   1      33.963  17.503  -9.840  0.00  0.00    -0.235 N 
ATOM     50  H17 50I d   1      35.081  18.527 -11.737  0.00  0.00     0.174 HD
ATOM     51  H18 50I d   1      33.682  18.539 -12.845  0.00  0.00     0.174 HD
ATOM     52  H19 50I d   1      33.387  17.086  -9.095  0.00  0.00     0.174 HD
ATOM     53  H20 50I d   1      34.966  17.674  -9.681  0.00  0.00     0.174 HD
ENDBRANCH   4  43
TORSDOF 4
