REMARK  4 active torsions:
REMARK  status: ('A' for Active; 'I' for Inactive)
REMARK    1  A    between atoms: C2_2  and  N4_23 
REMARK    2  A    between atoms: C3_16  and  N3_4 
REMARK    3  A    between atoms: C4_5  and  C6_7 
REMARK       I    between atoms: C6_7  and  N5_6 
REMARK       I    between atoms: N5_6  and  C13_13 
REMARK       I    between atoms: C13_13  and  N7_14 
REMARK    4  A    between atoms: C1_18  and  C5_19 
ROOT
ATOM      1  N1  EAU d   1     -27.449 -16.192  -3.448  0.00  0.00    -0.209 NA
ATOM      2  C2  EAU d   1     -27.044 -16.317  -2.150  0.00  0.00     0.160 A 
ATOM      3  C4  EAU d   1     -29.171 -17.760  -3.150  0.00  0.00     0.171 A 
ATOM      4  C3  EAU d   1     -28.481 -16.885  -3.954  0.00  0.00     0.158 A 
ATOM      5  N2  EAU d   1     -28.812 -17.907  -1.864  0.00  0.00    -0.233 NA
ATOM      6  C1  EAU d   1     -27.775 -17.220  -1.352  0.00  0.00     0.137 A 
ENDROOT
BRANCH   2   7
ATOM      7  N4  EAU d   1     -25.955 -15.510  -1.741  0.00  0.00    -0.364 N 
ATOM      8  C7  EAU d   1     -25.415 -15.435  -0.385  0.00  0.00    -0.004 C 
ATOM      9  C8  EAU d   1     -26.129 -14.257   0.261  0.00  0.00    -0.050 C 
ATOM     10  H4  EAU d   1     -25.625 -16.363   0.166  0.00  0.00     0.064 H 
ATOM     11  H5  EAU d   1     -24.329 -15.261  -0.411  0.00  0.00     0.064 H 
ATOM     12  C9  EAU d   1     -25.591 -12.952  -0.321  0.00  0.00    -0.064 C 
ATOM     13  H6  EAU d   1     -25.954 -14.273   1.347  0.00  0.00     0.035 H 
ATOM     14  H7  EAU d   1     -27.209 -14.329   0.062  0.00  0.00     0.035 H 
ATOM     15  C10 EAU d   1     -26.359 -12.532  -1.569  0.00  0.00    -0.064 C 
ATOM     16  H8  EAU d   1     -24.532 -13.089  -0.584  0.00  0.00     0.033 H 
ATOM     17  H9  EAU d   1     -25.682 -12.160   0.437  0.00  0.00     0.033 H 
ATOM     18  C11 EAU d   1     -26.027 -13.312  -2.849  0.00  0.00    -0.050 C 
ATOM     19  H10 EAU d   1     -26.145 -11.469  -1.756  0.00  0.00     0.033 H 
ATOM     20  H11 EAU d   1     -27.432 -12.660  -1.364  0.00  0.00     0.033 H 
ATOM     21  C12 EAU d   1     -25.274 -14.632  -2.678  0.00  0.00    -0.004 C 
ATOM     22  H21 EAU d   1     -25.413 -12.659  -3.486  0.00  0.00     0.035 H 
ATOM     23  H22 EAU d   1     -26.976 -13.534  -3.359  0.00  0.00     0.035 H 
ATOM     24  H19 EAU d   1     -25.205 -15.134  -3.654  0.00  0.00     0.064 H 
ATOM     25  H20 EAU d   1     -24.262 -14.421  -2.301  0.00  0.00     0.064 H 
ENDBRANCH   2   7
BRANCH   6  26
ATOM     26  C5  EAU d   1     -27.540 -17.573   0.061  0.00  0.00     0.107 A 
ATOM     27  O2  EAU d   1     -28.380 -17.298   1.101  0.00  0.00    -0.320 OA
ATOM     28  C16 EAU d   1     -27.800 -17.828   2.242  0.00  0.00     0.019 A 
ATOM     29  C15 EAU d   1     -26.627 -18.459   1.892  0.00  0.00    -0.059 A 
ATOM     30  H18 EAU d   1     -28.205 -17.757   3.250  0.00  0.00     0.123 H 
ATOM     31  C14 EAU d   1     -26.466 -18.325   0.529  0.00  0.00    -0.046 A 
ATOM     32  H17 EAU d   1     -25.948 -18.972   2.571  0.00  0.00     0.086 H 
ATOM     33  H16 EAU d   1     -25.652 -18.731  -0.069  0.00  0.00     0.087 H 
ENDBRANCH   6  26
BRANCH   4  34
ATOM     34  N3  EAU d   1     -28.841 -16.708  -5.247  0.00  0.00    -0.382 N 
ATOM     35  H1  EAU d   1     -29.633 -17.238  -5.638  0.00  0.00     0.157 HD
ATOM     36  H2  EAU d   1     -28.323 -16.043  -5.839  0.00  0.00     0.157 HD
ENDBRANCH   4  34
BRANCH   3  37
ATOM     37  C6  EAU d   1     -30.338 -18.574  -3.598  0.00  0.00     0.292 C 
ATOM     38  N5  EAU d   1     -31.023 -19.133  -2.592  0.00  0.00    -0.155 N 
ATOM     39  C13 EAU d   1     -31.882 -20.128  -2.737  0.00  0.00     0.672 C 
ATOM     40  H3  EAU d   1     -30.875 -18.774  -1.670  0.00  0.00     0.187 HD
ATOM     41  N7  EAU d   1     -32.499 -20.573  -1.634  0.00  0.00    -0.235 N 
ATOM     42  N6  EAU d   1     -32.112 -20.654  -3.947  0.00  0.00    -0.235 N 
ATOM     43  H12 EAU d   1     -33.176 -21.346  -1.699  0.00  0.00     0.174 HD
ATOM     44  H13 EAU d   1     -32.296 -20.142  -0.721  0.00  0.00     0.174 HD
ATOM     45  H14 EAU d   1     -31.618 -20.284  -4.772  0.00  0.00     0.174 HD
ATOM     46  H15 EAU d   1     -32.783 -21.428  -4.053  0.00  0.00     0.174 HD
ATOM     47  O1  EAU d   1     -30.643 -18.679  -4.765  0.00  0.00    -0.265 OA
ENDBRANCH   3  37
TORSDOF 4
