REMARK  4 active torsions:
REMARK  status: ('A' for Active; 'I' for Inactive)
REMARK    1  A    between atoms: C1_1  and  N4_22 
REMARK    2  A    between atoms: C2_2  and  C5_19 
REMARK       I    between atoms: C7_4  and  N6_3 
REMARK       I    between atoms: N5_14  and  C7_4 
REMARK    3  A    between atoms: C4_11  and  N3_10 
REMARK       I    between atoms: C6_13  and  N5_14 
REMARK    4  A    between atoms: C6_13  and  C3_16 
ROOT
ATOM      1  C1  28I d   1      -0.485  31.685  26.499  0.00  0.00     0.158 A 
ATOM      2  C2  28I d   1      -0.998  32.724  27.285  0.00  0.00     0.115 A 
ATOM      3  C4  28I d   1      -0.435  33.171  24.627  0.00  0.00     0.158 A 
ATOM      4  C3  28I d   1      -0.957  34.178  25.427  0.00  0.00     0.171 A 
ATOM      5  N1  28I d   1      -0.206  31.960  25.187  0.00  0.00    -0.209 NA
ATOM      6  N2  28I d   1      -1.229  33.929  26.727  0.00  0.00    -0.235 NA
ENDROOT
BRANCH   1   7
ATOM      7  N4  28I d   1      -0.145  30.403  26.988  0.00  0.00    -0.364 N 
ATOM      8  C11 28I d   1      -0.378  29.207  26.179  0.00  0.00    -0.004 C 
ATOM      9  C12 28I d   1       1.010  28.614  25.906  0.00  0.00    -0.050 C 
ATOM     10  H5  28I d   1      -1.001  28.487  26.730  0.00  0.00     0.064 H 
ATOM     11  H6  28I d   1      -0.874  29.474  25.234  0.00  0.00     0.064 H 
ATOM     12  C13 28I d   1       1.378  27.523  26.912  0.00  0.00    -0.064 C 
ATOM     13  H7  28I d   1       1.758  29.419  25.966  0.00  0.00     0.035 H 
ATOM     14  H8  28I d   1       1.018  28.181  24.895  0.00  0.00     0.035 H 
ATOM     15  C14 28I d   1       1.799  28.088  28.263  0.00  0.00    -0.064 C 
ATOM     16  H21 28I d   1       2.211  26.933  26.502  0.00  0.00     0.033 H 
ATOM     17  H22 28I d   1       0.504  26.871  27.060  0.00  0.00     0.033 H 
ATOM     18  C15 28I d   1       0.689  28.933  28.877  0.00  0.00    -0.050 C 
ATOM     19  H9  28I d   1       2.034  27.256  28.943  0.00  0.00     0.033 H 
ATOM     20  H10 28I d   1       2.693  28.714  28.127  0.00  0.00     0.033 H 
ATOM     21  C16 28I d   1       0.633  30.326  28.251  0.00  0.00    -0.004 C 
ATOM     22  H19 28I d   1       0.872  29.034  29.957  0.00  0.00     0.035 H 
ATOM     23  H20 28I d   1      -0.275  28.429  28.714  0.00  0.00     0.035 H 
ATOM     24  H17 28I d   1       0.175  31.012  28.979  0.00  0.00     0.064 H 
ATOM     25  H18 28I d   1       1.663  30.650  28.040  0.00  0.00     0.064 H 
ENDBRANCH   1   7
BRANCH   2  26
ATOM     26  C5  28I d   1      -1.397  32.646  28.717  0.00  0.00     0.021 A 
ATOM     27  C10 28I d   1      -2.346  31.801  29.277  0.00  0.00     0.030 A 
ATOM     28  O2  28I d   1      -2.439  32.084  30.620  0.00  0.00    -0.334 OA
ATOM     29  H4  28I d   1      -2.919  31.044  28.744  0.00  0.00     0.124 H 
ATOM     30  C9  28I d   1      -1.563  33.107  30.894  0.00  0.00     0.019 A 
ATOM     31  C8  28I d   1      -0.933  33.458  29.718  0.00  0.00    -0.047 A 
ATOM     32  H3  28I d   1      -1.395  33.561  31.869  0.00  0.00     0.123 H 
ATOM     33  H16 28I d   1      -0.192  34.248  29.605  0.00  0.00     0.087 H 
ENDBRANCH   2  26
BRANCH   3  34
ATOM     34  N3  28I d   1      -0.140  33.368  23.312  0.00  0.00    -0.382 N 
ATOM     35  H11 28I d   1       0.246  32.596  22.750  0.00  0.00     0.157 HD
ATOM     36  H12 28I d   1      -0.303  34.289  22.880  0.00  0.00     0.157 HD
ENDBRANCH   3  34
BRANCH   4  37
ATOM     37  C6  28I d   1      -1.232  35.560  24.948  0.00  0.00     0.292 C 
ATOM     38  O1  28I d   1      -1.223  35.801  23.752  0.00  0.00    -0.265 OA
ATOM     39  N5  28I d   1      -1.389  36.455  25.932  0.00  0.00    -0.155 N 
ATOM     40  C7  28I d   1      -1.639  37.751  25.802  0.00  0.00     0.672 C 
ATOM     41  H13 28I d   1      -1.309  36.108  26.866  0.00  0.00     0.187 HD
ATOM     42  N6  28I d   1      -1.739  38.306  24.603  0.00  0.00    -0.235 N 
ATOM     43  N7  28I d   1      -1.762  38.440  26.850  0.00  0.00    -0.235 N 
ATOM     44  H1  28I d   1      -1.933  39.314  24.517  0.00  0.00     0.174 HD
ATOM     45  H2  28I d   1      -1.622  37.730  23.757  0.00  0.00     0.174 HD
ATOM     46  H14 28I d   1      -1.956  39.449  26.783  0.00  0.00     0.174 HD
ATOM     47  H15 28I d   1      -1.668  37.994  27.774  0.00  0.00     0.174 HD
ENDBRANCH   4  37
TORSDOF 4
