REMARK  4 active torsions:
REMARK  status: ('A' for Active; 'I' for Inactive)
REMARK    1  A    between atoms: C5_1  and  C4_21 
REMARK    2  A    between atoms: C7_4  and  N9_19 
REMARK       I    between atoms: N6_12  and  C16_10 
REMARK       I    between atoms: C16_10  and  N8_13 
REMARK       I    between atoms: C15_15  and  N6_12 
REMARK    3  A    between atoms: C6_17  and  C15_15 
REMARK    4  A    between atoms: C8_20  and  N5_25 
ROOT
ATOM      1  C5  94I d   1     -28.015 -17.072  -1.082  0.00  0.00     0.116 A 
ATOM      2  C7  94I d   1     -28.531 -16.841  -3.783  0.00  0.00     0.158 A 
ATOM      3  N4  94I d   1     -27.617 -16.039  -3.178  0.00  0.00    -0.209 NA
ATOM      4  C6  94I d   1     -29.199 -17.773  -3.009  0.00  0.00     0.171 A 
ATOM      5  N3  94I d   1     -28.912 -17.874  -1.693  0.00  0.00    -0.235 NA
ATOM      6  C8  94I d   1     -27.316 -16.138  -1.855  0.00  0.00     0.158 A 
ENDROOT
BRANCH   6   7
ATOM      7  N5  94I d   1     -26.410 -15.194  -1.346  0.00  0.00    -0.364 N 
ATOM      8  C14 94I d   1     -26.932 -14.310  -0.273  0.00  0.00    -0.004 C 
ATOM      9  C13 94I d   1     -25.822 -13.611   0.523  0.00  0.00    -0.050 C 
ATOM     10  H3  94I d   1     -27.571 -13.541  -0.732  0.00  0.00     0.064 H 
ATOM     11  H4  94I d   1     -27.531 -14.918   0.421  0.00  0.00     0.064 H 
ATOM     12  C12 94I d   1     -25.051 -12.513  -0.216  0.00  0.00    -0.064 C 
ATOM     13  H5  94I d   1     -25.098 -14.378   0.835  0.00  0.00     0.035 H 
ATOM     14  H6  94I d   1     -26.282 -13.157   1.413  0.00  0.00     0.035 H 
ATOM     15  C11 94I d   1     -25.365 -12.351  -1.703  0.00  0.00    -0.064 C 
ATOM     16  H7  94I d   1     -23.978 -12.735  -0.122  0.00  0.00     0.033 H 
ATOM     17  H8  94I d   1     -25.272 -11.556   0.280  0.00  0.00     0.033 H 
ATOM     18  C10 94I d   1     -25.165 -13.586  -2.605  0.00  0.00    -0.050 C 
ATOM     19  H21 94I d   1     -24.720 -11.549  -2.092  0.00  0.00     0.033 H 
ATOM     20  H22 94I d   1     -26.419 -12.047  -1.787  0.00  0.00     0.033 H 
ATOM     21  C9  94I d   1     -25.105 -14.966  -1.951  0.00  0.00    -0.004 C 
ATOM     22  H11 94I d   1     -25.999 -13.603  -3.322  0.00  0.00     0.035 H 
ATOM     23  H12 94I d   1     -24.219 -13.442  -3.147  0.00  0.00     0.035 H 
ATOM     24  H9  94I d   1     -24.320 -14.988  -1.181  0.00  0.00     0.064 H 
ATOM     25  H10 94I d   1     -24.897 -15.737  -2.708  0.00  0.00     0.064 H 
ENDBRANCH   6   7
BRANCH   1  26
ATOM     26  C4  94I d   1     -27.801 -17.374   0.367  0.00  0.00     0.032 A 
ATOM     27  C3  94I d   1     -26.496 -17.527   0.851  0.00  0.00     0.017 A 
ATOM     28  N2  94I d   1     -26.272 -17.847   2.138  0.00  0.00    -0.253 NA
ATOM     29  H1  94I d   1     -25.656 -17.386   0.180  0.00  0.00     0.116 H 
ATOM     30  C2  94I d   1     -27.311 -18.045   2.967  0.00  0.00     0.086 A 
ATOM     31  N1  94I d   1     -28.579 -17.933   2.526  0.00  0.00    -0.253 NA
ATOM     32  H2  94I d   1     -27.126 -18.298   4.005  0.00  0.00     0.146 H 
ATOM     33  C1  94I d   1     -28.852 -17.621   1.249  0.00  0.00     0.017 A 
ATOM     34  H20 94I d   1     -29.879 -17.562   0.907  0.00  0.00     0.116 H 
ENDBRANCH   1  26
BRANCH   2  35
ATOM     35  N9  94I d   1     -28.779 -16.698  -5.112  0.00  0.00    -0.382 N 
ATOM     36  H18 94I d   1     -29.471 -17.304  -5.575  0.00  0.00     0.157 HD
ATOM     37  H19 94I d   1     -28.275 -15.984  -5.656  0.00  0.00     0.157 HD
ENDBRANCH   2  35
BRANCH   4  38
ATOM     38  C15 94I d   1     -30.239 -18.702  -3.534  0.00  0.00     0.292 C 
ATOM     39  N6  94I d   1     -30.944 -19.304  -2.573  0.00  0.00    -0.155 N 
ATOM     40  C16 94I d   1     -31.927 -20.183  -2.707  0.00  0.00     0.672 C 
ATOM     41  H13 94I d   1     -30.700 -19.061  -1.634  0.00  0.00     0.187 HD
ATOM     42  N8  94I d   1     -32.486 -20.664  -1.612  0.00  0.00    -0.235 N 
ATOM     43  N7  94I d   1     -32.352 -20.562  -3.898  0.00  0.00    -0.235 N 
ATOM     44  H14 94I d   1     -33.252 -21.349  -1.683  0.00  0.00     0.174 HD
ATOM     45  H15 94I d   1     -32.156 -20.355  -0.687  0.00  0.00     0.174 HD
ATOM     46  H16 94I d   1     -31.910 -20.182  -4.747  0.00  0.00     0.174 HD
ATOM     47  H17 94I d   1     -33.125 -21.238  -3.978  0.00  0.00     0.174 HD
ATOM     48  O1  94I d   1     -30.434 -18.796  -4.734  0.00  0.00    -0.265 OA
ENDBRANCH   4  38
TORSDOF 4
