REMARK  7 active torsions:
REMARK  status: ('A' for Active; 'I' for Inactive)
REMARK    1  A    between atoms: C7_24  and  N1_1 
REMARK       I    between atoms: C11_3  and  N3_4 
REMARK    2  A    between atoms: C18_8  and  C11_3 
REMARK       I    between atoms: N3_4  and  C12_5 
REMARK       I    between atoms: C12_5  and  N5_6 
REMARK    3  A    between atoms: C8_10  and  C10_11 
REMARK    4  A    between atoms: C15_13  and  O3_14 
REMARK    5  A    between atoms: O3_14  and  C17_15 
REMARK    6  A    between atoms: C14_17  and  O2_19 
REMARK    7  A    between atoms: O2_19  and  C16_20 
ROOT
ATOM      1  C18 32I d   1     -29.078 -17.598  -2.963  0.00  0.00     0.171 A 
ATOM      2  N8  32I d   1     -28.893 -17.528  -1.626  0.00  0.00    -0.235 NA
ATOM      3  C8  32I d   1     -27.936 -16.749  -1.068  0.00  0.00     0.119 A 
ATOM      4  C9  32I d   1     -28.275 -16.835  -3.798  0.00  0.00     0.158 A 
ATOM      5  N2  32I d   1     -28.443 -16.871  -5.139  0.00  0.00    -0.382 N 
ATOM      6  N9  32I d   1     -27.322 -16.047  -3.250  0.00  0.00    -0.209 NA
ATOM      7  C7  32I d   1     -27.102 -15.956  -1.896  0.00  0.00     0.158 A 
ATOM      8  H13 32I d   1     -27.841 -16.300  -5.749  0.00  0.00     0.157 HD
ATOM      9  H14 32I d   1     -29.173 -17.469  -5.551  0.00  0.00     0.157 HD
ENDROOT
BRANCH   7  10
ATOM     10  N1  32I d   1     -26.053 -15.073  -1.488  0.00  0.00    -0.364 N 
ATOM     11  C6  32I d   1     -25.665 -14.837  -0.081  0.00  0.00    -0.004 C 
ATOM     12  C1  32I d   1     -25.202 -13.401   0.189  0.00  0.00    -0.050 C 
ATOM     13  H15 32I d   1     -24.843 -15.522   0.174  0.00  0.00     0.064 H 
ATOM     14  H16 32I d   1     -26.533 -15.050   0.561  0.00  0.00     0.064 H 
ATOM     15  C2  32I d   1     -26.262 -12.361  -0.170  0.00  0.00    -0.064 C 
ATOM     16  H17 32I d   1     -24.300 -13.204  -0.409  0.00  0.00     0.035 H 
ATOM     17  H18 32I d   1     -24.962 -13.304   1.258  0.00  0.00     0.035 H 
ATOM     18  C3  32I d   1     -26.793 -12.429  -1.602  0.00  0.00    -0.064 C 
ATOM     19  H25 32I d   1     -25.823 -11.364  -0.018  0.00  0.00     0.033 H 
ATOM     20  H26 32I d   1     -27.113 -12.495   0.514  0.00  0.00     0.033 H 
ATOM     21  C4  32I d   1     -25.749 -12.888  -2.626  0.00  0.00    -0.050 C 
ATOM     22  H23 32I d   1     -27.637 -13.134  -1.626  0.00  0.00     0.033 H 
ATOM     23  H24 32I d   1     -27.144 -11.427  -1.890  0.00  0.00     0.033 H 
ATOM     24  C5  32I d   1     -25.291 -14.348  -2.523  0.00  0.00    -0.004 C 
ATOM     25  H21 32I d   1     -26.176 -12.741  -3.629  0.00  0.00     0.035 H 
ATOM     26  H22 32I d   1     -24.861 -12.249  -2.508  0.00  0.00     0.035 H 
ATOM     27  H19 32I d   1     -25.445 -14.842  -3.494  0.00  0.00     0.064 H 
ATOM     28  H20 32I d   1     -24.222 -14.372  -2.264  0.00  0.00     0.064 H 
ENDBRANCH   7  10
BRANCH   3  29
ATOM     29  C10 32I d   1     -27.945 -16.853   0.421  0.00  0.00     0.067 A 
ATOM     30  C13 32I d   1     -28.880 -16.093   1.132  0.00  0.00     0.023 A 
ATOM     31  N6  32I d   1     -28.934 -16.167   2.479  0.00  0.00    -0.218 NA
ATOM     32  H6  32I d   1     -29.564 -15.442   0.599  0.00  0.00     0.116 H 
ATOM     33  C14 32I d   1     -28.081 -16.985   3.156  0.00  0.00     0.270 A 
ATOM     34  N7  32I d   1     -27.178 -17.731   2.482  0.00  0.00    -0.182 NA
ATOM     35  C15 32I d   1     -27.087 -17.692   1.131  0.00  0.00     0.182 A 
BRANCH  33  36
ATOM     36  O2  32I d   1     -28.095 -17.082   4.523  0.00  0.00    -0.324 OA
BRANCH  36  37
ATOM     37  C16 32I d   1     -29.254 -17.404   5.288  0.00  0.00     0.013 C 
ATOM     38  H10 32I d   1     -28.996 -17.417   6.357  0.00  0.00     0.067 H 
ATOM     39  H11 32I d   1     -29.627 -18.395   4.989  0.00  0.00     0.067 H 
ATOM     40  H12 32I d   1     -30.033 -16.649   5.109  0.00  0.00     0.067 H 
ENDBRANCH  36  37
ENDBRANCH  33  36
BRANCH  35  41
ATOM     41  O3  32I d   1     -26.148 -18.471   0.505  0.00  0.00    -0.339 OA
BRANCH  41  42
ATOM     42  C17 32I d   1     -25.153 -19.180   1.253  0.00  0.00     0.012 C 
ATOM     43  H7  32I d   1     -24.505 -19.739   0.562  0.00  0.00     0.067 H 
ATOM     44  H8  32I d   1     -25.644 -19.881   1.944  0.00  0.00     0.067 H 
ATOM     45  H9  32I d   1     -24.546 -18.464   1.827  0.00  0.00     0.067 H 
ENDBRANCH  41  42
ENDBRANCH  35  41
ENDBRANCH   3  29
BRANCH   1  46
ATOM     46  C11 32I d   1     -30.167 -18.481  -3.476  0.00  0.00     0.292 C 
ATOM     47  O1  32I d   1     -30.282 -18.653  -4.682  0.00  0.00    -0.265 OA
ATOM     48  N3  32I d   1     -30.993 -18.987  -2.548  0.00  0.00    -0.155 N 
ATOM     49  C12 32I d   1     -31.942 -19.896  -2.750  0.00  0.00     0.672 C 
ATOM     50  H1  32I d   1     -30.884 -18.648  -1.614  0.00  0.00     0.187 HD
ATOM     51  N5  32I d   1     -32.142 -20.375  -3.896  0.00  0.00    -0.235 N 
ATOM     52  N4  32I d   1     -32.685 -20.263  -1.714  0.00  0.00    -0.235 N 
ATOM     53  H2  32I d   1     -32.881 -21.079  -4.038  0.00  0.00     0.174 HD
ATOM     54  H3  32I d   1     -31.567 -20.064  -4.692  0.00  0.00     0.174 HD
ATOM     55  H4  32I d   1     -32.506 -19.860  -0.783  0.00  0.00     0.174 HD
ATOM     56  H5  32I d   1     -33.441 -20.951  -1.840  0.00  0.00     0.174 HD
ENDBRANCH   1  46
TORSDOF 7
