REMARK  4 active torsions:
REMARK  status: ('A' for Active; 'I' for Inactive)
REMARK    1  A    between atoms: C9_8  and  C8_2 
REMARK       I    between atoms: N5_28  and  C20_9 
REMARK       I    between atoms: C20_9  and  N7_29 
REMARK    2  A    between atoms: C10_25  and  C13_12 
REMARK       I    between atoms: C13_12  and  N5_28 
REMARK    3  A    between atoms: C12_18  and  N3_19 
REMARK    4  A    between atoms: C11_23  and  N4_24 
ROOT
ATOM      1  C9  09I d   1      -1.031 -32.721 -27.025  0.00  0.00     0.137 A 
ATOM      2  C12 09I d   1      -0.571 -31.672 -26.217  0.00  0.00     0.160 A 
ATOM      3  N2  09I d   1      -0.212 -32.017 -24.939  0.00  0.00    -0.209 NA
ATOM      4  C11 09I d   1      -0.315 -33.275 -24.455  0.00  0.00     0.158 A 
ATOM      5  C10 09I d   1      -0.809 -34.276 -25.279  0.00  0.00     0.171 A 
ATOM      6  N1  09I d   1      -1.149 -33.973 -26.545  0.00  0.00    -0.233 NA
ENDROOT
BRANCH   2   7
ATOM      7  N3  09I d   1      -0.393 -30.310 -26.606  0.00  0.00    -0.364 N 
ATOM      8  C14 09I d   1      -0.108 -29.292 -25.587  0.00  0.00    -0.004 C 
ATOM      9  C15 09I d   1       1.390 -29.308 -25.256  0.00  0.00    -0.050 C 
ATOM     10  H4  09I d   1      -0.687 -29.511 -24.678  0.00  0.00     0.064 H 
ATOM     11  H5  09I d   1      -0.389 -28.300 -25.971  0.00  0.00     0.064 H 
ATOM     12  C16 09I d   1       2.388 -29.207 -26.419  0.00  0.00    -0.064 C 
ATOM     13  H15 09I d   1       1.598 -30.250 -24.728  0.00  0.00     0.035 H 
ATOM     14  H16 09I d   1       1.585 -28.460 -24.583  0.00  0.00     0.035 H 
ATOM     15  C17 09I d   1       1.839 -28.692 -27.753  0.00  0.00    -0.064 C 
ATOM     16  H13 09I d   1       3.196 -28.529 -26.107  0.00  0.00     0.033 H 
ATOM     17  H14 09I d   1       2.799 -30.212 -26.593  0.00  0.00     0.033 H 
ATOM     18  C18 09I d   1       1.035 -29.772 -28.478  0.00  0.00    -0.050 C 
ATOM     19  H2  09I d   1       1.186 -27.827 -27.562  0.00  0.00     0.033 H 
ATOM     20  H3  09I d   1       2.680 -28.383 -28.391  0.00  0.00     0.033 H 
ATOM     21  C19 09I d   1      -0.403 -29.789 -27.985  0.00  0.00    -0.004 C 
ATOM     22  H10 09I d   1       1.494 -30.753 -28.288  0.00  0.00     0.035 H 
ATOM     23  H11 09I d   1       1.044 -29.566 -29.558  0.00  0.00     0.035 H 
ATOM     24  H6  09I d   1      -1.013 -30.441 -28.628  0.00  0.00     0.064 H 
ATOM     25  H7  09I d   1      -0.817 -28.770 -27.998  0.00  0.00     0.064 H 
ENDBRANCH   2   7
BRANCH   1  26
ATOM     26  C8  09I d   1      -1.553 -32.611 -28.400  0.00  0.00     0.109 A 
ATOM     27  C7  09I d   1      -1.127 -33.117 -29.626  0.00  0.00    -0.032 A 
ATOM     28  C6  09I d   1      -2.104 -32.706 -30.609  0.00  0.00     0.039 A 
ATOM     29  H9  09I d   1      -0.231 -33.708 -29.809  0.00  0.00     0.089 H 
ATOM     30  C5  09I d   1      -2.256 -32.862 -31.988  0.00  0.00     0.129 A 
ATOM     31  C1  09I d   1      -3.059 -32.005 -29.921  0.00  0.00     0.089 A 
ATOM     32  C4  09I d   1      -3.373 -32.308 -32.626  0.00  0.00    -0.045 A 
ATOM     33  F1  09I d   1      -1.332 -33.543 -32.687  0.00  0.00    -0.205 F 
ATOM     34  C3  09I d   1      -4.324 -31.593 -31.898  0.00  0.00    -0.077 A 
ATOM     35  H8  09I d   1      -3.500 -32.436 -33.695  0.00  0.00     0.088 H 
ATOM     36  C2  09I d   1      -4.174 -31.430 -30.520  0.00  0.00    -0.049 A 
ATOM     37  H1  09I d   1      -5.181 -31.163 -32.404  0.00  0.00     0.083 H 
ATOM     38  H12 09I d   1      -4.901 -30.875 -29.938  0.00  0.00     0.087 H 
ATOM     39  O1  09I d   1      -2.743 -31.966 -28.647  0.00  0.00    -0.307 OA
ENDBRANCH   1  26
BRANCH   4  40
ATOM     40  N4  09I d   1       0.055 -33.546 -23.180  0.00  0.00    -0.382 N 
ATOM     41  H17 09I d   1      -0.024 -34.505 -22.814  0.00  0.00     0.157 HD
ATOM     42  H18 09I d   1       0.416 -32.793 -22.577  0.00  0.00     0.157 HD
ENDBRANCH   4  40
BRANCH   5  43
ATOM     43  C13 09I d   1      -0.937 -35.701 -24.873  0.00  0.00     0.292 C 
ATOM     44  O2  09I d   1      -0.809 -36.018 -23.703  0.00  0.00    -0.265 OA
ATOM     45  N5  09I d   1      -1.092 -36.576 -25.886  0.00  0.00    -0.155 N 
ATOM     46  C20 09I d   1      -1.470 -37.843 -25.789  0.00  0.00     0.672 C 
ATOM     47  H19 09I d   1      -0.902 -36.234 -26.806  0.00  0.00     0.187 HD
ATOM     48  N7  09I d   1      -1.535 -38.571 -26.905  0.00  0.00    -0.235 N 
ATOM     49  N6  09I d   1      -1.767 -38.380 -24.609  0.00  0.00    -0.235 N 
ATOM     50  H20 09I d   1      -1.826 -39.558 -26.860  0.00  0.00     0.174 HD
ATOM     51  H21 09I d   1      -1.295 -38.146 -27.812  0.00  0.00     0.174 HD
ATOM     52  H22 09I d   1      -1.713 -37.808 -23.754  0.00  0.00     0.174 HD
ATOM     53  H23 09I d   1      -2.051 -39.368 -24.550  0.00  0.00     0.174 HD
ENDBRANCH   5  43
TORSDOF 4
