REMARK  15 active torsions:
REMARK  status: ('A' for Active; 'I' for Inactive)
REMARK    1  A    between atoms: C6_6  and  N6_7 
REMARK    2  A    between atoms: C1'_13  and  N9_10 
REMARK    3  A    between atoms: O3A_26  and  PA_11 
REMARK    4  A    between atoms: PA_11  and  O5'_34 
REMARK    5  A    between atoms: PB_12  and  O3A_26 
REMARK    6  A    between atoms: O5D_36  and  PB_12 
REMARK    7  A    between atoms: C1D_16  and  O1D_17 
REMARK    8  A    between atoms: C2'_18  and  O2'_19 
REMARK    9  A    between atoms: C2D_22  and  O2D_23 
REMARK   10  A    between atoms: C3'_24  and  O3'_25 
REMARK   11  A    between atoms: C3D_27  and  O3D_28 
REMARK   12  A    between atoms: C5'_33  and  C4'_29 
REMARK   13  A    between atoms: C5D_35  and  C4D_31 
REMARK   14  A    between atoms: O5'_34  and  C5'_33 
REMARK   15  A    between atoms: C5D_35  and  O5D_36 
ROOT
ATOM      1  C5' AR6 d   1       9.444 -17.765  -0.885  0.00  0.00     0.058 C 
ATOM      2  H18 AR6 d   1      10.072 -18.577  -1.281  0.00  0.00     0.079 H 
ATOM      3  H19 AR6 d   1       8.385 -17.992  -1.079  0.00  0.00     0.079 H 
ENDROOT
BRANCH   1   4
ATOM      4  C4' AR6 d   1       9.828 -16.438  -1.519  0.00  0.00     0.089 C 
ATOM      5  C3' AR6 d   1      11.315 -16.135  -1.068  0.00  0.00     0.091 C 
ATOM      6  C2' AR6 d   1      11.343 -14.603  -1.075  0.00  0.00     0.105 C 
ATOM      7  H12 AR6 d   1      11.541 -16.548  -0.074  0.00  0.00     0.091 H 
ATOM      8  C1' AR6 d   1      10.101 -14.245  -0.648  0.00  0.00     0.139 C 
ATOM      9  H8  AR6 d   1      12.134 -14.186  -0.434  0.00  0.00     0.093 H 
ATOM     10  O4' AR6 d   1       9.115 -15.505  -0.932  0.00  0.00    -0.353 OA
ATOM     11  H5  AR6 d   1       9.767 -13.383  -1.244  0.00  0.00     0.122 H 
ATOM     12  H16 AR6 d   1       9.704 -16.445  -2.612  0.00  0.00     0.090 H 
BRANCH   5  13
ATOM     13  O3' AR6 d   1      12.161 -16.616  -1.980  0.00  0.00    -0.390 OA
ATOM     14  H13 AR6 d   1      11.908 -16.304  -2.841  0.00  0.00     0.210 HD
ENDBRANCH   5  13
BRANCH   6  15
ATOM     15  O2' AR6 d   1      11.528 -14.216  -2.493  0.00  0.00    -0.388 OA
ATOM     16  H9  AR6 d   1      11.428 -13.275  -2.579  0.00  0.00     0.210 HD
ENDBRANCH   6  15
BRANCH   8  17
ATOM     17  N9  AR6 d   1      10.033 -13.876   0.722  0.00  0.00    -0.294 N 
ATOM     18  C4  AR6 d   1       9.141 -13.045   1.285  0.00  0.00     0.167 A 
ATOM     19  N3  AR6 d   1       8.092 -12.359   0.771  0.00  0.00    -0.222 NA
ATOM     20  C5  AR6 d   1       9.458 -12.941   2.582  0.00  0.00     0.149 A 
ATOM     21  C2  AR6 d   1       7.355 -11.566   1.596  0.00  0.00     0.091 A 
ATOM     22  N1  AR6 d   1       7.688 -11.465   2.920  0.00  0.00    -0.222 NA
ATOM     23  H1  AR6 d   1       6.506 -11.016   1.206  0.00  0.00     0.146 H 
ATOM     24  C6  AR6 d   1       8.715 -12.141   3.416  0.00  0.00     0.155 A 
ATOM     25  N7  AR6 d   1      10.537 -13.705   2.825  0.00  0.00    -0.236 NA
ATOM     26  C8  AR6 d   1      10.880 -14.283   1.677  0.00  0.00     0.071 A 
ATOM     27  H4  AR6 d   1      11.711 -14.973   1.537  0.00  0.00     0.144 H 
BRANCH  24  28
ATOM     28  N6  AR6 d   1       8.790 -11.809   4.833  0.00  0.00    -0.382 N 
ATOM     29  H2  AR6 d   1       9.524 -12.227   5.422  0.00  0.00     0.157 HD
ATOM     30  H3  AR6 d   1       8.109 -11.156   5.246  0.00  0.00     0.157 HD
ENDBRANCH  24  28
ENDBRANCH   8  17
ENDBRANCH   1   4
BRANCH   1  31
ATOM     31  O5' AR6 d   1       9.667 -17.599   0.496  0.00  0.00    -0.287 OA
BRANCH  31  32
ATOM     32  PA  AR6 d   1       9.947 -18.955   1.370  0.00  0.00     0.417 P 
ATOM     33  O1A AR6 d   1      11.213 -19.609   0.867  0.00  0.00    -0.624 OA
ATOM     34  O2A AR6 d   1       9.920 -18.622   2.852  0.00  0.00    -0.624 OA
BRANCH  32  35
ATOM     35  O3A AR6 d   1       8.632 -19.896   1.073  0.00  0.00    -0.180 OA
BRANCH  35  36
ATOM     36  PB  AR6 d   1       8.643 -21.420   0.455  0.00  0.00     0.417 P 
ATOM     37  O1B AR6 d   1       9.445 -21.517  -0.820  0.00  0.00    -0.624 OA
ATOM     38  O2B AR6 d   1       7.197 -21.790   0.345  0.00  0.00    -0.624 OA
BRANCH  36  39
ATOM     39  O5D AR6 d   1       9.266 -22.460   1.592  0.00  0.00    -0.287 OA
BRANCH  39  40
ATOM     40  C5D AR6 d   1       8.489 -22.712   2.731  0.00  0.00     0.058 C 
ATOM     41  H20 AR6 d   1       8.014 -21.790   3.098  0.00  0.00     0.079 H 
ATOM     42  H21 AR6 d   1       7.716 -23.466   2.524  0.00  0.00     0.079 H 
BRANCH  40  43
ATOM     43  C4D AR6 d   1       9.508 -23.234   3.726  0.00  0.00     0.090 C 
ATOM     44  C3D AR6 d   1       8.754 -23.763   5.072  0.00  0.00     0.092 C 
ATOM     45  C2D AR6 d   1       8.780 -22.687   5.877  0.00  0.00     0.110 C 
ATOM     46  H14 AR6 d   1       7.712 -24.040   4.854  0.00  0.00     0.091 H 
ATOM     47  C1D AR6 d   1      10.099 -21.971   5.566  0.00  0.00     0.156 C 
ATOM     48  H10 AR6 d   1       7.926 -22.030   5.656  0.00  0.00     0.094 H 
ATOM     49  O4D AR6 d   1      10.344 -22.270   4.038  0.00  0.00    -0.349 OA
ATOM     50  H6  AR6 d   1      10.028 -20.893   5.772  0.00  0.00     0.133 H 
ATOM     51  H17 AR6 d   1      10.065 -24.067   3.272  0.00  0.00     0.090 H 
BRANCH  44  52
ATOM     52  O3D AR6 d   1       9.437 -24.924   5.591  0.00  0.00    -0.390 OA
ATOM     53  H15 AR6 d   1       9.036 -25.186   6.412  0.00  0.00     0.210 HD
ENDBRANCH  44  52
BRANCH  45  54
ATOM     54  O2D AR6 d   1       8.739 -23.072   7.289  0.00  0.00    -0.388 OA
ATOM     55  H11 AR6 d   1       9.464 -23.656   7.478  0.00  0.00     0.210 HD
ENDBRANCH  45  54
BRANCH  47  56
ATOM     56  O1D AR6 d   1      11.057 -22.487   6.208  0.00  0.00    -0.369 OA
ATOM     57  H7  AR6 d   1      11.075 -23.424   6.050  0.00  0.00     0.212 HD
ENDBRANCH  47  56
ENDBRANCH  40  43
ENDBRANCH  39  40
ENDBRANCH  36  39
ENDBRANCH  35  36
ENDBRANCH  32  35
ENDBRANCH  31  32
ENDBRANCH   1  31
TORSDOF 15
