REMARK  5 active torsions:
REMARK  status: ('A' for Active; 'I' for Inactive)
REMARK    1  A    between atoms: C5_2  and  C10_6 
REMARK    2  A    between atoms: O21_21  and  C6_3 
REMARK    3  A    between atoms: C16_16  and  C15_8 
REMARK    4  A    between atoms: C16_16  and  C14_15 
REMARK    5  A    between atoms: C16_16  and  O21_21 
ROOT
ATOM      1  C4  MOL d   1      33.782 -54.258  18.944  0.00  0.00    -0.050 A 
ATOM      2  C5  MOL d   1      32.989 -56.491  19.208  0.00  0.00    -0.043 A 
ATOM      3  C6  MOL d   1      32.475 -53.858  18.789  0.00  0.00     0.069 A 
ATOM      4  C1  MOL d   1      31.689 -56.078  19.047  0.00  0.00    -0.073 A 
ATOM      5  C2  MOL d   1      34.036 -55.594  19.157  0.00  0.00    -0.073 A 
ATOM      6  C3  MOL d   1      31.433 -54.751  18.836  0.00  0.00    -0.050 A 
ATOM      7  H1  MOL d   1      34.592 -53.539  18.899  0.00  0.00     0.087 H 
ATOM      8  H10 MOL d   1      30.876 -56.794  19.087  0.00  0.00     0.084 H 
ATOM      9  H11 MOL d   1      35.055 -55.940  19.284  0.00  0.00     0.084 H 
ATOM     10  H12 MOL d   1      30.413 -54.406  18.707  0.00  0.00     0.087 H 
ENDROOT
BRANCH   2  11
ATOM     11  C10 MOL d   1      33.214 -57.901  19.411  0.00  0.00     0.046 A 
ATOM     12  C8  MOL d   1      32.593 -58.742  18.569  0.00  0.00    -0.090 A 
ATOM     13  C7  MOL d   1      32.754 -60.155  18.658  0.00  0.00    -0.089 A 
ATOM     14  H3  MOL d   1      31.947 -58.332  17.794  0.00  0.00     0.078 H 
ATOM     15  C9  MOL d   1      33.555 -60.636  19.604  0.00  0.00     0.011 A 
ATOM     16  H2  MOL d   1      32.236 -60.822  17.971  0.00  0.00     0.079 H 
ATOM     17  N18 MOL d   1      34.225 -59.839  20.498  0.00  0.00    -0.363 N 
ATOM     18  H13 MOL d   1      34.328 -61.217  19.079  0.00  0.00     0.070 H 
ATOM     19  H14 MOL d   1      32.935 -61.314  20.209  0.00  0.00     0.070 H 
ATOM     20  C11 MOL d   1      34.075 -58.471  20.461  0.00  0.00     0.127 A 
ATOM     21  C12 MOL d   1      35.082 -60.468  21.468  0.00  0.00     0.010 C 
ATOM     22  N17 MOL d   1      34.611 -57.604  21.265  0.00  0.00    -0.150 NA
ATOM     23  S22 MOL d   1      35.559 -58.085  22.492  0.00  0.00     0.254 S 
ATOM     24  C13 MOL d   1      34.990 -59.733  22.774  0.00  0.00     0.063 C 
ATOM     25  O19 MOL d   1      36.956 -58.193  22.086  0.00  0.00    -0.204 OA
ATOM     26  O20 MOL d   1      35.225 -57.370  23.692  0.00  0.00    -0.204 OA
ATOM     27  H5  MOL d   1      35.622 -60.225  23.528  0.00  0.00     0.061 H 
ATOM     28  H6  MOL d   1      33.947 -59.716  23.124  0.00  0.00     0.061 H 
ATOM     29  H15 MOL d   1      34.767 -61.512  21.613  0.00  0.00     0.065 H 
ATOM     30  H16 MOL d   1      36.121 -60.445  21.108  0.00  0.00     0.065 H 
ATOM     31  H4  MOL d   1      32.362 -57.933  20.106  0.00  0.00     0.065 H 
ENDBRANCH   2  11
BRANCH   3  32
ATOM     32  O21 MOL d   1      32.148 -52.547  18.545  0.00  0.00    -0.347 OA
BRANCH  32  33
ATOM     33  C16 MOL d   1      32.428 -51.730  19.649  0.00  0.00     0.038 C 
ATOM     34  H20 MOL d   1      33.177 -52.160  20.330  0.00  0.00     0.082 H 
BRANCH  33  35
ATOM     35  C15 MOL d   1      31.116 -51.468  20.336  0.00  0.00    -0.052 C 
ATOM     36  H7  MOL d   1      31.284 -50.827  21.214  0.00  0.00     0.030 H 
ATOM     37  H8  MOL d   1      30.673 -52.422  20.657  0.00  0.00     0.030 H 
ATOM     38  H9  MOL d   1      30.431 -50.963  19.639  0.00  0.00     0.030 H 
ENDBRANCH  33  35
BRANCH  33  39
ATOM     39  C14 MOL d   1      32.882 -50.447  19.007  0.00  0.00    -0.052 C 
ATOM     40  H17 MOL d   1      33.842 -50.612  18.496  0.00  0.00     0.030 H 
ATOM     41  H18 MOL d   1      33.006 -49.674  19.780  0.00  0.00     0.030 H 
ATOM     42  H19 MOL d   1      32.130 -50.117  18.275  0.00  0.00     0.030 H 
ENDBRANCH  33  39
ENDBRANCH  32  33
ENDBRANCH   3  32
TORSDOF 5
