REMARK  5 active torsions:
REMARK  status: ('A' for Active; 'I' for Inactive)
REMARK    1  A    between atoms: C10_6  and  C5_2 
REMARK    2  A    between atoms: C6_3  and  C17_9 
REMARK    3  A    between atoms: C17_9  and  C15_8 
REMARK    4  A    between atoms: C17_9  and  C14_16 
REMARK    5  A    between atoms: C17_9  and  C16_17 
ROOT
ATOM      1  C4  MOL d   1      16.103   1.450  21.878  0.00  0.00    -0.076 A 
ATOM      2  C5  MOL d   1      16.249  -0.321  23.485  0.00  0.00    -0.043 A 
ATOM      3  C6  MOL d   1      16.037   0.531  20.850  0.00  0.00    -0.051 A 
ATOM      4  C1  MOL d   1      16.192  -1.247  22.464  0.00  0.00    -0.075 A 
ATOM      5  C2  MOL d   1      16.207   1.026  23.183  0.00  0.00    -0.075 A 
ATOM      6  C3  MOL d   1      16.080  -0.818  21.158  0.00  0.00    -0.076 A 
ATOM      7  H1  MOL d   1      16.073   2.511  21.656  0.00  0.00     0.084 H 
ATOM      8  H10 MOL d   1      16.235  -2.307  22.687  0.00  0.00     0.084 H 
ATOM      9  H11 MOL d   1      16.256   1.757  23.982  0.00  0.00     0.084 H 
ATOM     10  H12 MOL d   1      16.025  -1.549  20.360  0.00  0.00     0.084 H 
ENDROOT
BRANCH   2  11
ATOM     11  C10 MOL d   1      16.382  -0.715  24.890  0.00  0.00     0.046 A 
ATOM     12  C8  MOL d   1      15.518  -0.269  25.829  0.00  0.00    -0.090 A 
ATOM     13  C7  MOL d   1      15.621  -0.613  27.226  0.00  0.00    -0.089 A 
ATOM     14  H3  MOL d   1      14.704   0.382  25.515  0.00  0.00     0.078 H 
ATOM     15  C9  MOL d   1      16.607  -1.429  27.594  0.00  0.00     0.011 A 
ATOM     16  H2  MOL d   1      14.916  -0.218  27.956  0.00  0.00     0.079 H 
ATOM     17  N19 MOL d   1      17.536  -1.920  26.718  0.00  0.00    -0.363 N 
ATOM     18  H13 MOL d   1      16.121  -2.308  28.044  0.00  0.00     0.070 H 
ATOM     19  H14 MOL d   1      17.175  -0.889  28.366  0.00  0.00     0.070 H 
ATOM     20  C11 MOL d   1      17.475  -1.601  25.365  0.00  0.00     0.127 A 
ATOM     21  C12 MOL d   1      18.574  -2.792  27.255  0.00  0.00     0.010 C 
ATOM     22  N18 MOL d   1      18.305  -2.010  24.455  0.00  0.00    -0.150 NA
ATOM     23  S22 MOL d   1      19.552  -2.983  24.826  0.00  0.00     0.254 S 
ATOM     24  C13 MOL d   1      19.857  -2.538  26.512  0.00  0.00     0.063 C 
ATOM     25  O20 MOL d   1      19.172  -4.385  24.752  0.00  0.00    -0.204 OA
ATOM     26  O21 MOL d   1      20.726  -2.595  24.121  0.00  0.00    -0.204 OA
ATOM     27  H5  MOL d   1      20.667  -3.155  26.928  0.00  0.00     0.061 H 
ATOM     28  H6  MOL d   1      20.133  -1.476  26.581  0.00  0.00     0.061 H 
ATOM     29  H15 MOL d   1      18.718  -2.579  28.324  0.00  0.00     0.065 H 
ATOM     30  H16 MOL d   1      18.276  -3.843  27.128  0.00  0.00     0.065 H 
ATOM     31  H4  MOL d   1      15.743  -1.589  24.697  0.00  0.00     0.065 H 
ENDBRANCH   2  11
BRANCH   3  32
ATOM     32  C17 MOL d   1      15.913   1.022  19.432  0.00  0.00    -0.024 C 
BRANCH  32  33
ATOM     33  C15 MOL d   1      16.050  -0.079  18.415  0.00  0.00    -0.066 C 
ATOM     34  H7  MOL d   1      15.951   0.342  17.404  0.00  0.00     0.028 H 
ATOM     35  H8  MOL d   1      15.263  -0.830  18.579  0.00  0.00     0.028 H 
ATOM     36  H9  MOL d   1      17.037  -0.554  18.519  0.00  0.00     0.028 H 
ENDBRANCH  32  33
BRANCH  32  37
ATOM     37  C14 MOL d   1      14.536   1.606  19.272  0.00  0.00    -0.066 C 
ATOM     38  H17 MOL d   1      14.395   2.418  20.001  0.00  0.00     0.028 H 
ATOM     39  H18 MOL d   1      13.783   0.823  19.445  0.00  0.00     0.028 H 
ATOM     40  H19 MOL d   1      14.423   2.004  18.253  0.00  0.00     0.028 H 
ENDBRANCH  32  37
BRANCH  32  41
ATOM     41  C16 MOL d   1      16.987   2.040  19.113  0.00  0.00    -0.066 C 
ATOM     42  H20 MOL d   1      17.978   1.580  19.240  0.00  0.00     0.028 H 
ATOM     43  H21 MOL d   1      16.892   2.899  19.793  0.00  0.00     0.028 H 
ATOM     44  H22 MOL d   1      16.872   2.381  18.074  0.00  0.00     0.028 H 
ENDBRANCH  32  41
ENDBRANCH   3  32
TORSDOF 5
