REMARK  3 active torsions:
REMARK  status: ('A' for Active; 'I' for Inactive)
REMARK    1  A    between atoms: C8_6  and  C1_17 
REMARK    2  A    between atoms: O3_21  and  C11_19 
REMARK    3  A    between atoms: O3_21  and  C14_22 
ROOT
ATOM      1  C8  MOL d   1      33.019 -56.726  18.929  0.00  0.00    -0.026 A 
ATOM      2  C10 MOL d   1      31.139 -55.229  18.908  0.00  0.00    -0.049 A 
ATOM      3  C13 MOL d   1      33.928 -55.654  18.919  0.00  0.00    -0.070 A 
ATOM      4  C12 MOL d   1      33.399 -54.356  18.888  0.00  0.00    -0.049 A 
ATOM      5  C11 MOL d   1      32.014 -54.165  18.885  0.00  0.00     0.076 A 
ATOM      6  C9  MOL d   1      31.650 -56.504  18.927  0.00  0.00    -0.070 A 
ATOM      7  H7  MOL d   1      30.068 -55.063  18.911  0.00  0.00     0.087 H 
ATOM      8  H8  MOL d   1      34.998 -55.825  18.935  0.00  0.00     0.084 H 
ATOM      9  H14 MOL d   1      34.064 -53.500  18.866  0.00  0.00     0.087 H 
ATOM     10  H15 MOL d   1      30.972 -57.350  18.941  0.00  0.00     0.084 H 
ENDROOT
BRANCH   1  11
ATOM     11  C1  MOL d   1      33.384 -58.155  18.998  0.00  0.00    -0.005 C 
ATOM     12  C5  MOL d   1      34.266 -58.607  20.100  0.00  0.00     0.113 C 
ATOM     13  N1  MOL d   1      34.633 -59.989  20.176  0.00  0.00    -0.364 N 
ATOM     14  N2  MOL d   1      34.824 -57.676  20.934  0.00  0.00    -0.293 N 
ATOM     15  H2  MOL d   1      33.414 -58.758  20.779  0.00  0.00     0.116 H 
ATOM     16  C4  MOL d   1      33.960 -60.877  19.288  0.00  0.00    -0.023 C 
ATOM     17  C7  MOL d   1      34.972 -60.573  21.505  0.00  0.00     0.010 C 
ATOM     18  C3  MOL d   1      33.095 -60.449  18.280  0.00  0.00    -0.068 C 
ATOM     19  H1  MOL d   1      34.130 -61.947  19.402  0.00  0.00     0.111 H 
ATOM     20  C2  MOL d   1      32.793 -59.097  18.146  0.00  0.00    -0.071 C 
ATOM     21  H11 MOL d   1      32.655 -61.174  17.597  0.00  0.00     0.085 H 
ATOM     22  H12 MOL d   1      32.095 -58.770  17.377  0.00  0.00     0.084 H 
ATOM     23  C6  MOL d   1      35.098 -59.626  22.689  0.00  0.00     0.061 C 
ATOM     24  H5  MOL d   1      35.935 -61.093  21.398  0.00  0.00     0.065 H 
ATOM     25  H6  MOL d   1      34.187 -61.303  21.752  0.00  0.00     0.065 H 
ATOM     26  S1  MOL d   1      35.542 -58.077  22.226  0.00  0.00     0.230 S 
ATOM     27  H3  MOL d   1      35.860 -60.021  23.377  0.00  0.00     0.061 H 
ATOM     28  H4  MOL d   1      34.128 -59.576  23.206  0.00  0.00     0.061 H 
ATOM     29  O2  MOL d   1      35.136 -57.245  23.309  0.00  0.00    -0.206 OA
ATOM     30  O1  MOL d   1      36.987 -58.040  22.035  0.00  0.00    -0.206 OA
ATOM     31  H13 MOL d   1      34.761 -56.708  20.693  0.00  0.00     0.174 HD
ENDBRANCH   1  11
BRANCH   5  32
ATOM     32  O3  MOL d   1      31.413 -52.933  18.886  0.00  0.00    -0.311 OA
BRANCH  32  33
ATOM     33  C14 MOL d   1      32.002 -51.764  18.549  0.00  0.00     0.076 A 
ATOM     34  C15 MOL d   1      32.110 -50.787  19.534  0.00  0.00    -0.050 A 
ATOM     35  C16 MOL d   1      32.706 -49.577  19.205  0.00  0.00    -0.080 A 
ATOM     36  H9  MOL d   1      31.737 -50.967  20.536  0.00  0.00     0.087 H 
ATOM     37  C17 MOL d   1      33.156 -49.344  17.905  0.00  0.00    -0.083 A 
ATOM     38  H18 MOL d   1      32.822 -48.810  19.962  0.00  0.00     0.083 H 
ATOM     39  C18 MOL d   1      33.020 -50.319  16.917  0.00  0.00    -0.080 A 
ATOM     40  H10 MOL d   1      33.617 -48.394  17.660  0.00  0.00     0.083 H 
ATOM     41  C19 MOL d   1      32.434 -51.540  17.238  0.00  0.00    -0.050 A 
ATOM     42  H17 MOL d   1      33.367 -50.128  15.908  0.00  0.00     0.083 H 
ATOM     43  H16 MOL d   1      32.314 -52.307  16.482  0.00  0.00     0.087 H 
ENDBRANCH  32  33
ENDBRANCH   5  32
TORSDOF 3
