REMARK  13 active torsions:
REMARK  status: ('A' for Active; 'I' for Inactive)
REMARK    1  A    between atoms: CAA_1  and  CAJ_2 
REMARK    2  A    between atoms: CAJ_2  and  CAK_3 
REMARK    3  A    between atoms: CAK_3  and  CAL_4 
REMARK    4  A    between atoms: CAL_4  and  CAM_5 
REMARK    5  A    between atoms: CAM_5  and  CAN_6 
REMARK    6  A    between atoms: CAN_6  and  CAO_7 
REMARK    7  A    between atoms: CAO_7  and  CAP_8 
REMARK    8  A    between atoms: CAP_8  and  NAT_9 
REMARK    9  A    between atoms: NAT_9  and  CAQ_10 
REMARK   10  A    between atoms: CAQ_10  and  CAY_11 
REMARK   11  A    between atoms: CAZ_16  and  CAR_17 
REMARK   12  A    between atoms: CAR_17  and  NAU_18 
REMARK       I    between atoms: NAU_18  and  CAX_19 
REMARK   13  A    between atoms: CAX_19  and  CBA_21 
ROOT
ATOM      1  CAQ MOL d   1       4.008 -21.190 -15.588  0.00  0.00     0.105 C 
ATOM      2  H20 MOL d   1       5.042 -21.448 -15.860  0.00  0.00     0.083 H 
ATOM      3  H21 MOL d   1       3.510 -22.073 -15.161  0.00  0.00     0.083 H 
ENDROOT
BRANCH   1   4
ATOM      4  NAT MOL d   1       3.293 -20.812 -16.817  0.00  0.00    -0.071 N 
ATOM      5  H18 MOL d   1       3.276 -19.806 -16.881  0.00  0.00     0.277 HD
ATOM      6  H19 MOL d   1       3.792 -21.191 -17.607  0.00  0.00     0.277 HD
BRANCH   4   7
ATOM      7  CAP MOL d   1       1.908 -21.306 -16.858  0.00  0.00     0.082 C 
ATOM      8  H16 MOL d   1       1.907 -22.380 -16.622  0.00  0.00     0.075 H 
ATOM      9  H17 MOL d   1       1.315 -20.765 -16.106  0.00  0.00     0.075 H 
BRANCH   7  10
ATOM     10  CAO MOL d   1       1.266 -21.101 -18.235  0.00  0.00    -0.043 C 
ATOM     11  H14 MOL d   1       2.022 -21.267 -19.017  0.00  0.00     0.035 H 
ATOM     12  H15 MOL d   1       0.442 -21.819 -18.363  0.00  0.00     0.035 H 
BRANCH  10  13
ATOM     13  CAN MOL d   1       0.718 -19.672 -18.353  0.00  0.00    -0.064 C 
ATOM     14  H12 MOL d   1      -0.322 -19.647 -17.995  0.00  0.00     0.033 H 
ATOM     15  H13 MOL d   1       1.332 -18.992 -17.744  0.00  0.00     0.033 H 
BRANCH  13  16
ATOM     16  CAM MOL d   1       0.765 -19.229 -19.820  0.00  0.00    -0.065 C 
ATOM     17  H10 MOL d   1       1.812 -19.099 -20.133  0.00  0.00     0.033 H 
ATOM     18  H11 MOL d   1       0.286 -19.992 -20.451  0.00  0.00     0.033 H 
BRANCH  16  19
ATOM     19  CAL MOL d   1       0.018 -17.902 -19.963  0.00  0.00    -0.065 C 
ATOM     20  H8  MOL d   1      -1.065 -18.089 -19.926  0.00  0.00     0.033 H 
ATOM     21  H9  MOL d   1       0.303 -17.234 -19.137  0.00  0.00     0.033 H 
BRANCH  19  22
ATOM     22  CAK MOL d   1       0.371 -17.235 -21.298  0.00  0.00    -0.065 C 
ATOM     23  H6  MOL d   1       1.456 -17.061 -21.343  0.00  0.00     0.033 H 
ATOM     24  H7  MOL d   1       0.071 -17.895 -22.125  0.00  0.00     0.033 H 
BRANCH  22  25
ATOM     25  CAJ MOL d   1      -0.364 -15.895 -21.425  0.00  0.00    -0.069 C 
ATOM     26  H4  MOL d   1      -0.667 -15.551 -20.425  0.00  0.00     0.032 H 
ATOM     27  H5  MOL d   1       0.309 -15.153 -21.879  0.00  0.00     0.032 H 
BRANCH  25  28
ATOM     28  CAA MOL d   1      -1.612 -16.054 -22.307  0.00  0.00    -0.077 C 
ATOM     29  H1  MOL d   1      -2.129 -15.086 -22.389  0.00  0.00     0.027 H 
ATOM     30  H2  MOL d   1      -2.289 -16.794 -21.855  0.00  0.00     0.027 H 
ATOM     31  H3  MOL d   1      -1.312 -16.396 -23.309  0.00  0.00     0.027 H 
ENDBRANCH  25  28
ENDBRANCH  22  25
ENDBRANCH  19  22
ENDBRANCH  16  19
ENDBRANCH  13  16
ENDBRANCH  10  13
ENDBRANCH   7  10
ENDBRANCH   4   7
ENDBRANCH   1   4
BRANCH   1  32
ATOM     32  CAY MOL d   1       4.052 -20.188 -14.596  0.00  0.00    -0.033 A 
ATOM     33  CAE MOL d   1       5.257 -19.527 -14.290  0.00  0.00    -0.075 A 
ATOM     34  CAG MOL d   1       5.315 -18.584 -13.250  0.00  0.00    -0.075 A 
ATOM     35  H22 MOL d   1       6.150 -19.748 -14.863  0.00  0.00     0.084 H 
ATOM     36  CAZ MOL d   1       4.161 -18.295 -12.506  0.00  0.00    -0.041 A 
ATOM     37  H23 MOL d   1       6.248 -18.081 -13.023  0.00  0.00     0.084 H 
ATOM     38  CAF MOL d   1       2.971 -18.975 -12.796  0.00  0.00    -0.075 A 
ATOM     39  CAD MOL d   1       2.916 -19.928 -13.818  0.00  0.00    -0.075 A 
ATOM     40  H25 MOL d   1       2.079 -18.759 -12.219  0.00  0.00     0.084 H 
ATOM     41  H24 MOL d   1       1.994 -20.466 -14.008  0.00  0.00     0.084 H 
BRANCH  36  42
ATOM     42  CAR MOL d   1       4.192 -17.368 -11.453  0.00  0.00     0.019 C 
ATOM     43  H26 MOL d   1       3.334 -16.686 -11.551  0.00  0.00     0.071 H 
ATOM     44  H27 MOL d   1       5.127 -16.792 -11.511  0.00  0.00     0.071 H 
BRANCH  42  45
ATOM     45  NAU MOL d   1       4.122 -18.051 -10.125  0.00  0.00    -0.353 N 
ATOM     46  CAX MOL d   1       4.936 -17.777  -9.077  0.00  0.00     0.253 C 
ATOM     47  OAB MOL d   1       5.843 -16.952  -9.218  0.00  0.00    -0.268 OA
ATOM     48  H28 MOL d   1       3.426 -18.759 -10.002  0.00  0.00     0.163 HD
BRANCH  46  49
ATOM     49  CBA MOL d   1       4.834 -18.491  -7.891  0.00  0.00     0.057 A 
ATOM     50  CBD MOL d   1       3.934 -19.461  -7.470  0.00  0.00     0.084 A 
ATOM     51  CBB MOL d   1       2.804 -20.021  -8.022  0.00  0.00     0.282 A 
ATOM     52  CBC MOL d   1       4.249 -19.939  -6.216  0.00  0.00     0.091 A 
ATOM     53  OAC MOL d   1       2.328 -19.731  -9.128  0.00  0.00    -0.265 OA
ATOM     54  NAV MOL d   1       2.092 -21.026  -7.351  0.00  0.00    -0.205 NA
ATOM     55  CAH MOL d   1       2.391 -21.430  -6.143  0.00  0.00     0.068 A 
ATOM     56  NAS MOL d   1       3.502 -20.846  -5.564  0.00  0.00    -0.344 N 
ATOM     57  H29 MOL d   1       1.799 -22.183  -5.624  0.00  0.00     0.143 H 
ATOM     58  H30 MOL d   1       3.765 -21.114  -4.605  0.00  0.00     0.167 HD
ATOM     59  SAW MOL d   1       5.587 -19.224  -5.596  0.00  0.00    -0.082 SA
ATOM     60  CAI MOL d   1       5.796 -18.256  -6.970  0.00  0.00    -0.027 A 
ATOM     61  H31 MOL d   1       6.603 -17.536  -7.096  0.00  0.00     0.096 H 
ENDBRANCH  46  49
ENDBRANCH  42  45
ENDBRANCH  36  42
ENDBRANCH   1  32
TORSDOF 13
