REMARK  8 active torsions:
REMARK  status: ('A' for Active; 'I' for Inactive)
REMARK    1  A    between atoms: C03_16  and  C10_1 
REMARK    2  A    between atoms: C10_1  and  O11_17 
REMARK    3  A    between atoms: O12_13  and  C13_2 
REMARK    4  A    between atoms: N19_8  and  C20_5 
REMARK    5  A    between atoms: N19_8  and  C21_6 
REMARK    6  A    between atoms: C02_14  and  O12_13 
REMARK    7  A    between atoms: C02_14  and  C03_16 
REMARK    8  A    between atoms: C03_16  and  C04_18 
ROOT
ATOM      1  C13 3C0 d   1     181.993  26.873 524.822  0.00  0.00     0.052 C 
ATOM      2  C15 3C0 d   1     181.445  29.302 524.157  0.00  0.00     0.135 C 
ATOM      3  C17 3C0 d   1     182.944  29.399 526.035  0.00  0.00     0.094 A 
ATOM      4  C22 3C0 d   1     181.520  28.881 526.359  0.00  0.00     0.135 C 
ATOM      5  N19 3C0 d   1     180.643  29.535 525.367  0.00  0.00    -0.061 N 
ATOM      6  C14 3C0 d   1     181.408  27.811 523.747  0.00  0.00    -0.011 C 
ATOM      7  C16 3C0 d   1     182.891  29.701 524.561  0.00  0.00     0.094 A 
ATOM      8  O18 3C0 d   1     183.150  30.759 525.543  0.00  0.00    -0.371 OA
ATOM      9  C23 3C0 d   1     181.517  27.346 526.215  0.00  0.00    -0.011 C 
ATOM     10  H3  3C0 d   1     181.585  25.865 524.658  0.00  0.00     0.084 H 
ATOM     11  H4  3C0 d   1     181.083  29.924 523.325  0.00  0.00     0.089 H 
ATOM     12  H5  3C0 d   1     183.743  28.863 526.567  0.00  0.00     0.090 H 
ATOM     13  H12 3C0 d   1     181.219  29.159 527.380  0.00  0.00     0.089 H 
ATOM     14  H13 3C0 d   1     180.362  27.524 523.564  0.00  0.00     0.040 H 
ATOM     15  H14 3C0 d   1     181.989  27.688 522.821  0.00  0.00     0.040 H 
ATOM     16  H15 3C0 d   1     183.648  29.437 523.807  0.00  0.00     0.090 H 
ATOM     17  H16 3C0 d   1     182.185  26.920 526.978  0.00  0.00     0.040 H 
ATOM     18  H17 3C0 d   1     180.493  26.980 526.379  0.00  0.00     0.040 H 
ENDROOT
BRANCH   1  19
ATOM     19  O12 3C0 d   1     183.435  26.779 524.685  0.00  0.00    -0.315 OA
BRANCH  19  20
ATOM     20  C02 3C0 d   1     184.031  25.774 525.378  0.00  0.00     0.270 C 
ATOM     21  O01 3C0 d   1     183.435  24.859 525.945  0.00  0.00    -0.264 OA
BRANCH  20  22
ATOM     22  C03 3C0 d   1     185.563  25.850 525.373  0.00  0.00     0.076 C 
ATOM     23  H18 3C0 d   1     185.895  26.211 524.389  0.00  0.00     0.066 H 
BRANCH  22  24
ATOM     24  C10 3C0 d   1     186.162  24.462 525.611  0.00  0.00     0.033 C 
ATOM     25  H1  3C0 d   1     185.796  24.062 526.568  0.00  0.00     0.075 H 
ATOM     26  H2  3C0 d   1     187.259  24.534 525.640  0.00  0.00     0.075 H 
BRANCH  24  27
ATOM     27  O11 3C0 d   1     185.766  23.592 524.544  0.00  0.00    -0.400 OA
ATOM     28  H19 3C0 d   1     184.818  23.532 524.521  0.00  0.00     0.209 HD
ENDBRANCH  24  27
ENDBRANCH  22  24
BRANCH  22  29
ATOM     29  C04 3C0 d   1     185.997  26.749 526.346  0.00  0.00    -0.043 A 
ATOM     30  C05 3C0 d   1     186.502  27.984 525.959  0.00  0.00    -0.076 A 
ATOM     31  C06 3C0 d   1     186.935  28.891 526.918  0.00  0.00    -0.082 A 
ATOM     32  H20 3C0 d   1     186.558  28.240 524.907  0.00  0.00     0.084 H 
ATOM     33  C07 3C0 d   1     186.862  28.564 528.267  0.00  0.00    -0.083 A 
ATOM     34  H21 3C0 d   1     187.330  29.854 526.614  0.00  0.00     0.083 H 
ATOM     35  C08 3C0 d   1     186.356  27.328 528.656  0.00  0.00    -0.082 A 
ATOM     36  H22 3C0 d   1     187.199  29.272 529.016  0.00  0.00     0.083 H 
ATOM     37  C09 3C0 d   1     185.922  26.421 527.695  0.00  0.00    -0.076 A 
ATOM     38  H23 3C0 d   1     186.300  27.072 529.708  0.00  0.00     0.083 H 
ATOM     39  H24 3C0 d   1     185.525  25.459 527.998  0.00  0.00     0.084 H 
ENDBRANCH  22  29
ENDBRANCH  20  22
ENDBRANCH  19  20
ENDBRANCH   1  19
BRANCH   5  40
ATOM     40  C20 3C0 d   1     180.373  30.961 525.640  0.00  0.00     0.069 C 
ATOM     41  H6  3C0 d   1     179.771  31.051 526.556  0.00  0.00     0.068 H 
ATOM     42  H7  3C0 d   1     179.821  31.398 524.795  0.00  0.00     0.068 H 
ATOM     43  H8  3C0 d   1     181.325  31.496 525.773  0.00  0.00     0.068 H 
ENDBRANCH   5  40
BRANCH   5  44
ATOM     44  C21 3C0 d   1     179.294  28.953 525.264  0.00  0.00     0.069 C 
ATOM     45  H9  3C0 d   1     179.374  27.875 525.058  0.00  0.00     0.068 H 
ATOM     46  H10 3C0 d   1     178.745  29.442 524.446  0.00  0.00     0.068 H 
ATOM     47  H11 3C0 d   1     178.755  29.107 526.211  0.00  0.00     0.068 H 
ENDBRANCH   5  44
TORSDOF 8
