REMARK  6 active torsions:
REMARK  status: ('A' for Active; 'I' for Inactive)
REMARK    1  A    between atoms: O1_1  and  C10_2 
REMARK    2  A    between atoms: C10_2  and  C11_3 
REMARK    3  A    between atoms: C10_2  and  C4_13 
REMARK    4  A    between atoms: C17_8  and  C18_9 
REMARK    5  A    between atoms: C1_22  and  O_23 
REMARK    6  A    between atoms: O_23  and  C_24 
ROOT
ATOM      1  C11 QI9 d   1      64.999  63.451  13.955  0.00  0.00     0.133 C 
ATOM      2  N1  QI9 d   1      65.351  62.442  12.872  0.00  0.00    -0.063 N 
ATOM      3  C15 QI9 d   1      66.701  61.892  13.135  0.00  0.00     0.084 C 
ATOM      4  C14 QI9 d   1      66.862  61.510  14.638  0.00  0.00    -0.038 C 
ATOM      5  C16 QI9 d   1      64.378  61.345  13.014  0.00  0.00     0.091 C 
ATOM      6  C17 QI9 d   1      64.664  60.459  14.264  0.00  0.00    -0.011 C 
ATOM      7  C13 QI9 d   1      65.472  61.336  15.233  0.00  0.00    -0.043 C 
ATOM      8  C12 QI9 d   1      64.839  62.743  15.330  0.00  0.00    -0.031 C 
ATOM      9  H3  QI9 d   1      64.006  63.849  13.698  0.00  0.00     0.089 H 
ATOM     10  H4  QI9 d   1      65.306  62.859  11.956  0.00  0.00     0.280 HD
ATOM     11  H5  QI9 d   1      67.456  62.648  12.873  0.00  0.00     0.076 H 
ATOM     12  H6  QI9 d   1      66.851  60.994  12.517  0.00  0.00     0.076 H 
ATOM     13  H7  QI9 d   1      67.398  62.309  15.171  0.00  0.00     0.036 H 
ATOM     14  H8  QI9 d   1      67.425  60.569  14.725  0.00  0.00     0.036 H 
ATOM     15  H9  QI9 d   1      64.423  60.713  12.115  0.00  0.00     0.077 H 
ATOM     16  H10 QI9 d   1      63.370  61.776  13.109  0.00  0.00     0.077 H 
ATOM     17  H11 QI9 d   1      65.295  59.611  13.958  0.00  0.00     0.049 H 
ATOM     18  H15 QI9 d   1      65.523  60.866  16.226  0.00  0.00     0.041 H 
ATOM     19  H16 QI9 d   1      63.771  62.653  15.579  0.00  0.00     0.036 H 
ATOM     20  H17 QI9 d   1      65.350  63.327  16.110  0.00  0.00     0.036 H 
ENDROOT
BRANCH   1  21
ATOM     21  C10 QI9 d   1      65.955  64.683  13.973  0.00  0.00     0.089 C 
ATOM     22  H2  QI9 d   1      66.965  64.349  14.252  0.00  0.00     0.093 H 
BRANCH  21  23
ATOM     23  O1  QI9 d   1      65.510  65.629  14.948  0.00  0.00    -0.389 OA
ATOM     24  H1  QI9 d   1      65.508  65.221  15.806  0.00  0.00     0.210 HD
ENDBRANCH  21  23
BRANCH  21  25
ATOM     25  C4  QI9 d   1      66.013  65.285  12.556  0.00  0.00    -0.014 A 
ATOM     26  C5  QI9 d   1      67.103  65.003  11.782  0.00  0.00    -0.057 A 
ATOM     27  C6  QI9 d   1      67.113  65.371  10.428  0.00  0.00     0.004 A 
ATOM     28  H18 QI9 d   1      67.959  64.496  12.213  0.00  0.00     0.086 H 
ATOM     29  N   QI9 d   1      66.111  65.999   9.827  0.00  0.00    -0.260 NA
ATOM     30  H19 QI9 d   1      67.990  65.128   9.839  0.00  0.00     0.114 H 
ATOM     31  C7  QI9 d   1      65.012  66.317  10.567  0.00  0.00     0.067 A 
ATOM     32  C3  QI9 d   1      64.917  65.996  11.953  0.00  0.00     0.004 A 
ATOM     33  C8  QI9 d   1      63.974  67.020   9.941  0.00  0.00    -0.052 C 
ATOM     34  C2  QI9 d   1      63.760  66.385  12.664  0.00  0.00    -0.038 C 
ATOM     35  C1  QI9 d   1      62.807  67.151  12.044  0.00  0.00     0.069 C 
ATOM     36  H20 QI9 d   1      63.626  66.079  13.695  0.00  0.00     0.089 H 
ATOM     37  C9  QI9 d   1      62.858  67.370  10.638  0.00  0.00    -0.049 C 
ATOM     38  H22 QI9 d   1      62.012  67.813  10.125  0.00  0.00     0.087 H 
ATOM     39  H21 QI9 d   1      64.060  67.287   8.894  0.00  0.00     0.087 H 
BRANCH  35  40
ATOM     40  O   QI9 d   1      61.633  67.595  12.567  0.00  0.00    -0.356 OA
BRANCH  40  41
ATOM     41  C   QI9 d   1      61.507  67.568  14.004  0.00  0.00     0.010 C 
ATOM     42  H23 QI9 d   1      60.517  67.951  14.293  0.00  0.00     0.066 H 
ATOM     43  H24 QI9 d   1      62.289  68.199  14.453  0.00  0.00     0.066 H 
ATOM     44  H25 QI9 d   1      61.619  66.534  14.363  0.00  0.00     0.066 H 
ENDBRANCH  40  41
ENDBRANCH  35  40
ENDBRANCH  21  25
ENDBRANCH   1  21
BRANCH   6  45
ATOM     45  C18 QI9 d   1      63.399  59.880  14.860  0.00  0.00    -0.106 C 
ATOM     46  C19 QI9 d   1      63.122  58.610  14.936  0.00  0.00    -0.124 C 
ATOM     47  H13 QI9 d   1      62.184  58.283  15.383  0.00  0.00     0.066 H 
ATOM     48  H14 QI9 d   1      63.828  57.875  14.553  0.00  0.00     0.066 H 
ATOM     49  H12 QI9 d   1      62.664  60.579  15.256  0.00  0.00     0.076 H 
ENDBRANCH   6  45
TORSDOF 6
