REMARK  5 active torsions:
REMARK  status: ('A' for Active; 'I' for Inactive)
REMARK    1  A    between atoms: CAZ_2  and  CAT_5 
REMARK    2  A    between atoms: CAR_12  and  CAY_13 
REMARK    3  A    between atoms: CAS_18  and  CAW_19 
REMARK    4  A    between atoms: CAW_19  and  OAA_20 
REMARK    5  A    between atoms: CAW_19  and  CAX_21 
ROOT
ATOM      1  CAT YMZ d   1      -5.160  30.806   8.193  0.00  0.00     0.077 A 
ATOM      2  CAI YMZ d   1      -5.155  29.429   7.938  0.00  0.00    -0.066 A 
ATOM      3  CAH YMZ d   1      -5.354  28.545   8.993  0.00  0.00    -0.081 A 
ATOM      4  CAJ YMZ d   1      -5.560  29.074  10.296  0.00  0.00    -0.070 A 
ATOM      5  CAU YMZ d   1      -5.573  30.433  10.548  0.00  0.00     0.002 A 
ATOM      6  CAV YMZ d   1      -5.360  31.300   9.469  0.00  0.00     0.083 A 
ATOM      7  NAP YMZ d   1      -5.327  32.647   9.613  0.00  0.00    -0.243 NA
ATOM      8  CAR YMZ d   1      -5.513  33.163  10.841  0.00  0.00     0.141 A 
ATOM      9  CAK YMZ d   1      -5.737  32.334  11.938  0.00  0.00    -0.041 A 
ATOM     10  CAS YMZ d   1      -5.761  30.946  11.799  0.00  0.00    -0.013 A 
ATOM     11  H1  YMZ d   1      -4.998  29.057   6.932  0.00  0.00     0.084 H 
ATOM     12  H2  YMZ d   1      -5.352  27.474   8.825  0.00  0.00     0.083 H 
ATOM     13  H3  YMZ d   1      -5.712  28.388  11.121  0.00  0.00     0.084 H 
ATOM     14  H4  YMZ d   1      -5.895  32.775  12.916  0.00  0.00     0.088 H 
ENDROOT
BRANCH  10  15
ATOM     15  CAW YMZ d   1      -6.039  30.118  13.052  0.00  0.00     0.089 C 
ATOM     16  H5  YMZ d   1      -5.439  29.196  13.046  0.00  0.00     0.093 H 
BRANCH  15  17
ATOM     17  OAA YMZ d   1      -5.796  30.900  14.140  0.00  0.00    -0.389 OA
ATOM     18  H6  YMZ d   1      -5.964  30.401  14.931  0.00  0.00     0.210 HD
ENDBRANCH  15  17
BRANCH  15  19
ATOM     19  CAX YMZ d   1      -7.502  29.835  13.230  0.00  0.00     0.130 C 
ATOM     20  CAO YMZ d   1      -8.313  31.113  13.406  0.00  0.00    -0.036 C 
ATOM     21  CAM YMZ d   1      -9.807  30.806  13.376  0.00  0.00    -0.062 C 
ATOM     22  H8  YMZ d   1      -8.070  31.811  12.591  0.00  0.00     0.036 H 
ATOM     23  H9  YMZ d   1      -8.057  31.574  14.372  0.00  0.00     0.036 H 
ATOM     24  CAL YMZ d   1     -10.083  29.892  14.557  0.00  0.00    -0.042 C 
ATOM     25  H10 YMZ d   1     -10.073  30.302  12.435  0.00  0.00     0.033 H 
ATOM     26  H11 YMZ d   1     -10.388  31.735  13.471  0.00  0.00     0.033 H 
ATOM     27  CAN YMZ d   1      -9.133  28.757  14.450  0.00  0.00     0.082 C 
ATOM     28  H12 YMZ d   1     -11.119  29.524  14.518  0.00  0.00     0.035 H 
ATOM     29  H13 YMZ d   1      -9.922  30.433  15.501  0.00  0.00     0.035 H 
ATOM     30  NAQ YMZ d   1      -7.774  29.167  14.428  0.00  0.00    -0.068 N 
ATOM     31  H14 YMZ d   1      -9.348  28.207  13.522  0.00  0.00     0.075 H 
ATOM     32  H15 YMZ d   1      -9.284  28.092  15.313  0.00  0.00     0.075 H 
ATOM     33  H16 YMZ d   1      -7.598  29.786  15.204  0.00  0.00     0.277 HD
ATOM     34  H17 YMZ d   1      -7.179  28.357  14.503  0.00  0.00     0.277 HD
ATOM     35  H7  YMZ d   1      -7.860  29.256  12.366  0.00  0.00     0.088 H 
ENDBRANCH  15  19
ENDBRANCH  10  15
BRANCH   8  36
ATOM     36  CAY YMZ d   1      -5.523  34.654  11.030  0.00  0.00     0.434 C 
ATOM     37  FAC YMZ d   1      -6.488  35.116  10.291  0.00  0.00    -0.165 F 
ATOM     38  FAD YMZ d   1      -5.617  34.999  12.317  0.00  0.00    -0.165 F 
ATOM     39  FAB YMZ d   1      -4.536  35.275  10.446  0.00  0.00    -0.165 F 
ENDBRANCH   8  36
BRANCH   1  40
ATOM     40  CAZ YMZ d   1      -4.943  31.754   7.092  0.00  0.00     0.419 C 
ATOM     41  FAE YMZ d   1      -5.381  33.004   7.112  0.00  0.00    -0.166 F 
ATOM     42  FAF YMZ d   1      -5.592  31.246   6.093  0.00  0.00    -0.166 F 
ATOM     43  FAG YMZ d   1      -3.657  31.848   6.996  0.00  0.00    -0.166 F 
ENDBRANCH   1  40
TORSDOF 5
