REMARK  10 active torsions:
REMARK  status: ('A' for Active; 'I' for Inactive)
REMARK    1  A    between atoms: C1_2  and  C2_4 
REMARK    2  A    between atoms: C2_4  and  N_5 
REMARK    3  A    between atoms: C2_4  and  C3_6 
REMARK    4  A    between atoms: C3_6  and  S_7 
REMARK    5  A    between atoms: S_7  and  C4_8 
REMARK    6  A    between atoms: C4_8  and  C12_9 
REMARK    7  A    between atoms: C4_8  and  C18_15 
REMARK    8  A    between atoms: C4_8  and  C5_21 
REMARK    9  A    between atoms: C8_24  and  O3_25 
REMARK   10  A    between atoms: O3_25  and  C9_26 
ROOT
ATOM      1  C4  4C5 d   1      40.538  -6.805  19.661  0.00  0.00     0.089 C 
ENDROOT
BRANCH   1   2
ATOM      2  S   4C5 d   1      39.449  -7.720  20.790  0.00  0.00    -0.141 SA
BRANCH   2   3
ATOM      3  C3  4C5 d   1      39.443  -6.873  22.371  0.00  0.00     0.014 C 
ATOM      4  H5  4C5 d   1      40.489  -6.746  22.688  0.00  0.00     0.052 H 
ATOM      5  H6  4C5 d   1      38.983  -5.885  22.221  0.00  0.00     0.052 H 
BRANCH   3   6
ATOM      6  C2  4C5 d   1      38.697  -7.566  23.500  0.00  0.00     0.190 C 
ATOM      7  H1  4C5 d   1      38.943  -8.638  23.488  0.00  0.00     0.102 H 
BRANCH   6   8
ATOM      8  C1  4C5 d   1      39.065  -6.988  24.879  0.00  0.00     0.205 C 
ATOM      9  O1  4C5 d   1      38.224  -6.654  25.689  0.00  0.00    -0.646 OA
ATOM     10  O2  4C5 d   1      40.324  -6.788  25.264  0.00  0.00    -0.646 OA
ENDBRANCH   6   8
BRANCH   6  11
ATOM     11  N   4C5 d   1      37.257  -7.387  23.266  0.00  0.00    -0.065 N 
ATOM     12  H2  4C5 d   1      37.014  -7.765  22.364  0.00  0.00     0.275 HD
ATOM     13  H3  4C5 d   1      37.032  -6.405  23.291  0.00  0.00     0.275 HD
ATOM     14  H4  4C5 d   1      36.738  -7.869  23.983  0.00  0.00     0.275 HD
ENDBRANCH   6  11
ENDBRANCH   3   6
ENDBRANCH   2   3
ENDBRANCH   1   2
BRANCH   1  15
ATOM     15  C12 4C5 d   1      40.517  -7.403  18.296  0.00  0.00    -0.030 A 
ATOM     16  C17 4C5 d   1      40.785  -6.613  17.182  0.00  0.00    -0.075 A 
ATOM     17  C16 4C5 d   1      40.719  -7.199  15.939  0.00  0.00    -0.082 A 
ATOM     18  H7  4C5 d   1      41.039  -5.565  17.291  0.00  0.00     0.084 H 
ATOM     19  C15 4C5 d   1      40.444  -8.556  15.757  0.00  0.00    -0.083 A 
ATOM     20  H8  4C5 d   1      40.888  -6.582  15.064  0.00  0.00     0.083 H 
ATOM     21  C14 4C5 d   1      40.162  -9.347  16.841  0.00  0.00    -0.082 A 
ATOM     22  H9  4C5 d   1      40.453  -8.983  14.761  0.00  0.00     0.083 H 
ATOM     23  C13 4C5 d   1      40.189  -8.765  18.107  0.00  0.00    -0.075 A 
ATOM     24  H10 4C5 d   1      39.924 -10.397  16.716  0.00  0.00     0.083 H 
ATOM     25  H11 4C5 d   1      39.952  -9.374  18.972  0.00  0.00     0.084 H 
ENDBRANCH   1  15
BRANCH   1  26
ATOM     26  C18 4C5 d   1      42.001  -6.829  20.090  0.00  0.00    -0.030 A 
ATOM     27  C23 4C5 d   1      42.496  -7.747  21.017  0.00  0.00    -0.075 A 
ATOM     28  C22 4C5 d   1      43.841  -7.761  21.358  0.00  0.00    -0.082 A 
ATOM     29  H12 4C5 d   1      41.821  -8.459  21.477  0.00  0.00     0.084 H 
ATOM     30  C21 4C5 d   1      44.724  -6.862  20.799  0.00  0.00    -0.083 A 
ATOM     31  H13 4C5 d   1      44.203  -8.490  22.075  0.00  0.00     0.083 H 
ATOM     32  C20 4C5 d   1      44.254  -5.931  19.902  0.00  0.00    -0.082 A 
ATOM     33  H14 4C5 d   1      45.775  -6.888  21.063  0.00  0.00     0.083 H 
ATOM     34  C19 4C5 d   1      42.914  -5.931  19.536  0.00  0.00    -0.075 A 
ATOM     35  H15 4C5 d   1      44.930  -5.196  19.480  0.00  0.00     0.083 H 
ATOM     36  H16 4C5 d   1      42.568  -5.214  18.800  0.00  0.00     0.084 H 
ENDBRANCH   1  26
BRANCH   1  37
ATOM     37  C5  4C5 d   1      39.886  -5.460  19.790  0.00  0.00    -0.030 A 
ATOM     38  C11 4C5 d   1      40.386  -4.439  20.627  0.00  0.00    -0.072 A 
ATOM     39  C10 4C5 d   1      39.703  -3.237  20.767  0.00  0.00    -0.050 A 
ATOM     40  H17 4C5 d   1      41.313  -4.595  21.167  0.00  0.00     0.084 H 
ATOM     41  C8  4C5 d   1      38.470  -3.067  20.121  0.00  0.00     0.068 A 
ATOM     42  H18 4C5 d   1      40.119  -2.438  21.370  0.00  0.00     0.087 H 
ATOM     43  C7  4C5 d   1      37.970  -4.049  19.297  0.00  0.00    -0.050 A 
ATOM     44  C6  4C5 d   1      38.678  -5.245  19.152  0.00  0.00    -0.072 A 
ATOM     45  H22 4C5 d   1      37.037  -3.897  18.766  0.00  0.00     0.087 H 
ATOM     46  H23 4C5 d   1      38.269  -6.026  18.522  0.00  0.00     0.084 H 
BRANCH  41  47
ATOM     47  O3  4C5 d   1      37.746  -1.941  20.203  0.00  0.00    -0.356 OA
BRANCH  47  48
ATOM     48  C9  4C5 d   1      37.836  -1.014  21.259  0.00  0.00     0.010 C 
ATOM     49  H19 4C5 d   1      37.136  -0.185  21.079  0.00  0.00     0.066 H 
ATOM     50  H20 4C5 d   1      38.862  -0.622  21.316  0.00  0.00     0.066 H 
ATOM     51  H21 4C5 d   1      37.580  -1.511  22.206  0.00  0.00     0.066 H 
ENDBRANCH  47  48
ENDBRANCH  41  47
ENDBRANCH   1  37
TORSDOF 10
