REMARK  24 active torsions:
REMARK  status: ('A' for Active; 'I' for Inactive)
REMARK    1  A    between atoms: N_1  and  CA_2 
REMARK    2  A    between atoms: CA_2  and  C_3 
REMARK    3  A    between atoms: CA_2  and  CB_5 
REMARK       I    between atoms: C_3  and  N_7 
REMARK    4  A    between atoms: CB_5  and  OG_6 
REMARK    5  A    between atoms: N_7  and  CA_8 
REMARK    6  A    between atoms: CA_8  and  C_9 
REMARK    7  A    between atoms: CA_8  and  CB_11 
REMARK       I    between atoms: C_9  and  N_12 
REMARK    8  A    between atoms: N_12  and  CA_13 
REMARK    9  A    between atoms: CA_13  and  C_14 
REMARK   10  A    between atoms: CA_13  and  CB_16 
REMARK       I    between atoms: C_14  and  N_20 
REMARK   11  A    between atoms: CB_16  and  CG1_17 
REMARK   12  A    between atoms: CB_16  and  CG2_18 
REMARK   13  A    between atoms: CG1_17  and  CD1_19 
REMARK   14  A    between atoms: N_20  and  CA_21 
REMARK   15  A    between atoms: CA_21  and  C_22 
REMARK   16  A    between atoms: CA_21  and  CB_24 
REMARK       I    between atoms: C_22  and  N_31 
REMARK   17  A    between atoms: CB_24  and  CG_25 
REMARK   18  A    between atoms: CG_25  and  CD_26 
REMARK   19  A    between atoms: CD_26  and  NE_27 
REMARK       I    between atoms: NE_27  and  CZ_28 
REMARK       I    between atoms: CZ_28  and  NH1_29 
REMARK   20  A    between atoms: N_31  and  CA_32 
REMARK   21  A    between atoms: CA_32  and  C_33 
REMARK       I    between atoms: C_33  and  N_35 
REMARK   22  A    between atoms: N_35  and  CA_36 
REMARK   23  A    between atoms: CA_36  and  C_37 
REMARK   24  A    between atoms: CA_36  and  CB_39 
ROOT
ATOM      1  C   SER d   1       5.824   4.440   6.222  0.00  0.00     0.241 C 
ATOM      2  O   SER d   1       5.360   5.337   6.937  0.00  0.00    -0.271 OA
ATOM      3  N   SER d   1       5.152   3.906   5.221  0.00  0.00    -0.346 N 
ATOM      4  H24 SER d   1       5.583   3.156   4.720  0.00  0.00     0.163 HD
ENDROOT
BRANCH   1   5
ATOM      5  CA  SER d   1       7.180   3.816   6.534  0.00  0.00     0.092 C 
ATOM      6  H14 SER d   1       7.353   2.983   5.837  0.00  0.00     0.088 H 
BRANCH   5   7
ATOM      7  N   SER d   1       8.214   4.822   6.319  0.00  0.00    -0.346 N 
ATOM      8  C   SER d   1       9.067   4.760   5.301  0.00  0.00     0.240 C 
ATOM      9  O   SER d   1       8.985   3.906   4.414  0.00  0.00    -0.271 OA
ATOM     10  H13 SER d   1       8.284   5.586   6.960  0.00  0.00     0.163 HD
BRANCH   8  11
ATOM     11  CA  SER d   1      10.168   5.816   5.293  0.00  0.00     0.086 C 
ATOM     12  H9  SER d   1      10.532   5.952   6.322  0.00  0.00     0.086 H 
BRANCH  11  13
ATOM     13  N   SER d   1      11.277   5.372   4.467  0.00  0.00    -0.346 N 
ATOM     14  C   SER d   1      12.032   4.345   4.852  0.00  0.00     0.251 C 
ATOM     15  O   SER d   1      11.905   3.796   5.948  0.00  0.00    -0.271 OA
ATOM     16  H8  SER d   1      11.474   5.840   3.605  0.00  0.00     0.163 HD
BRANCH  14  17
ATOM     17  CA  SER d   1      13.090   3.871   3.863  0.00  0.00     0.195 C 
ATOM     18  H4  SER d   1      13.237   4.659   3.110  0.00  0.00     0.102 H 
BRANCH  17  19
ATOM     19  N   SER d   1      14.367   3.630   4.528  0.00  0.00    -0.064 N 
ATOM     20  H1  SER d   1      15.045   3.318   3.850  0.00  0.00     0.275 HD
ATOM     21  H2  SER d   1      14.249   2.922   5.235  0.00  0.00     0.275 HD
ATOM     22  H3  SER d   1      14.689   4.483   4.957  0.00  0.00     0.275 HD
ENDBRANCH  17  19
BRANCH  17  23
ATOM     23  CB  SER d   1      12.609   2.602   3.152  0.00  0.00     0.051 C 
ATOM     24  H5  SER d   1      12.587   1.774   3.875  0.00  0.00     0.077 H 
ATOM     25  H6  SER d   1      13.310   2.360   2.339  0.00  0.00     0.077 H 
BRANCH  23  26
ATOM     26  OG  SER d   1      11.313   2.772   2.607  0.00  0.00    -0.398 OA
ATOM     27  H7  SER d   1      10.702   2.977   3.305  0.00  0.00     0.209 HD
ENDBRANCH  23  26
ENDBRANCH  17  23
ENDBRANCH  14  17
ENDBRANCH  11  13
BRANCH  11  28
ATOM     28  CB  SER d   1       9.619   7.150   4.795  0.00  0.00    -0.049 C 
ATOM     29  H10 SER d   1       8.782   7.464   5.436  0.00  0.00     0.030 H 
ATOM     30  H11 SER d   1       9.266   7.037   3.759  0.00  0.00     0.030 H 
ATOM     31  H12 SER d   1      10.414   7.910   4.831  0.00  0.00     0.030 H 
ENDBRANCH  11  28
ENDBRANCH   8  11
ENDBRANCH   5   7
BRANCH   5  32
ATOM     32  CB  SER d   1       7.215   3.255   7.960  0.00  0.00    -0.030 C 
ATOM     33  H15 SER d   1       6.845   4.024   8.654  0.00  0.00     0.043 H 
BRANCH  32  34
ATOM     34  CG1 SER d   1       8.646   2.880   8.355  0.00  0.00    -0.063 C 
ATOM     35  H16 SER d   1       8.639   2.526   9.396  0.00  0.00     0.033 H 
ATOM     36  H17 SER d   1       9.276   3.779   8.278  0.00  0.00     0.033 H 
BRANCH  34  37
ATOM     37  CD1 SER d   1       9.248   1.796   7.484  0.00  0.00    -0.076 C 
ATOM     38  H21 SER d   1      10.271   1.579   7.824  0.00  0.00     0.027 H 
ATOM     39  H22 SER d   1       9.273   2.137   6.439  0.00  0.00     0.027 H 
ATOM     40  H23 SER d   1       8.636   0.885   7.557  0.00  0.00     0.027 H 
ENDBRANCH  34  37
ENDBRANCH  32  34
BRANCH  32  41
ATOM     41  CG2 SER d   1       6.315   2.033   8.050  0.00  0.00    -0.071 C 
ATOM     42  H18 SER d   1       5.290   2.311   7.765  0.00  0.00     0.028 H 
ATOM     43  H19 SER d   1       6.318   1.651   9.081  0.00  0.00     0.028 H 
ATOM     44  H20 SER d   1       6.686   1.253   7.369  0.00  0.00     0.028 H 
ENDBRANCH  32  41
ENDBRANCH   5  32
ENDBRANCH   1   5
BRANCH   3  45
ATOM     45  CA  SER d   1       3.837   4.328   4.797  0.00  0.00     0.089 C 
ATOM     46  H25 SER d   1       3.556   5.277   5.277  0.00  0.00     0.087 H 
BRANCH  45  47
ATOM     47  C   SER d   1       2.879   3.244   5.101  0.00  0.00     0.240 C 
ATOM     48  O   SER d   1       3.276   2.160   5.167  0.00  0.00    -0.271 OA
ATOM     49  N   SER d   1       1.604   3.538   5.251  0.00  0.00    -0.351 N 
ATOM     50  H37 SER d   1       1.319   4.495   5.195  0.00  0.00     0.163 HD
BRANCH  49  51
ATOM     51  CA  SER d   1       0.600   2.523   5.494  0.00  0.00     0.069 C 
ATOM     52  H38 SER d   1       0.754   2.120   6.506  0.00  0.00     0.078 H 
ATOM     53  H39 SER d   1       0.735   1.720   4.755  0.00  0.00     0.078 H 
BRANCH  51  54
ATOM     54  C   SER d   1      -0.825   3.025   5.395  0.00  0.00     0.236 C 
ATOM     55  O   SER d   1      -1.094   4.215   5.598  0.00  0.00    -0.272 OA
ATOM     56  N   SER d   1      -1.744   2.113   5.089  0.00  0.00    -0.346 N 
ATOM     57  H40 SER d   1      -1.452   1.168   4.940  0.00  0.00     0.163 HD
BRANCH  56  58
ATOM     58  CA  SER d   1      -3.158   2.435   4.963  0.00  0.00     0.093 C 
ATOM     59  H41 SER d   1      -3.368   3.336   5.559  0.00  0.00     0.089 H 
BRANCH  58  60
ATOM     60  C   SER d   1      -3.996   1.285   5.507  0.00  0.00     0.196 C 
ATOM     61  O   SER d   1      -3.554   0.133   5.488  0.00  0.00    -0.646 OA
ATOM     62  OXT SER d   1      -5.118   1.475   5.984  0.00  0.00    -0.646 OA
ENDBRANCH  58  60
BRANCH  58  63
ATOM     63  CB  SER d   1      -3.518   2.721   3.517  0.00  0.00    -0.048 C 
ATOM     64  H42 SER d   1      -4.589   2.961   3.446  0.00  0.00     0.030 H 
ATOM     65  H43 SER d   1      -3.300   1.835   2.903  0.00  0.00     0.030 H 
ATOM     66  H44 SER d   1      -2.926   3.574   3.154  0.00  0.00     0.030 H 
ENDBRANCH  58  63
ENDBRANCH  56  58
ENDBRANCH  51  54
ENDBRANCH  49  51
ENDBRANCH  45  47
BRANCH  45  67
ATOM     67  CB  SER d   1       3.792   4.425   3.296  0.00  0.00    -0.036 C 
ATOM     68  H26 SER d   1       2.733   4.390   2.999  0.00  0.00     0.036 H 
ATOM     69  H27 SER d   1       4.315   3.543   2.897  0.00  0.00     0.036 H 
BRANCH  67  70
ATOM     70  CG  SER d   1       4.391   5.622   2.649  0.00  0.00    -0.048 C 
ATOM     71  H28 SER d   1       5.439   5.726   2.967  0.00  0.00     0.035 H 
ATOM     72  H29 SER d   1       3.828   6.520   2.944  0.00  0.00     0.035 H 
BRANCH  70  73
ATOM     73  CD  SER d   1       4.333   5.461   1.151  0.00  0.00     0.009 C 
ATOM     74  H30 SER d   1       3.362   5.832   0.791  0.00  0.00     0.064 H 
ATOM     75  H31 SER d   1       4.432   4.394   0.904  0.00  0.00     0.064 H 
BRANCH  73  76
ATOM     76  NE  SER d   1       5.378   6.187   0.493  0.00  0.00    -0.227 N 
ATOM     77  CZ  SER d   1       6.597   5.734   0.359  0.00  0.00     0.665 C 
ATOM     78  NH1 SER d   1       6.915   4.588   0.851  0.00  0.00    -0.235 N 
ATOM     79  NH2 SER d   1       7.496   6.425  -0.220  0.00  0.00    -0.235 N 
ATOM     80  H33 SER d   1       7.875   4.231   0.746  0.00  0.00     0.174 HD
ATOM     81  H34 SER d   1       6.209   4.028   1.350  0.00  0.00     0.174 HD
ATOM     82  H35 SER d   1       7.261   7.345  -0.620  0.00  0.00     0.174 HD
ATOM     83  H36 SER d   1       8.458   6.064  -0.288  0.00  0.00     0.174 HD
ATOM     84  H32 SER d   1       5.157   7.115   0.105  0.00  0.00     0.177 HD
ENDBRANCH  73  76
ENDBRANCH  70  73
ENDBRANCH  67  70
ENDBRANCH  45  67
ENDBRANCH   3  45
TORSDOF 24
