REMARK  20 active torsions:
REMARK  status: ('A' for Active; 'I' for Inactive)
REMARK    1  A    between atoms: N_1  and  CA_2 
REMARK    2  A    between atoms: CA_2  and  C_3 
REMARK       I    between atoms: C_3  and  N_5 
REMARK    3  A    between atoms: N_5  and  CA_6 
REMARK    4  A    between atoms: CA_6  and  C_7 
REMARK    5  A    between atoms: CA_6  and  CB_9 
REMARK       I    between atoms: C_7  and  N_13 
REMARK    6  A    between atoms: CB_9  and  CG_10 
REMARK    7  A    between atoms: CG_10  and  SD_11 
REMARK    8  A    between atoms: SD_11  and  CE_12 
REMARK    9  A    between atoms: CA_14  and  C_15 
REMARK       I    between atoms: C_15  and  N_20 
REMARK   10  A    between atoms: N_20  and  CA_21 
REMARK   11  A    between atoms: CA_21  and  C_22 
REMARK   12  A    between atoms: CA_21  and  CB_24 
REMARK       I    between atoms: C_22  and  N_31 
REMARK   13  A    between atoms: CB_24  and  CG_25 
REMARK   14  A    between atoms: CG_25  and  CD_26 
REMARK   15  A    between atoms: CD_26  and  NE_27 
REMARK       I    between atoms: NE_27  and  CZ_28 
REMARK       I    between atoms: CZ_28  and  NH1_29 
REMARK   16  A    between atoms: N_31  and  CA_32 
REMARK   17  A    between atoms: CA_32  and  C_33 
REMARK       I    between atoms: C_33  and  N_35 
REMARK   18  A    between atoms: N_35  and  CA_36 
REMARK   19  A    between atoms: CA_36  and  C_37 
REMARK   20  A    between atoms: CA_36  and  CB_39 
ROOT
ATOM      1  C   GLY d   1     119.788  44.842  -9.533  0.00  0.00     0.241 C 
ATOM      2  O   GLY d   1     119.963  45.233  -8.382  0.00  0.00    -0.271 OA
ATOM      3  N   GLY d   1     120.140  43.634  -9.928  0.00  0.00    -0.346 N 
ATOM      4  H22 GLY d   1     119.942  43.364 -10.870  0.00  0.00     0.163 HD
ENDROOT
BRANCH   3   5
ATOM      5  CA  GLY d   1     120.801  42.679  -9.059  0.00  0.00     0.089 C 
ATOM      6  H23 GLY d   1     121.076  43.179  -8.118  0.00  0.00     0.087 H 
BRANCH   5   7
ATOM      7  C   GLY d   1     122.046  42.183  -9.762  0.00  0.00     0.240 C 
ATOM      8  O   GLY d   1     122.068  42.057 -10.986  0.00  0.00    -0.271 OA
ATOM      9  N   GLY d   1     123.077  41.874  -8.993  0.00  0.00    -0.351 N 
ATOM     10  H35 GLY d   1     123.056  42.054  -8.009  0.00  0.00     0.163 HD
BRANCH   9  11
ATOM     11  CA  GLY d   1     124.235  41.269  -9.613  0.00  0.00     0.069 C 
ATOM     12  H36 GLY d   1     124.758  42.033 -10.207  0.00  0.00     0.078 H 
ATOM     13  H37 GLY d   1     123.899  40.457 -10.275  0.00  0.00     0.078 H 
BRANCH  11  14
ATOM     14  C   GLY d   1     125.194  40.702  -8.598  0.00  0.00     0.236 C 
ATOM     15  O   GLY d   1     125.174  41.063  -7.411  0.00  0.00    -0.272 OA
ATOM     16  N   GLY d   1     126.066  39.837  -9.101  0.00  0.00    -0.346 N 
ATOM     17  H38 GLY d   1     125.978  39.579 -10.063  0.00  0.00     0.163 HD
BRANCH  16  18
ATOM     18  CA  GLY d   1     127.141  39.246  -8.325  0.00  0.00     0.093 C 
ATOM     19  H39 GLY d   1     127.457  39.972  -7.561  0.00  0.00     0.089 H 
BRANCH  18  20
ATOM     20  C   GLY d   1     128.355  38.927  -9.222  0.00  0.00     0.196 C 
ATOM     21  O   GLY d   1     128.236  38.771 -10.453  0.00  0.00    -0.646 OA
ATOM     22  OXT GLY d   1     129.486  38.809  -8.733  0.00  0.00    -0.646 OA
ENDBRANCH  18  20
BRANCH  18  23
ATOM     23  CB  GLY d   1     126.654  37.989  -7.622  0.00  0.00    -0.048 C 
ATOM     24  H40 GLY d   1     127.478  37.553  -7.039  0.00  0.00     0.030 H 
ATOM     25  H41 GLY d   1     126.309  37.261  -8.370  0.00  0.00     0.030 H 
ATOM     26  H42 GLY d   1     125.823  38.244  -6.948  0.00  0.00     0.030 H 
ENDBRANCH  18  23
ENDBRANCH  16  18
ENDBRANCH  11  14
ENDBRANCH   9  11
ENDBRANCH   5   7
BRANCH   5  27
ATOM     27  CB  GLY d   1     119.916  41.470  -8.744  0.00  0.00    -0.036 C 
ATOM     28  H24 GLY d   1     120.569  40.652  -8.406  0.00  0.00     0.036 H 
ATOM     29  H25 GLY d   1     119.406  41.173  -9.672  0.00  0.00     0.036 H 
BRANCH  27  30
ATOM     30  CG  GLY d   1     118.865  41.691  -7.688  0.00  0.00    -0.048 C 
ATOM     31  H26 GLY d   1     118.215  42.530  -7.978  0.00  0.00     0.035 H 
ATOM     32  H27 GLY d   1     119.345  41.916  -6.724  0.00  0.00     0.035 H 
BRANCH  30  33
ATOM     33  CD  GLY d   1     118.030  40.397  -7.569  0.00  0.00     0.009 C 
ATOM     34  H28 GLY d   1     118.711  39.534  -7.611  0.00  0.00     0.064 H 
ATOM     35  H29 GLY d   1     117.328  40.352  -8.415  0.00  0.00     0.064 H 
BRANCH  33  36
ATOM     36  NE  GLY d   1     117.269  40.330  -6.328  0.00  0.00    -0.227 N 
ATOM     37  CZ  GLY d   1     115.963  40.567  -6.239  0.00  0.00     0.665 C 
ATOM     38  NH1 GLY d   1     115.267  40.917  -7.319  0.00  0.00    -0.235 N 
ATOM     39  NH2 GLY d   1     115.358  40.475  -5.059  0.00  0.00    -0.235 N 
ATOM     40  H31 GLY d   1     114.256  41.099  -7.244  0.00  0.00     0.174 HD
ATOM     41  H32 GLY d   1     115.740  41.006  -8.230  0.00  0.00     0.174 HD
ATOM     42  H33 GLY d   1     115.897  40.204  -4.224  0.00  0.00     0.174 HD
ATOM     43  H34 GLY d   1     114.351  40.674  -4.980  0.00  0.00     0.174 HD
ATOM     44  H30 GLY d   1     117.774  40.084  -5.465  0.00  0.00     0.177 HD
ENDBRANCH  33  36
ENDBRANCH  30  33
ENDBRANCH  27  30
ENDBRANCH   5  27
ENDBRANCH   3   5
BRANCH   1  45
ATOM     45  CA  GLY d   1     119.155  45.731 -10.610  0.00  0.00     0.091 C 
ATOM     46  N   GLY d   1     118.008  46.488 -10.087  0.00  0.00    -0.337 N 
ATOM     47  C   GLY d   1     116.894  45.836  -9.746  0.00  0.00     0.243 C 
ATOM     48  CD  GLY d   1     118.267  47.943 -10.026  0.00  0.00    -0.001 C 
ATOM     49  O   GLY d   1     116.790  44.611  -9.911  0.00  0.00    -0.271 OA
ATOM     50  CG  GLY d   1     119.756  48.049 -10.302  0.00  0.00    -0.048 C 
ATOM     51  H20 GLY d   1     118.022  48.345  -9.032  0.00  0.00     0.064 H 
ATOM     52  H21 GLY d   1     117.686  48.478 -10.791  0.00  0.00     0.064 H 
ATOM     53  CB  GLY d   1     120.126  46.825 -11.092  0.00  0.00    -0.036 C 
ATOM     54  H18 GLY d   1     119.972  48.958 -10.883  0.00  0.00     0.035 H 
ATOM     55  H19 GLY d   1     120.318  48.077  -9.357  0.00  0.00     0.035 H 
ATOM     56  H16 GLY d   1     119.999  47.007 -12.169  0.00  0.00     0.036 H 
ATOM     57  H17 GLY d   1     121.167  46.534 -10.889  0.00  0.00     0.036 H 
ATOM     58  H15 GLY d   1     118.843  45.098 -11.454  0.00  0.00     0.087 H 
BRANCH  47  59
ATOM     59  CA  GLY d   1     115.725  46.587  -9.145  0.00  0.00     0.090 C 
ATOM     60  H7  GLY d   1     115.936  47.667  -9.155  0.00  0.00     0.087 H 
BRANCH  59  61
ATOM     61  N   GLY d   1     114.546  46.316  -9.952  0.00  0.00    -0.346 N 
ATOM     62  C   GLY d   1     114.127  47.137 -10.917  0.00  0.00     0.243 C 
ATOM     63  O   GLY d   1     114.670  48.228 -11.172  0.00  0.00    -0.272 OA
ATOM     64  H6  GLY d   1     114.027  45.479  -9.776  0.00  0.00     0.163 HD
BRANCH  62  65
ATOM     65  CA  GLY d   1     112.916  46.649 -11.698  0.00  0.00     0.152 C 
ATOM     66  H4  GLY d   1     113.154  45.661 -12.118  0.00  0.00     0.090 H 
ATOM     67  H5  GLY d   1     112.072  46.557 -10.999  0.00  0.00     0.090 H 
BRANCH  65  68
ATOM     68  N   GLY d   1     112.509  47.517 -12.787  0.00  0.00    -0.071 N 
ATOM     69  H1  GLY d   1     111.705  47.122 -13.249  0.00  0.00     0.274 HD
ATOM     70  H2  GLY d   1     113.266  47.605 -13.447  0.00  0.00     0.274 HD
ATOM     71  H3  GLY d   1     112.274  48.426 -12.422  0.00  0.00     0.274 HD
ENDBRANCH  65  68
ENDBRANCH  62  65
ENDBRANCH  59  61
BRANCH  59  72
ATOM     72  CB  GLY d   1     115.502  46.133  -7.699  0.00  0.00    -0.030 C 
ATOM     73  H8  GLY d   1     115.208  45.073  -7.713  0.00  0.00     0.037 H 
ATOM     74  H9  GLY d   1     114.686  46.734  -7.272  0.00  0.00     0.037 H 
BRANCH  72  75
ATOM     75  CG  GLY d   1     116.720  46.277  -6.799  0.00  0.00    -0.021 C 
ATOM     76  H10 GLY d   1     116.917  47.347  -6.636  0.00  0.00     0.049 H 
ATOM     77  H11 GLY d   1     117.586  45.816  -7.296  0.00  0.00     0.049 H 
BRANCH  75  78
ATOM     78  SD  GLY d   1     116.471  45.476  -5.194  0.00  0.00    -0.173 SA
BRANCH  78  79
ATOM     79  CE  GLY d   1     116.732  43.750  -5.640  0.00  0.00    -0.035 C 
ATOM     80  H12 GLY d   1     116.612  43.118  -4.747  0.00  0.00     0.041 H 
ATOM     81  H13 GLY d   1     117.748  43.625  -6.043  0.00  0.00     0.041 H 
ATOM     82  H14 GLY d   1     115.996  43.453  -6.401  0.00  0.00     0.041 H 
ENDBRANCH  78  79
ENDBRANCH  75  78
ENDBRANCH  72  75
ENDBRANCH  59  72
ENDBRANCH  47  59
ENDBRANCH   1  45
TORSDOF 20
