REMARK  12 active torsions:
REMARK  status: ('A' for Active; 'I' for Inactive)
REMARK    1  A    between atoms: C2_1  and  C22_19 
REMARK    2  A    between atoms: C4_3  and  C13_23 
REMARK    3  A    between atoms: C10_7  and  C6_5 
REMARK    4  A    between atoms: S1_12  and  C20_14 
REMARK    5  A    between atoms: S1_12  and  C7_17 
REMARK    6  A    between atoms: C20_14  and  C21_15 
REMARK    7  A    between atoms: C21_15  and  O3_16 
REMARK    8  A    between atoms: C22_19  and  C25_20 
REMARK    9  A    between atoms: C22_19  and  C24_21 
REMARK   10  A    between atoms: C22_19  and  C23_22 
REMARK   11  A    between atoms: C13_23  and  C14_24 
REMARK   12  A    between atoms: C14_24  and  C18_25 
ROOT
ATOM      1  C2  MOL d   1     -34.791   2.588  -5.412  0.00  0.00    -0.049 C 
ATOM      2  C5  MOL d   1     -32.743   2.674  -7.290  0.00  0.00    -0.066 C 
ATOM      3  C4  MOL d   1     -33.934   1.944  -7.568  0.00  0.00    -0.056 C 
ATOM      4  C3  MOL d   1     -34.985   1.898  -6.619  0.00  0.00    -0.070 C 
ATOM      5  C6  MOL d   1     -32.552   3.425  -6.064  0.00  0.00    -0.025 C 
ATOM      6  C1  MOL d   1     -33.573   3.280  -5.103  0.00  0.00    -0.065 C 
ATOM      7  H1  MOL d   1     -31.946   2.668  -8.025  0.00  0.00     0.085 H 
ATOM      8  H2  MOL d   1     -35.901   1.353  -6.817  0.00  0.00     0.085 H 
ATOM      9  H4  MOL d   1     -33.435   3.699  -4.113  0.00  0.00     0.085 H 
ENDROOT
BRANCH   5  10
ATOM     10  C10 MOL d   1     -31.245   4.101  -5.873  0.00  0.00    -0.026 A 
ATOM     11  C11 MOL d   1     -30.607   4.051  -4.631  0.00  0.00    -0.071 A 
ATOM     12  C12 MOL d   1     -29.322   4.627  -4.475  0.00  0.00    -0.061 A 
ATOM     13  H3  MOL d   1     -31.094   3.573  -3.789  0.00  0.00     0.084 H 
ATOM     14  C7  MOL d   1     -28.634   5.313  -5.483  0.00  0.00     0.059 A 
ATOM     15  H6  MOL d   1     -28.839   4.530  -3.510  0.00  0.00     0.085 H 
ATOM     16  C8  MOL d   1     -29.222   5.358  -6.772  0.00  0.00    -0.061 A 
ATOM     17  C9  MOL d   1     -30.511   4.767  -6.932  0.00  0.00    -0.071 A 
ATOM     18  H5  MOL d   1     -28.711   5.825  -7.606  0.00  0.00     0.085 H 
ATOM     19  H12 MOL d   1     -30.973   4.819  -7.911  0.00  0.00     0.084 H 
BRANCH  14  20
ATOM     20  S1  MOL d   1     -26.982   5.874  -4.993  0.00  0.00     0.177 S 
ATOM     21  O2  MOL d   1     -26.549   7.068  -5.842  0.00  0.00    -0.223 OA
ATOM     22  O1  MOL d   1     -26.800   5.889  -3.537  0.00  0.00    -0.223 OA
BRANCH  20  23
ATOM     23  C20 MOL d   1     -26.261   4.211  -5.326  0.00  0.00     0.052 C 
ATOM     24  H7  MOL d   1     -25.162   4.258  -5.316  0.00  0.00     0.059 H 
ATOM     25  H8  MOL d   1     -26.603   3.830  -6.300  0.00  0.00     0.059 H 
BRANCH  23  26
ATOM     26  C21 MOL d   1     -26.774   3.315  -4.185  0.00  0.00     0.029 C 
ATOM     27  H9  MOL d   1     -27.868   3.417  -4.138  0.00  0.00     0.075 H 
ATOM     28  H10 MOL d   1     -26.331   3.674  -3.244  0.00  0.00     0.075 H 
BRANCH  26  29
ATOM     29  O3  MOL d   1     -26.460   1.907  -4.320  0.00  0.00    -0.400 OA
ATOM     30  H11 MOL d   1     -26.813   1.432  -3.576  0.00  0.00     0.209 HD
ENDBRANCH  26  29
ENDBRANCH  23  26
ENDBRANCH  20  23
ENDBRANCH  14  20
ENDBRANCH   5  10
BRANCH   3  31
ATOM     31  C13 MOL d   1     -34.175   1.189  -8.879  0.00  0.00    -0.036 C 
ATOM     32  H22 MOL d   1     -34.859   0.346  -8.701  0.00  0.00     0.040 H 
ATOM     33  H23 MOL d   1     -33.219   0.810  -9.270  0.00  0.00     0.040 H 
BRANCH  31  34
ATOM     34  C14 MOL d   1     -34.790   2.142  -9.876  0.00  0.00    -0.021 C 
ATOM     35  H24 MOL d   1     -34.790   1.671 -10.870  0.00  0.00     0.042 H 
ATOM     36  H25 MOL d   1     -34.192   3.065  -9.907  0.00  0.00     0.042 H 
BRANCH  34  37
ATOM     37  C18 MOL d   1     -36.202   2.485  -9.496  0.00  0.00     0.034 A 
ATOM     38  C17 MOL d   1     -36.478   3.689  -8.813  0.00  0.00    -0.059 A 
ATOM     39  C16 MOL d   1     -37.818   3.911  -8.466  0.00  0.00    -0.080 A 
ATOM     40  H26 MOL d   1     -35.698   4.402  -8.570  0.00  0.00     0.086 H 
ATOM     41  C15 MOL d   1     -38.798   2.963  -8.788  0.00  0.00    -0.066 A 
ATOM     42  H27 MOL d   1     -38.097   4.820  -7.946  0.00  0.00     0.083 H 
ATOM     43  C19 MOL d   1     -38.412   1.792  -9.453  0.00  0.00     0.002 A 
ATOM     44  H29 MOL d   1     -39.836   3.133  -8.527  0.00  0.00     0.085 H 
ATOM     45  N1  MOL d   1     -37.135   1.558  -9.774  0.00  0.00    -0.266 NA
ATOM     46  H28 MOL d   1     -39.166   1.058  -9.713  0.00  0.00     0.114 H 
ENDBRANCH  34  37
ENDBRANCH  31  34
ENDBRANCH   3  31
BRANCH   1  47
ATOM     47  C22 MOL d   1     -35.875   2.492  -4.340  0.00  0.00    -0.024 C 
BRANCH  47  48
ATOM     48  C25 MOL d   1     -36.810   1.250  -4.448  0.00  0.00    -0.066 C 
ATOM     49  H13 MOL d   1     -37.550   1.276  -3.635  0.00  0.00     0.028 H 
ATOM     50  H14 MOL d   1     -36.210   0.331  -4.369  0.00  0.00     0.028 H 
ATOM     51  H15 MOL d   1     -37.330   1.266  -5.417  0.00  0.00     0.028 H 
ENDBRANCH  47  48
BRANCH  47  52
ATOM     52  C24 MOL d   1     -35.080   2.330  -3.030  0.00  0.00    -0.066 C 
ATOM     53  H16 MOL d   1     -34.401   3.186  -2.905  0.00  0.00     0.028 H 
ATOM     54  H17 MOL d   1     -34.494   1.400  -3.069  0.00  0.00     0.028 H 
ATOM     55  H18 MOL d   1     -35.778   2.289  -2.180  0.00  0.00     0.028 H 
ENDBRANCH  47  52
BRANCH  47  56
ATOM     56  C23 MOL d   1     -36.720   3.760  -4.403  0.00  0.00    -0.066 C 
ATOM     57  H19 MOL d   1     -37.252   3.799  -5.365  0.00  0.00     0.028 H 
ATOM     58  H20 MOL d   1     -36.067   4.641  -4.310  0.00  0.00     0.028 H 
ATOM     59  H21 MOL d   1     -37.450   3.756  -3.580  0.00  0.00     0.028 H 
ENDBRANCH  47  56
ENDBRANCH   1  47
TORSDOF 12
