REMARK  8 active torsions:
REMARK  status: ('A' for Active; 'I' for Inactive)
REMARK    1  A    between atoms: C14_4  and  C13_3 
REMARK    2  A    between atoms: C13_3  and  O1_18 
REMARK    3  A    between atoms: S1_16  and  C14_4 
REMARK    4  A    between atoms: C15_5  and  S1_16 
REMARK    5  A    between atoms: C17_6  and  C9_14 
REMARK    6  A    between atoms: C19_8  and  C20_9 
REMARK    7  A    between atoms: C6_12  and  C1_23 
REMARK    8  A    between atoms: C27_26  and  C22_28 
ROOT
ATOM      1  C17 MOL d   1     -32.178   4.312  -6.586  0.00  0.00    -0.025 A 
ATOM      2  C18 MOL d   1     -33.054   3.838  -5.587  0.00  0.00    -0.065 A 
ATOM      3  C20 MOL d   1     -34.338   3.358  -5.812  0.00  0.00    -0.046 A 
ATOM      4  C6  MOL d   1     -34.821   3.339  -7.140  0.00  0.00    -0.047 A 
ATOM      5  C7  MOL d   1     -33.966   3.838  -8.173  0.00  0.00    -0.075 A 
ATOM      6  C8  MOL d   1     -32.647   4.323  -7.918  0.00  0.00    -0.072 A 
ATOM      7  H8  MOL d   1     -32.697   3.849  -4.564  0.00  0.00     0.085 H 
ATOM      8  H12 MOL d   1     -34.335   3.848  -9.192  0.00  0.00     0.084 H 
ATOM      9  H17 MOL d   1     -32.023   4.690  -8.725  0.00  0.00     0.084 H 
ENDROOT
BRANCH   1  10
ATOM     10  C9  MOL d   1     -30.829   4.798  -6.261  0.00  0.00    -0.026 A 
ATOM     11  C10 MOL d   1     -30.128   5.619  -7.176  0.00  0.00    -0.071 A 
ATOM     12  C16 MOL d   1     -28.820   6.081  -6.870  0.00  0.00    -0.061 A 
ATOM     13  H15 MOL d   1     -30.592   5.897  -8.116  0.00  0.00     0.084 H 
ATOM     14  C15 MOL d   1     -28.257   5.682  -5.628  0.00  0.00     0.059 A 
ATOM     15  H14 MOL d   1     -28.272   6.714  -7.558  0.00  0.00     0.085 H 
ATOM     16  C12 MOL d   1     -28.917   4.823  -4.707  0.00  0.00    -0.061 A 
ATOM     17  C11 MOL d   1     -30.211   4.414  -5.038  0.00  0.00    -0.071 A 
ATOM     18  H3  MOL d   1     -28.438   4.500  -3.790  0.00  0.00     0.085 H 
ATOM     19  H16 MOL d   1     -30.759   3.787  -4.344  0.00  0.00     0.084 H 
BRANCH  14  20
ATOM     20  S1  MOL d   1     -26.631   6.308  -5.199  0.00  0.00     0.177 S 
ATOM     21  O3  MOL d   1     -26.606   6.169  -3.718  0.00  0.00    -0.223 OA
ATOM     22  O2  MOL d   1     -26.526   7.608  -5.845  0.00  0.00    -0.223 OA
BRANCH  20  23
ATOM     23  C14 MOL d   1     -25.255   5.240  -5.855  0.00  0.00     0.052 C 
ATOM     24  H6  MOL d   1     -24.305   5.569  -5.409  0.00  0.00     0.059 H 
ATOM     25  H7  MOL d   1     -25.450   4.195  -5.574  0.00  0.00     0.059 H 
BRANCH  23  26
ATOM     26  C13 MOL d   1     -25.143   5.333  -7.404  0.00  0.00     0.029 C 
ATOM     27  H4  MOL d   1     -24.145   5.005  -7.729  0.00  0.00     0.075 H 
ATOM     28  H5  MOL d   1     -25.313   6.369  -7.732  0.00  0.00     0.075 H 
BRANCH  26  29
ATOM     29  O1  MOL d   1     -26.154   4.466  -7.962  0.00  0.00    -0.400 OA
ATOM     30  H13 MOL d   1     -26.002   3.575  -7.670  0.00  0.00     0.209 HD
ENDBRANCH  26  29
ENDBRANCH  23  26
ENDBRANCH  20  23
ENDBRANCH  14  20
ENDBRANCH   1  10
BRANCH   3  31
ATOM     31  C19 MOL d   1     -35.154   2.845  -4.640  0.00  0.00    -0.018 A 
ATOM     32  C27 MOL d   1     -34.499   1.841  -3.685  0.00  0.00    -0.004 A 
ATOM     33  C21 MOL d   1     -35.575   1.398  -4.671  0.00  0.00    -0.048 A 
ATOM     34  H23 MOL d   1     -34.745   1.893  -2.614  0.00  0.00     0.050 H 
ATOM     35  H24 MOL d   1     -35.304   0.767  -5.530  0.00  0.00     0.035 H 
ATOM     36  H25 MOL d   1     -36.570   1.109  -4.303  0.00  0.00     0.035 H 
ATOM     37  H9  MOL d   1     -35.829   3.627  -4.262  0.00  0.00     0.048 H 
BRANCH  32  38
ATOM     38  C22 MOL d   1     -33.063   1.397  -3.809  0.00  0.00     0.039 A 
ATOM     39  N1  MOL d   1     -32.678   0.845  -5.004  0.00  0.00    -0.265 NA
ATOM     40  C26 MOL d   1     -31.415   0.447  -5.207  0.00  0.00     0.003 A 
ATOM     41  C25 MOL d   1     -30.403   0.547  -4.223  0.00  0.00    -0.066 A 
ATOM     42  H29 MOL d   1     -31.156   0.028  -6.172  0.00  0.00     0.114 H 
ATOM     43  C24 MOL d   1     -30.779   1.072  -2.952  0.00  0.00    -0.080 A 
ATOM     44  H28 MOL d   1     -29.384   0.237  -4.427  0.00  0.00     0.085 H 
ATOM     45  C23 MOL d   1     -32.120   1.495  -2.767  0.00  0.00    -0.059 A 
ATOM     46  H27 MOL d   1     -30.057   1.146  -2.147  0.00  0.00     0.083 H 
ATOM     47  H26 MOL d   1     -32.424   1.900  -1.809  0.00  0.00     0.086 H 
ENDBRANCH  32  38
ENDBRANCH   3  31
BRANCH   4  48
ATOM     48  C1  MOL d   1     -36.245   2.837  -7.432  0.00  0.00    -0.028 C 
ATOM     49  C2  MOL d   1     -37.087   3.929  -8.063  0.00  0.00    -0.058 C 
ATOM     50  C5  MOL d   1     -38.283   3.177  -8.741  0.00  0.00    -0.064 C 
ATOM     51  H1  MOL d   1     -37.454   4.627  -7.296  0.00  0.00     0.034 H 
ATOM     52  H2  MOL d   1     -36.503   4.483  -8.813  0.00  0.00     0.034 H 
ATOM     53  C4  MOL d   1     -37.798   1.740  -8.972  0.00  0.00    -0.064 C 
ATOM     54  H10 MOL d   1     -38.541   3.653  -9.699  0.00  0.00     0.033 H 
ATOM     55  H11 MOL d   1     -39.163   3.183  -8.080  0.00  0.00     0.033 H 
ATOM     56  C3  MOL d   1     -36.359   1.647  -8.437  0.00  0.00    -0.058 C 
ATOM     57  H21 MOL d   1     -37.815   1.506 -10.047  0.00  0.00     0.033 H 
ATOM     58  H22 MOL d   1     -38.446   1.034  -8.432  0.00  0.00     0.033 H 
ATOM     59  H19 MOL d   1     -36.195   0.687  -7.925  0.00  0.00     0.034 H 
ATOM     60  H20 MOL d   1     -35.631   1.756  -9.255  0.00  0.00     0.034 H 
ATOM     61  H18 MOL d   1     -36.689   2.533  -6.473  0.00  0.00     0.047 H 
ENDBRANCH   4  48
TORSDOF 8
