REMARK  8 active torsions:
REMARK  status: ('A' for Active; 'I' for Inactive)
REMARK    1  A    between atoms: C14_4  and  C13_3 
REMARK    2  A    between atoms: C13_3  and  O1_18 
REMARK    3  A    between atoms: S1_16  and  C14_4 
REMARK    4  A    between atoms: C15_5  and  S1_16 
REMARK    5  A    between atoms: C17_6  and  C9_14 
REMARK    6  A    between atoms: C19_8  and  C20_9 
REMARK    7  A    between atoms: C6_12  and  C1_23 
REMARK    8  A    between atoms: C27_26  and  C22_28 
ROOT
ATOM      1  C17 MOL d   1     -32.157   4.221  -6.639  0.00  0.00    -0.025 A 
ATOM      2  C18 MOL d   1     -32.987   3.680  -5.634  0.00  0.00    -0.065 A 
ATOM      3  C20 MOL d   1     -34.294   3.165  -5.948  0.00  0.00    -0.046 A 
ATOM      4  C6  MOL d   1     -34.770   3.192  -7.275  0.00  0.00    -0.047 A 
ATOM      5  C7  MOL d   1     -33.944   3.747  -8.285  0.00  0.00    -0.075 A 
ATOM      6  C8  MOL d   1     -32.664   4.252  -7.964  0.00  0.00    -0.072 A 
ATOM      7  H8  MOL d   1     -32.635   3.652  -4.609  0.00  0.00     0.085 H 
ATOM      8  H12 MOL d   1     -34.297   3.784  -9.309  0.00  0.00     0.084 H 
ATOM      9  H17 MOL d   1     -32.052   4.675  -8.752  0.00  0.00     0.084 H 
ENDROOT
BRANCH   1  10
ATOM     10  C9  MOL d   1     -30.824   4.760  -6.343  0.00  0.00    -0.026 A 
ATOM     11  C10 MOL d   1     -30.045   5.469  -7.297  0.00  0.00    -0.071 A 
ATOM     12  C16 MOL d   1     -28.774   5.965  -7.007  0.00  0.00    -0.061 A 
ATOM     13  H15 MOL d   1     -30.454   5.630  -8.288  0.00  0.00     0.084 H 
ATOM     14  C15 MOL d   1     -28.314   5.708  -5.693  0.00  0.00     0.059 A 
ATOM     15  H14 MOL d   1     -28.182   6.508  -7.735  0.00  0.00     0.085 H 
ATOM     16  C12 MOL d   1     -29.025   4.977  -4.758  0.00  0.00    -0.061 A 
ATOM     17  C11 MOL d   1     -30.286   4.491  -5.060  0.00  0.00    -0.071 A 
ATOM     18  H3  MOL d   1     -28.592   4.784  -3.783  0.00  0.00     0.085 H 
ATOM     19  H16 MOL d   1     -30.849   3.918  -4.332  0.00  0.00     0.084 H 
BRANCH  14  20
ATOM     20  S1  MOL d   1     -26.663   6.254  -5.172  0.00  0.00     0.177 S 
ATOM     21  O3  MOL d   1     -26.614   6.069  -3.681  0.00  0.00    -0.223 OA
ATOM     22  O2  MOL d   1     -26.460   7.498  -5.985  0.00  0.00    -0.223 OA
BRANCH  20  23
ATOM     23  C14 MOL d   1     -25.414   5.056  -5.885  0.00  0.00     0.052 C 
ATOM     24  H6  MOL d   1     -24.466   5.162  -5.337  0.00  0.00     0.059 H 
ATOM     25  H7  MOL d   1     -25.794   4.031  -5.765  0.00  0.00     0.059 H 
BRANCH  23  26
ATOM     26  C13 MOL d   1     -25.156   5.324  -7.397  0.00  0.00     0.029 C 
ATOM     27  H4  MOL d   1     -24.155   4.977  -7.695  0.00  0.00     0.075 H 
ATOM     28  H5  MOL d   1     -25.258   6.394  -7.632  0.00  0.00     0.075 H 
BRANCH  26  29
ATOM     29  O1  MOL d   1     -26.178   4.557  -8.039  0.00  0.00    -0.400 OA
ATOM     30  H13 MOL d   1     -26.077   3.641  -7.808  0.00  0.00     0.209 HD
ENDBRANCH  26  29
ENDBRANCH  23  26
ENDBRANCH  20  23
ENDBRANCH  14  20
ENDBRANCH   1  10
BRANCH   3  31
ATOM     31  C19 MOL d   1     -35.125   2.477  -4.903  0.00  0.00    -0.018 A 
ATOM     32  C27 MOL d   1     -34.383   1.384  -4.083  0.00  0.00    -0.004 A 
ATOM     33  C21 MOL d   1     -34.953   2.644  -3.437  0.00  0.00    -0.048 A 
ATOM     34  H23 MOL d   1     -34.871   0.404  -3.975  0.00  0.00     0.050 H 
ATOM     35  H24 MOL d   1     -35.828   2.567  -2.775  0.00  0.00     0.035 H 
ATOM     36  H25 MOL d   1     -34.269   3.416  -3.054  0.00  0.00     0.035 H 
ATOM     37  H9  MOL d   1     -36.139   2.311  -5.295  0.00  0.00     0.048 H 
BRANCH  32  38
ATOM     38  C22 MOL d   1     -32.848   1.197  -3.921  0.00  0.00     0.039 A 
ATOM     39  N1  MOL d   1     -32.089   0.822  -5.012  0.00  0.00    -0.265 NA
ATOM     40  C26 MOL d   1     -30.687   0.709  -4.893  0.00  0.00     0.003 A 
ATOM     41  C25 MOL d   1     -29.912   0.944  -3.698  0.00  0.00    -0.066 A 
ATOM     42  H29 MOL d   1     -30.141   0.418  -5.783  0.00  0.00     0.114 H 
ATOM     43  C24 MOL d   1     -30.662   1.348  -2.574  0.00  0.00    -0.080 A 
ATOM     44  H28 MOL d   1     -28.836   0.819  -3.667  0.00  0.00     0.085 H 
ATOM     45  C23 MOL d   1     -32.095   1.464  -2.699  0.00  0.00    -0.059 A 
ATOM     46  H27 MOL d   1     -30.171   1.567  -1.633  0.00  0.00     0.083 H 
ATOM     47  H26 MOL d   1     -32.653   1.772  -1.822  0.00  0.00     0.086 H 
ENDBRANCH  32  38
ENDBRANCH   3  31
BRANCH   4  48
ATOM     48  C1  MOL d   1     -36.179   2.651  -7.651  0.00  0.00    -0.028 C 
ATOM     49  C2  MOL d   1     -37.039   3.766  -8.197  0.00  0.00    -0.058 C 
ATOM     50  C5  MOL d   1     -38.279   3.098  -8.813  0.00  0.00    -0.064 C 
ATOM     51  H1  MOL d   1     -37.337   4.447  -7.387  0.00  0.00     0.034 H 
ATOM     52  H2  MOL d   1     -36.489   4.329  -8.966  0.00  0.00     0.034 H 
ATOM     53  C4  MOL d   1     -37.916   1.624  -8.957  0.00  0.00    -0.064 C 
ATOM     54  H10 MOL d   1     -38.504   3.537  -9.796  0.00  0.00     0.033 H 
ATOM     55  H11 MOL d   1     -39.149   3.217  -8.151  0.00  0.00     0.033 H 
ATOM     56  C3  MOL d   1     -36.388   1.610  -8.777  0.00  0.00    -0.058 C 
ATOM     57  H21 MOL d   1     -38.198   1.245  -9.950  0.00  0.00     0.033 H 
ATOM     58  H22 MOL d   1     -38.409   1.020  -8.181  0.00  0.00     0.033 H 
ATOM     59  H19 MOL d   1     -36.032   0.615  -8.471  0.00  0.00     0.034 H 
ATOM     60  H20 MOL d   1     -35.875   1.915  -9.701  0.00  0.00     0.034 H 
ATOM     61  H18 MOL d   1     -36.609   2.245  -6.723  0.00  0.00     0.047 H 
ENDBRANCH   4  48
TORSDOF 8
