REMARK  13 active torsions:
REMARK  status: ('A' for Active; 'I' for Inactive)
REMARK    1  A    between atoms: C1_1  and  S_26 
REMARK    2  A    between atoms: N2_9  and  C2_2 
REMARK    3  A    between atoms: C3_3  and  O3_10 
REMARK    4  A    between atoms: C4_4  and  O4_11 
REMARK    5  A    between atoms: C5_5  and  C6_6 
REMARK    6  A    between atoms: C6_6  and  O6_13 
REMARK    7  A    between atoms: C7_7  and  C8_8 
REMARK       I    between atoms: C7_7  and  N2_9 
REMARK    8  A    between atoms: O6_13  and  C1_15 
REMARK    9  A    between atoms: C2_16  and  O2_21 
REMARK   10  A    between atoms: C3_17  and  O3_22 
REMARK   11  A    between atoms: C4_18  and  O4_23 
REMARK   12  A    between atoms: C5_19  and  C6_20 
REMARK   13  A    between atoms: S_26  and  C_25 
ROOT
ATOM      1  C1  NAG d   1     -22.121  41.271   7.582  0.00  0.00     0.104 C 
ATOM      2  C2  NAG d   1     -22.491  42.490   6.705  0.00  0.00     0.073 C 
ATOM      3  C3  NAG d   1     -23.309  41.965   5.503  0.00  0.00     0.085 C 
ATOM      4  C4  NAG d   1     -22.522  40.900   4.747  0.00  0.00     0.089 C 
ATOM      5  C5  NAG d   1     -22.072  39.795   5.740  0.00  0.00     0.087 C 
ATOM      6  O5  NAG d   1     -21.350  40.311   6.859  0.00  0.00    -0.363 OA
ATOM      7  H1  NAG d   1     -23.092  40.791   7.776  0.00  0.00     0.103 H 
ATOM      8  H2  NAG d   1     -21.558  42.938   6.331  0.00  0.00     0.082 H 
ATOM      9  H3  NAG d   1     -24.199  41.481   5.930  0.00  0.00     0.090 H 
ATOM     10  H4  NAG d   1     -21.627  41.350   4.293  0.00  0.00     0.091 H 
ATOM     11  H5  NAG d   1     -22.992  39.321   6.112  0.00  0.00     0.090 H 
ENDROOT
BRANCH   5  12
ATOM     12  C6  NAG d   1     -21.187  38.696   5.156  0.00  0.00     0.049 C 
ATOM     13  H6  NAG d   1     -21.638  38.322   4.225  0.00  0.00     0.078 H 
ATOM     14  H7  NAG d   1     -21.104  37.872   5.880  0.00  0.00     0.078 H 
BRANCH  12  15
ATOM     15  O6  NAG d   1     -19.886  39.213   4.877  0.00  0.00    -0.356 OA
BRANCH  15  16
ATOM     16  C1  NAG d   1     -19.709  39.350   3.450  0.00  0.00     0.158 C 
ATOM     17  C2  NAG d   1     -18.441  40.168   3.266  0.00  0.00     0.110 C 
ATOM     18  C3  NAG d   1     -17.207  39.350   3.656  0.00  0.00     0.092 C 
ATOM     19  H15 NAG d   1     -18.354  40.479   2.215  0.00  0.00     0.094 H 
ATOM     20  C4  NAG d   1     -17.203  38.049   2.867  0.00  0.00     0.087 C 
ATOM     21  H16 NAG d   1     -17.249  39.127   4.732  0.00  0.00     0.091 H 
ATOM     22  C5  NAG d   1     -18.505  37.317   3.171  0.00  0.00     0.065 C 
ATOM     23  H17 NAG d   1     -16.356  37.427   3.191  0.00  0.00     0.091 H 
ATOM     24  O5  NAG d   1     -19.640  38.093   2.754  0.00  0.00    -0.351 OA
ATOM     25  H18 NAG d   1     -18.574  37.150   4.256  0.00  0.00     0.086 H 
ATOM     26  H14 NAG d   1     -20.562  39.910   3.040  0.00  0.00     0.133 H 
BRANCH  17  27
ATOM     27  O2  NAG d   1     -18.525  41.322   4.108  0.00  0.00    -0.388 OA
ATOM     28  H22 NAG d   1     -18.597  41.047   5.014  0.00  0.00     0.210 HD
ENDBRANCH  17  27
BRANCH  18  29
ATOM     29  O3  NAG d   1     -16.005  40.064   3.374  0.00  0.00    -0.390 OA
ATOM     30  H23 NAG d   1     -15.960  40.252   2.444  0.00  0.00     0.210 HD
ENDBRANCH  18  29
BRANCH  20  31
ATOM     31  O4  NAG d   1     -17.062  38.324   1.462  0.00  0.00    -0.390 OA
ATOM     32  H24 NAG d   1     -16.242  38.779   1.310  0.00  0.00     0.210 HD
ENDBRANCH  20  31
BRANCH  22  33
ATOM     33  C6  NAG d   1     -18.497  35.982   2.470  0.00  0.00    -0.050 C 
ATOM     34  H19 NAG d   1     -19.435  35.449   2.686  0.00  0.00     0.031 H 
ATOM     35  H20 NAG d   1     -17.645  35.385   2.828  0.00  0.00     0.031 H 
ATOM     36  H21 NAG d   1     -18.405  36.138   1.385  0.00  0.00     0.031 H 
ENDBRANCH  22  33
ENDBRANCH  15  16
ENDBRANCH  12  15
ENDBRANCH   5  12
BRANCH   4  37
ATOM     37  O4  NAG d   1     -23.389  40.401   3.691  0.00  0.00    -0.390 OA
ATOM     38  H13 NAG d   1     -23.631  41.118   3.117  0.00  0.00     0.210 HD
ENDBRANCH   4  37
BRANCH   3  39
ATOM     39  O3  NAG d   1     -23.792  42.941   4.563  0.00  0.00    -0.391 OA
ATOM     40  H12 NAG d   1     -23.055  43.341   4.117  0.00  0.00     0.210 HD
ENDBRANCH   3  39
BRANCH   1  41
ATOM     41  S   NAG d   1     -21.399  41.489   9.240  0.00  0.00    -0.140 SA
BRANCH  41  42
ATOM     42  C   NAG d   1     -21.064  39.777   9.717  0.00  0.00    -0.032 C 
ATOM     43  H25 NAG d   1     -20.616  39.757  10.721  0.00  0.00     0.041 H 
ATOM     44  H26 NAG d   1     -20.367  39.325   8.996  0.00  0.00     0.041 H 
ATOM     45  H27 NAG d   1     -22.005  39.208   9.724  0.00  0.00     0.041 H 
ENDBRANCH  41  42
ENDBRANCH   1  41
BRANCH   2  46
ATOM     46  N2  NAG d   1     -23.229  43.538   7.412  0.00  0.00    -0.351 N 
ATOM     47  C7  NAG d   1     -22.766  44.788   7.642  0.00  0.00     0.214 C 
ATOM     48  O7  NAG d   1     -21.643  45.180   7.277  0.00  0.00    -0.274 OA
ATOM     49  H11 NAG d   1     -24.143  43.313   7.750  0.00  0.00     0.163 HD
BRANCH  47  50
ATOM     50  C8  NAG d   1     -23.735  45.696   8.388  0.00  0.00    -0.003 C 
ATOM     51  H8  NAG d   1     -23.276  46.685   8.529  0.00  0.00     0.040 H 
ATOM     52  H9  NAG d   1     -23.968  45.257   9.369  0.00  0.00     0.040 H 
ATOM     53  H10 NAG d   1     -24.662  45.802   7.805  0.00  0.00     0.040 H 
ENDBRANCH  47  50
ENDBRANCH   2  46
TORSDOF 13
