REMARK  6 active torsions:
REMARK  status: ('A' for Active; 'I' for Inactive)
REMARK    1  A    between atoms: CAC_1  and  CA_2 
REMARK    2  A    between atoms: CA_2  and  CB_3 
REMARK    3  A    between atoms: CB_3  and  CBC_4 
REMARK    4  A    between atoms: CB_3  and  CG_5 
REMARK    5  A    between atoms: CB_3  and  OHB_13 
REMARK    6  A    between atoms: CG_5  and  CGC_6 
ROOT
ATOM      1  CB  FLC d   1      -6.164   6.371  -5.246  0.00  0.00     0.164 C 
ENDROOT
BRANCH   1   2
ATOM      2  CA  FLC d   1      -6.623   6.215  -6.672  0.00  0.00     0.054 C 
ATOM      3  H1  FLC d   1      -6.662   7.240  -7.069  0.00  0.00     0.054 H 
ATOM      4  H2  FLC d   1      -5.814   5.660  -7.169  0.00  0.00     0.054 H 
BRANCH   2   5
ATOM      5  CAC FLC d   1      -7.885   5.568  -7.153  0.00  0.00     0.176 C 
ATOM      6  OA1 FLC d   1      -8.103   5.994  -8.345  0.00  0.00    -0.648 OA
ATOM      7  OA2 FLC d   1      -8.540   4.630  -6.524  0.00  0.00    -0.648 OA
ENDBRANCH   2   5
ENDBRANCH   1   2
BRANCH   1   8
ATOM      8  CBC FLC d   1      -5.866   7.703  -4.561  0.00  0.00     0.210 C 
ATOM      9  OB1 FLC d   1      -5.557   8.705  -5.254  0.00  0.00    -0.646 OA
ATOM     10  OB2 FLC d   1      -5.797   7.806  -3.302  0.00  0.00    -0.646 OA
ENDBRANCH   1   8
BRANCH   1  11
ATOM     11  CG  FLC d   1      -5.387   5.451  -4.578  0.00  0.00     0.054 C 
ATOM     12  H3  FLC d   1      -5.532   5.575  -3.495  0.00  0.00     0.054 H 
ATOM     13  H4  FLC d   1      -4.330   5.621  -4.829  0.00  0.00     0.054 H 
BRANCH  11  14
ATOM     14  CGC FLC d   1      -5.759   4.084  -4.961  0.00  0.00     0.176 C 
ATOM     15  OG1 FLC d   1      -5.594   3.512  -6.037  0.00  0.00    -0.648 OA
ATOM     16  OG2 FLC d   1      -6.137   3.572  -3.986  0.00  0.00    -0.648 OA
ENDBRANCH  11  14
ENDBRANCH   1  11
BRANCH   1  17
ATOM     17  OHB FLC d   1      -7.411   6.079  -4.509  0.00  0.00    -0.378 OA
ATOM     18  H5  FLC d   1      -7.767   5.250  -4.807  0.00  0.00     0.211 HD
ENDBRANCH   1  17
TORSDOF 6
