REMARK  0 active torsions:
REMARK  status: ('A' for Active; 'I' for Inactive)
ROOT
ATOM      1  N1  URA d   1      -9.622  -6.395  -5.229  0.00  0.00    -0.319 N 
ATOM      2  C2  URA d   1     -10.409  -6.512  -6.471  0.00  0.00     0.326 A 
ATOM      3  O2  URA d   1     -11.458  -5.991  -6.639  0.00  0.00    -0.247 OA
ATOM      4  N3  URA d   1      -9.926  -7.308  -7.584  0.00  0.00    -0.276 N 
ATOM      5  C4  URA d   1      -8.665  -7.970  -7.527  0.00  0.00     0.250 A 
ATOM      6  O4  URA d   1      -8.344  -8.589  -8.477  0.00  0.00    -0.268 OA
ATOM      7  C5  URA d   1      -7.877  -7.858  -6.269  0.00  0.00    -0.002 A 
ATOM      8  C6  URA d   1      -8.351  -7.080  -5.163  0.00  0.00    -0.013 A 
ATOM      9  H1  URA d   1      -9.958  -5.858  -4.455  0.00  0.00     0.170 HD
ATOM     10  H2  URA d   1     -10.488  -7.394  -8.406  0.00  0.00     0.173 HD
ATOM     11  H3  URA d   1      -6.923  -8.377  -6.188  0.00  0.00     0.094 H 
ATOM     12  H4  URA d   1      -7.746  -7.004  -4.261  0.00  0.00     0.111 H 
ENDROOT
TORSDOF 0
