REMARK  7 active torsions:
REMARK  status: ('A' for Active; 'I' for Inactive)
REMARK    1  A    between atoms: C1_1  and  O19_19 
REMARK    2  A    between atoms: C4_4  and  C7_7 
REMARK    3  A    between atoms: C5_5  and  O10_10 
REMARK    4  A    between atoms: C7_7  and  C8_8 
REMARK    5  A    between atoms: C8_8  and  C9_9 
REMARK    6  A    between atoms: C9_9  and  C11_11 
REMARK    7  A    between atoms: C14_14  and  O18_18 
ROOT
ATOM      1  C8  HCC d   1      -8.555   7.311  -0.171  0.00  0.00    -0.001 C 
ATOM      2  H4  HCC d   1      -7.888   6.453  -0.340  0.00  0.00     0.045 H 
ATOM      3  H5  HCC d   1      -8.095   8.220  -0.585  0.00  0.00     0.045 H 
ENDROOT
BRANCH   1   4
ATOM      4  C7  HCC d   1      -8.751   7.496   1.331  0.00  0.00     0.162 C 
ATOM      5  O17 HCC d   1      -9.880   7.448   1.820  0.00  0.00    -0.292 OA
BRANCH   4   6
ATOM      6  C4  HCC d   1      -7.635   7.848   2.086  0.00  0.00     0.043 A 
ATOM      7  C3  HCC d   1      -6.348   7.784   1.558  0.00  0.00    -0.064 A 
ATOM      8  C2  HCC d   1      -5.266   8.183   2.344  0.00  0.00    -0.050 A 
ATOM      9  H2  HCC d   1      -6.188   7.428   0.547  0.00  0.00     0.085 H 
ATOM     10  C1  HCC d   1      -5.460   8.656   3.645  0.00  0.00     0.068 A 
ATOM     11  H1  HCC d   1      -4.262   8.125   1.940  0.00  0.00     0.087 H 
ATOM     12  C6  HCC d   1      -6.744   8.739   4.170  0.00  0.00    -0.018 A 
ATOM     13  C5  HCC d   1      -7.812   8.339   3.383  0.00  0.00     0.082 A 
ATOM     14  H3  HCC d   1      -6.907   9.110   5.176  0.00  0.00     0.092 H 
BRANCH  10  15
ATOM     15  O19 HCC d   1      -4.407   9.043   4.413  0.00  0.00    -0.361 OA
ATOM     16  H14 HCC d   1      -3.601   8.930   3.923  0.00  0.00     0.217 HD
ENDBRANCH  10  15
BRANCH  13  17
ATOM     17  O10 HCC d   1      -9.087   8.401   3.842  0.00  0.00    -0.360 OA
ATOM     18  H8  HCC d   1      -9.680   8.088   3.169  0.00  0.00     0.217 HD
ENDBRANCH  13  17
ENDBRANCH   4   6
ENDBRANCH   1   4
BRANCH   1  19
ATOM     19  C9  HCC d   1      -9.882   7.057  -0.888  0.00  0.00    -0.035 C 
ATOM     20  H6  HCC d   1     -10.531   7.921  -0.684  0.00  0.00     0.040 H 
ATOM     21  H7  HCC d   1     -10.323   6.154  -0.442  0.00  0.00     0.040 H 
BRANCH  19  22
ATOM     22  C11 HCC d   1      -9.872   6.869  -2.270  0.00  0.00    -0.058 A 
ATOM     23  C12 HCC d   1     -11.043   7.135  -2.972  0.00  0.00    -0.074 A 
ATOM     24  C13 HCC d   1     -11.083   6.958  -4.354  0.00  0.00    -0.051 A 
ATOM     25  H9  HCC d   1     -11.925   7.480  -2.444  0.00  0.00     0.084 H 
ATOM     26  C14 HCC d   1      -9.951   6.514  -5.033  0.00  0.00     0.065 A 
ATOM     27  H10 HCC d   1     -11.996   7.166  -4.901  0.00  0.00     0.087 H 
ATOM     28  C15 HCC d   1      -8.780   6.245  -4.333  0.00  0.00    -0.051 A 
ATOM     29  C16 HCC d   1      -8.740   6.432  -2.953  0.00  0.00    -0.074 A 
ATOM     30  H11 HCC d   1      -7.901   5.891  -4.859  0.00  0.00     0.087 H 
ATOM     31  H12 HCC d   1      -7.823   6.236  -2.408  0.00  0.00     0.084 H 
BRANCH  26  32
ATOM     32  O18 HCC d   1      -9.989   6.338  -6.383  0.00  0.00    -0.361 OA
ATOM     33  H13 HCC d   1     -10.853   6.564  -6.706  0.00  0.00     0.217 HD
ENDBRANCH  26  32
ENDBRANCH  19  22
ENDBRANCH   1  19
TORSDOF 7
