REMARK  8 active torsions:
REMARK  status: ('A' for Active; 'I' for Inactive)
REMARK    1  A    between atoms: CAT_1  and  OAS_2 
REMARK    2  A    between atoms: OAS_2  and  CAN_3 
REMARK    3  A    between atoms: CAK_8  and  CAI_9 
REMARK    4  A    between atoms: CAI_9  and  CAH_10 
REMARK    5  A    between atoms: CAH_10  and  CAG_11 
REMARK    6  A    between atoms: CAG_11  and  CAA_13 
REMARK    7  A    between atoms: CAF_16  and  OAR_17 
REMARK    8  A    between atoms: CAC_19  and  OAQ_20 
ROOT
ATOM      1  CAI A0R d   1      -9.901   6.924  -1.274  0.00  0.00    -0.032 C 
ATOM      2  H8  A0R d   1     -10.187   5.933  -0.891  0.00  0.00     0.040 H 
ATOM      3  H9  A0R d   1     -10.671   7.660  -0.999  0.00  0.00     0.040 H 
ENDROOT
BRANCH   1   4
ATOM      4  CAK A0R d   1      -9.898   6.838  -2.668  0.00  0.00    -0.024 A 
ATOM      5  CAN A0R d   1     -10.997   7.290  -3.400  0.00  0.00     0.074 A 
ATOM      6  CAL A0R d   1     -11.017   7.190  -4.791  0.00  0.00    -0.050 A 
ATOM      7  CAM A0R d   1      -9.936   6.626  -5.462  0.00  0.00    -0.080 A 
ATOM      8  H4  A0R d   1     -11.873   7.551  -5.349  0.00  0.00     0.087 H 
ATOM      9  CAO A0R d   1      -8.840   6.164  -4.739  0.00  0.00    -0.082 A 
ATOM     10  H5  A0R d   1      -9.947   6.547  -6.543  0.00  0.00     0.083 H 
ATOM     11  CAP A0R d   1      -8.824   6.267  -3.349  0.00  0.00    -0.074 A 
ATOM     12  H6  A0R d   1      -7.997   5.723  -5.258  0.00  0.00     0.083 H 
ATOM     13  H7  A0R d   1      -7.969   5.900  -2.793  0.00  0.00     0.084 H 
BRANCH   5  14
ATOM     14  OAS A0R d   1     -12.027   7.834  -2.681  0.00  0.00    -0.355 OA
BRANCH  14  15
ATOM     15  CAT A0R d   1     -13.089   8.303  -3.528  0.00  0.00     0.010 C 
ATOM     16  H1  A0R d   1     -13.891   8.730  -2.908  0.00  0.00     0.066 H 
ATOM     17  H2  A0R d   1     -13.488   7.463  -4.115  0.00  0.00     0.066 H 
ATOM     18  H3  A0R d   1     -12.701   9.075  -4.209  0.00  0.00     0.066 H 
ENDBRANCH  14  15
ENDBRANCH   5  14
ENDBRANCH   1   4
BRANCH   1  19
ATOM     19  CAH A0R d   1      -8.613   7.330  -0.550  0.00  0.00    -0.001 C 
ATOM     20  H10 A0R d   1      -8.330   8.343  -0.872  0.00  0.00     0.045 H 
ATOM     21  H11 A0R d   1      -7.816   6.623  -0.821  0.00  0.00     0.045 H 
BRANCH  19  22
ATOM     22  CAG A0R d   1      -8.782   7.324   0.977  0.00  0.00     0.162 C 
ATOM     23  OAJ A0R d   1      -9.861   7.010   1.475  0.00  0.00    -0.292 OA
BRANCH  22  24
ATOM     24  CAA A0R d   1      -7.714   7.755   1.771  0.00  0.00     0.043 A 
ATOM     25  CAB A0R d   1      -6.411   7.782   1.281  0.00  0.00    -0.064 A 
ATOM     26  CAD A0R d   1      -5.374   8.228   2.100  0.00  0.00    -0.050 A 
ATOM     27  H12 A0R d   1      -6.204   7.458   0.268  0.00  0.00     0.085 H 
ATOM     28  CAF A0R d   1      -5.628   8.658   3.407  0.00  0.00     0.068 A 
ATOM     29  H13 A0R d   1      -4.359   8.242   1.719  0.00  0.00     0.087 H 
ATOM     30  CAE A0R d   1      -6.925   8.645   3.904  0.00  0.00    -0.018 A 
ATOM     31  CAC A0R d   1      -7.949   8.196   3.082  0.00  0.00     0.082 A 
ATOM     32  H15 A0R d   1      -7.133   8.979   4.914  0.00  0.00     0.092 H 
BRANCH  28  33
ATOM     33  OAR A0R d   1      -4.614   9.093   4.202  0.00  0.00    -0.361 OA
ATOM     34  H14 A0R d   1      -4.963   9.344   5.049  0.00  0.00     0.217 HD
ENDBRANCH  28  33
BRANCH  31  35
ATOM     35  OAQ A0R d   1      -9.228   8.168   3.533  0.00  0.00    -0.360 OA
ATOM     36  H16 A0R d   1      -9.797   7.836   2.848  0.00  0.00     0.217 HD
ENDBRANCH  31  35
ENDBRANCH  22  24
ENDBRANCH  19  22
ENDBRANCH   1  19
TORSDOF 8
