REMARK  13 active torsions:
REMARK  status: ('A' for Active; 'I' for Inactive)
REMARK    1  A    between atoms: C17_1  and  O26_26 
REMARK    2  A    between atoms: C20_2  and  C21_3 
REMARK    3  A    between atoms: C21_3  and  O22_22 
REMARK    4  A    between atoms: C02_5  and  C01_4 
REMARK       I    between atoms: N04_7  and  C02_5 
REMARK    5  A    between atoms: C05_8  and  N04_7 
REMARK    6  A    between atoms: O15_18  and  C06_9 
REMARK    7  A    between atoms: C07_10  and  O14_17 
REMARK    8  A    between atoms: C08_11  and  C09_12 
REMARK    9  A    between atoms: C09_12  and  O10_13 
REMARK   10  A    between atoms: C12_15  and  O13_16 
REMARK   11  A    between atoms: C16_19  and  O15_18 
REMARK   12  A    between atoms: C18_20  and  O25_25 
REMARK   13  A    between atoms: C19_21  and  O24_24 
ROOT
ATOM      1  C05 TF0 d   1      -4.802   4.974  -8.608  0.00  0.00     0.087 C 
ATOM      2  C06 TF0 d   1      -5.078   5.586  -9.967  0.00  0.00     0.093 C 
ATOM      3  C07 TF0 d   1      -5.779   6.912  -9.795  0.00  0.00     0.089 C 
ATOM      4  C08 TF0 d   1      -4.945   7.809  -8.909  0.00  0.00     0.089 C 
ATOM      5  O11 TF0 d   1      -4.765   7.189  -7.659  0.00  0.00    -0.349 OA
ATOM      6  C12 TF0 d   1      -4.079   5.959  -7.713  0.00  0.00     0.151 C 
ATOM      7  H9  TF0 d   1      -5.754   4.685  -8.139  0.00  0.00     0.084 H 
ATOM      8  H10 TF0 d   1      -4.132   5.733 -10.508  0.00  0.00     0.091 H 
ATOM      9  H11 TF0 d   1      -5.915   7.389 -10.777  0.00  0.00     0.091 H 
ATOM     10  H12 TF0 d   1      -3.965   7.977  -9.379  0.00  0.00     0.090 H 
ATOM     11  H16 TF0 d   1      -4.017   5.542  -6.697  0.00  0.00     0.132 H 
ENDROOT
BRANCH   2  12
ATOM     12  O15 TF0 d   1      -5.918   4.715 -10.694  0.00  0.00    -0.348 OA
BRANCH  12  13
ATOM     13  C16 TF0 d   1      -5.654   4.697 -12.080  0.00  0.00     0.159 C 
ATOM     14  C17 TF0 d   1      -5.687   3.259 -12.537  0.00  0.00     0.110 C 
ATOM     15  C18 TF0 d   1      -5.507   3.189 -14.035  0.00  0.00     0.092 C 
ATOM     16  H1  TF0 d   1      -6.651   2.807 -12.262  0.00  0.00     0.094 H 
ATOM     17  C19 TF0 d   1      -6.584   4.021 -14.688  0.00  0.00     0.090 C 
ATOM     18  H20 TF0 d   1      -4.519   3.590 -14.306  0.00  0.00     0.091 H 
ATOM     19  C20 TF0 d   1      -6.478   5.435 -14.165  0.00  0.00     0.089 C 
ATOM     20  H21 TF0 d   1      -6.450   4.015 -15.780  0.00  0.00     0.091 H 
ATOM     21  O23 TF0 d   1      -6.635   5.437 -12.763  0.00  0.00    -0.348 OA
ATOM     22  H2  TF0 d   1      -5.489   5.844 -14.418  0.00  0.00     0.090 H 
ATOM     23  H19 TF0 d   1      -4.663   5.131 -12.278  0.00  0.00     0.133 H 
BRANCH  14  24
ATOM     24  O26 TF0 d   1      -4.641   2.560 -11.912  0.00  0.00    -0.388 OA
ATOM     25  H25 TF0 d   1      -4.752   2.603 -10.969  0.00  0.00     0.210 HD
ENDBRANCH  14  24
BRANCH  15  26
ATOM     26  O25 TF0 d   1      -5.598   1.851 -14.466  0.00  0.00    -0.390 OA
ATOM     27  H24 TF0 d   1      -5.490   1.815 -15.409  0.00  0.00     0.210 HD
ENDBRANCH  15  26
BRANCH  17  28
ATOM     28  O24 TF0 d   1      -7.848   3.499 -14.365  0.00  0.00    -0.390 OA
ATOM     29  H23 TF0 d   1      -8.522   4.026 -14.778  0.00  0.00     0.210 HD
ENDBRANCH  17  28
BRANCH  19  30
ATOM     30  C21 TF0 d   1      -7.552   6.288 -14.811  0.00  0.00     0.043 C 
ATOM     31  H3  TF0 d   1      -7.517   6.155 -15.902  0.00  0.00     0.078 H 
ATOM     32  H4  TF0 d   1      -7.376   7.346 -14.565  0.00  0.00     0.078 H 
BRANCH  30  33
ATOM     33  O22 TF0 d   1      -8.821   5.901 -14.333  0.00  0.00    -0.398 OA
ATOM     34  H22 TF0 d   1      -8.974   4.988 -14.546  0.00  0.00     0.209 HD
ENDBRANCH  30  33
ENDBRANCH  19  30
ENDBRANCH  12  13
ENDBRANCH   2  12
BRANCH   1  35
ATOM     35  N04 TF0 d   1      -3.980   3.824  -8.775  0.00  0.00    -0.349 N 
ATOM     36  C02 TF0 d   1      -4.535   2.518  -8.793  0.00  0.00     0.214 C 
ATOM     37  O03 TF0 d   1      -5.731   2.372  -8.665  0.00  0.00    -0.274 OA
ATOM     38  H8  TF0 d   1      -2.992   3.939  -8.882  0.00  0.00     0.163 HD
BRANCH  36  39
ATOM     39  C01 TF0 d   1      -3.647   1.301  -8.976  0.00  0.00    -0.003 C 
ATOM     40  H5  TF0 d   1      -2.600   1.623  -9.075  0.00  0.00     0.040 H 
ATOM     41  H6  TF0 d   1      -3.951   0.758  -9.883  0.00  0.00     0.040 H 
ATOM     42  H7  TF0 d   1      -3.746   0.640  -8.102  0.00  0.00     0.040 H 
ENDBRANCH  36  39
ENDBRANCH   1  35
BRANCH   3  43
ATOM     43  O14 TF0 d   1      -7.035   6.693  -9.200  0.00  0.00    -0.390 OA
ATOM     44  H18 TF0 d   1      -7.556   6.129  -9.760  0.00  0.00     0.210 HD
ENDBRANCH   3  43
BRANCH   6  45
ATOM     45  O13 TF0 d   1      -2.779   6.158  -8.212  0.00  0.00    -0.369 OA
ATOM     46  H17 TF0 d   1      -2.829   6.528  -9.085  0.00  0.00     0.212 HD
ENDBRANCH   6  45
BRANCH   4  47
ATOM     47  C09 TF0 d   1      -5.642   9.138  -8.718  0.00  0.00     0.043 C 
ATOM     48  H13 TF0 d   1      -6.603   8.977  -8.208  0.00  0.00     0.078 H 
ATOM     49  H14 TF0 d   1      -5.821   9.602  -9.699  0.00  0.00     0.078 H 
BRANCH  47  50
ATOM     50  O10 TF0 d   1      -4.833   9.991  -7.936  0.00  0.00    -0.398 OA
ATOM     51  H15 TF0 d   1      -4.679   9.591  -7.088  0.00  0.00     0.209 HD
ENDBRANCH  47  50
ENDBRANCH   4  47
TORSDOF 13
