REMARK  6 active torsions:
REMARK  status: ('A' for Active; 'I' for Inactive)
REMARK    1  A    between atoms: C2_2  and  N2_3 
REMARK    2  A    between atoms: C9_11  and  C10_13 
REMARK    3  A    between atoms: C10_13  and  N1'_12 
REMARK    4  A    between atoms: C3'_15  and  O3'_16 
REMARK    5  A    between atoms: C4'_17  and  C5'_18 
REMARK    6  A    between atoms: C5'_18  and  O5'_19 
ROOT
ATOM      1  C10 IM5 d   1      -5.285  29.019  13.474  0.00  0.00     0.111 C 
ATOM      2  H8  IM5 d   1      -4.484  29.570  13.988  0.00  0.00     0.083 H 
ATOM      3  H9  IM5 d   1      -4.929  28.010  13.217  0.00  0.00     0.083 H 
ENDROOT
BRANCH   1   4
ATOM      4  C9  IM5 d   1      -5.507  29.728  12.167  0.00  0.00     0.013 A 
ATOM      5  C4  IM5 d   1      -5.465  31.172  11.838  0.00  0.00     0.090 A 
ATOM      6  N3  IM5 d   1      -5.291  32.288  12.599  0.00  0.00    -0.189 N 
ATOM      7  C5  IM5 d   1      -5.710  31.241  10.391  0.00  0.00     0.129 A 
ATOM      8  C2  IM5 d   1      -5.322  33.513  11.990  0.00  0.00     0.679 A 
ATOM      9  H4  IM5 d   1      -5.139  32.211  13.615  0.00  0.00     0.184 HD
ATOM     10  N1  IM5 d   1      -5.545  33.654  10.653  0.00  0.00    -0.154 N 
ATOM     11  C6  IM5 d   1      -5.738  32.608   9.824  0.00  0.00     0.288 A 
ATOM     12  H1  IM5 d   1      -5.566  34.577  10.268  0.00  0.00     0.187 HD
ATOM     13  O6  IM5 d   1      -5.939  32.785   8.610  0.00  0.00    -0.265 OA
ATOM     14  N7  IM5 d   1      -5.852  29.982   9.929  0.00  0.00    -0.359 N 
ATOM     15  C8  IM5 d   1      -5.730  29.082  10.944  0.00  0.00    -0.012 A 
ATOM     16  H5  IM5 d   1      -6.028  29.735   8.945  0.00  0.00     0.165 HD
ATOM     17  H6  IM5 d   1      -5.797  28.002  10.821  0.00  0.00     0.112 H 
BRANCH   8  18
ATOM     18  N2  IM5 d   1      -5.134  34.643  12.738  0.00  0.00    -0.234 N 
ATOM     19  H2  IM5 d   1      -4.963  34.568  13.751  0.00  0.00     0.174 HD
ATOM     20  H3  IM5 d   1      -5.163  35.569  12.288  0.00  0.00     0.174 HD
ENDBRANCH   8  18
ENDBRANCH   1   4
BRANCH   1  21
ATOM     21  N1' IM5 d   1      -6.357  28.834  14.468  0.00  0.00    -0.064 N 
ATOM     22  C2' IM5 d   1      -6.549  30.023  15.323  0.00  0.00     0.108 C 
ATOM     23  C3' IM5 d   1      -7.989  29.902  15.824  0.00  0.00     0.066 C 
ATOM     24  H10 IM5 d   1      -6.416  30.947  14.741  0.00  0.00     0.080 H 
ATOM     25  H11 IM5 d   1      -5.842  30.015  16.165  0.00  0.00     0.080 H 
ATOM     26  C4' IM5 d   1      -8.726  29.139  14.733  0.00  0.00     0.016 C 
ATOM     27  H12 IM5 d   1      -8.430  30.903  15.943  0.00  0.00     0.086 H 
ATOM     28  C6' IM5 d   1      -7.661  28.404  13.915  0.00  0.00     0.091 C 
ATOM     29  H14 IM5 d   1      -9.405  28.409  15.198  0.00  0.00     0.049 H 
ATOM     30  H18 IM5 d   1      -7.781  27.316  14.020  0.00  0.00     0.076 H 
ATOM     31  H19 IM5 d   1      -7.736  28.680  12.853  0.00  0.00     0.076 H 
ATOM     32  H7  IM5 d   1      -6.045  28.088  15.071  0.00  0.00     0.280 HD
BRANCH  23  33
ATOM     33  O3' IM5 d   1      -8.053  29.222  17.085  0.00  0.00    -0.393 OA
ATOM     34  H13 IM5 d   1      -7.550  29.705  17.730  0.00  0.00     0.210 HD
ENDBRANCH  23  33
BRANCH  26  35
ATOM     35  C5' IM5 d   1      -9.543  30.054  13.832  0.00  0.00     0.024 C 
ATOM     36  H15 IM5 d   1      -8.901  30.862  13.451  0.00  0.00     0.074 H 
ATOM     37  H16 IM5 d   1     -10.375  30.487  14.407  0.00  0.00     0.074 H 
BRANCH  35  38
ATOM     38  O5' IM5 d   1     -10.067  29.297  12.727  0.00  0.00    -0.400 OA
ATOM     39  H17 IM5 d   1     -10.577  29.869  12.166  0.00  0.00     0.209 HD
ENDBRANCH  35  38
ENDBRANCH  26  35
ENDBRANCH   1  21
TORSDOF 6
