REMARK  8 active torsions:
REMARK  status: ('A' for Active; 'I' for Inactive)
REMARK    1  A    between atoms: C1_1  and  O1'_12 
REMARK    2  A    between atoms: C2_2  and  O2_3 
REMARK    3  A    between atoms: C3_4  and  O3_5 
REMARK    4  A    between atoms: C4_6  and  O4_7 
REMARK    5  A    between atoms: C5_8  and  C6_9 
REMARK    6  A    between atoms: C6_9  and  O6_10 
REMARK    7  A    between atoms: O1'_12  and  C1'_13 
REMARK    8  A    between atoms: C2'_14  and  N1'_19 
ROOT
ATOM      1  C1  MOL d   1      72.496  73.879 242.036  0.00  0.00     0.164 C 
ATOM      2  C2  MOL d   1      72.226  72.417 241.749  0.00  0.00     0.110 C 
ATOM      3  C3  MOL d   1      72.310  72.132 240.270  0.00  0.00     0.092 C 
ATOM      4  C4  MOL d   1      71.404  73.091 239.540  0.00  0.00     0.090 C 
ATOM      5  C5  MOL d   1      71.793  74.511 239.894  0.00  0.00     0.089 C 
ATOM      6  O5  MOL d   1      71.626  74.696 241.276  0.00  0.00    -0.348 OA
ATOM      7  H1  MOL d   1      73.538  74.137 241.796  0.00  0.00     0.134 H 
ATOM      8  H2  MOL d   1      71.214  72.169 242.102  0.00  0.00     0.094 H 
ATOM      9  H4  MOL d   1      73.343  72.282 239.924  0.00  0.00     0.091 H 
ATOM     10  H6  MOL d   1      71.504  72.942 238.455  0.00  0.00     0.091 H 
ATOM     11  H8  MOL d   1      72.852  74.665 239.637  0.00  0.00     0.090 H 
ENDROOT
BRANCH   1  12
ATOM     12  O1' MOL d   1      72.263  74.011 243.416  0.00  0.00    -0.315 OA
BRANCH  12  13
ATOM     13  C1' MOL d   1      72.557  75.251 244.009  0.00  0.00     0.105 A 
ATOM     14  C2' MOL d   1      71.877  75.653 245.160  0.00  0.00     0.136 A 
ATOM     15  C3' MOL d   1      72.188  76.876 245.735  0.00  0.00    -0.048 A 
ATOM     16  C4' MOL d   1      73.164  77.684 245.183  0.00  0.00    -0.080 A 
ATOM     17  H12 MOL d   1      71.661  77.201 246.625  0.00  0.00     0.087 H 
ATOM     18  C5' MOL d   1      73.840  77.283 244.047  0.00  0.00    -0.080 A 
ATOM     19  H13 MOL d   1      73.400  78.636 245.643  0.00  0.00     0.083 H 
ATOM     20  C6' MOL d   1      73.541  76.064 243.467  0.00  0.00    -0.048 A 
ATOM     21  H14 MOL d   1      74.601  77.921 243.612  0.00  0.00     0.083 H 
ATOM     22  H15 MOL d   1      74.079  75.742 242.583  0.00  0.00     0.087 H 
BRANCH  14  23
ATOM     23  N1' MOL d   1      70.855  74.866 245.765  0.00  0.00    -0.113 N 
ATOM     24  O2' MOL d   1      70.523  75.078 246.924  0.00  0.00    -0.532 OA
ATOM     25  O3' MOL d   1      70.269  73.985 245.148  0.00  0.00    -0.532 OA
ENDBRANCH  14  23
ENDBRANCH  12  13
ENDBRANCH   1  12
BRANCH   2  26
ATOM     26  O2  MOL d   1      73.163  71.612 242.430  0.00  0.00    -0.388 OA
ATOM     27  H3  MOL d   1      73.091  71.766 243.365  0.00  0.00     0.210 HD
ENDBRANCH   2  26
BRANCH   3  28
ATOM     28  O3  MOL d   1      71.937  70.778 240.039  0.00  0.00    -0.390 OA
ATOM     29  H5  MOL d   1      71.987  70.591 239.109  0.00  0.00     0.210 HD
ENDBRANCH   3  28
BRANCH   5  30
ATOM     30  C6  MOL d   1      70.952  75.517 239.114  0.00  0.00     0.043 C 
ATOM     31  H9  MOL d   1      70.786  75.129 238.098  0.00  0.00     0.078 H 
ATOM     32  H10 MOL d   1      71.499  76.470 239.058  0.00  0.00     0.078 H 
BRANCH  30  33
ATOM     33  O6  MOL d   1      69.702  75.744 239.725  0.00  0.00    -0.398 OA
ATOM     34  H11 MOL d   1      69.221  74.926 239.772  0.00  0.00     0.209 HD
ENDBRANCH  30  33
ENDBRANCH   5  30
BRANCH   4  35
ATOM     35  O4  MOL d   1      70.066  72.849 239.931  0.00  0.00    -0.390 OA
ATOM     36  H7  MOL d   1      69.490  73.451 239.474  0.00  0.00     0.210 HD
ENDBRANCH   4  35
TORSDOF 8
