REMARK  9 active torsions:
REMARK  status: ('A' for Active; 'I' for Inactive)
REMARK    1  A    between atoms: C15_2  and  O16_17 
REMARK    2  A    between atoms: C17_3  and  O18_18 
REMARK    3  A    between atoms: C02_5  and  O01_4 
REMARK    4  A    between atoms: C03_6  and  C02_5 
REMARK    5  A    between atoms: O06_9  and  C05_8 
REMARK    6  A    between atoms: C07_10  and  O06_9 
REMARK    7  A    between atoms: C12_14  and  O13_15 
REMARK    8  A    between atoms: O13_15  and  C14_16 
REMARK    9  A    between atoms: C19_19  and  O20_20 
ROOT
ATOM      1  C15 BQY d   1       4.381 244.643   2.986  0.00  0.00     0.110 C 
ATOM      2  C17 BQY d   1       4.725 243.181   2.980  0.00  0.00     0.092 C 
ATOM      3  C03 BQY d   1       2.369 242.747   3.560  0.00  0.00     0.089 C 
ATOM      4  O04 BQY d   1       2.123 244.098   3.631  0.00  0.00    -0.348 OA
ATOM      5  C05 BQY d   1       2.894 244.816   2.709  0.00  0.00     0.165 C 
ATOM      6  C19 BQY d   1       3.817 242.476   3.963  0.00  0.00     0.090 C 
ATOM      7  H2  BQY d   1       4.622 245.075   3.968  0.00  0.00     0.094 H 
ATOM      8  H3  BQY d   1       4.551 242.766   1.976  0.00  0.00     0.091 H 
ATOM      9  H7  BQY d   1       2.231 242.412   2.521  0.00  0.00     0.090 H 
ATOM     10  H8  BQY d   1       2.660 244.477   1.689  0.00  0.00     0.134 H 
ATOM     11  H17 BQY d   1       4.005 241.393   3.935  0.00  0.00     0.091 H 
ENDROOT
BRANCH   5  12
ATOM     12  O06 BQY d   1       2.604 246.205   2.850  0.00  0.00    -0.315 OA
BRANCH  12  13
ATOM     13  C07 BQY d   1       1.285 246.613   2.395  0.00  0.00     0.105 A 
ATOM     14  C08 BQY d   1       0.440 245.790   1.650  0.00  0.00    -0.048 A 
ATOM     15  C09 BQY d   1      -0.816 246.264   1.250  0.00  0.00    -0.080 A 
ATOM     16  H9  BQY d   1       0.754 244.788   1.382  0.00  0.00     0.087 H 
ATOM     17  C10 BQY d   1      -1.222 247.553   1.598  0.00  0.00    -0.080 A 
ATOM     18  H10 BQY d   1      -1.474 245.628   0.669  0.00  0.00     0.083 H 
ATOM     19  C11 BQY d   1      -0.381 248.369   2.342  0.00  0.00    -0.048 A 
ATOM     20  H1  BQY d   1      -2.195 247.917   1.287  0.00  0.00     0.083 H 
ATOM     21  C12 BQY d   1       0.872 247.895   2.742  0.00  0.00     0.101 A 
ATOM     22  H11 BQY d   1      -0.695 249.371   2.612  0.00  0.00     0.087 H 
BRANCH  21  23
ATOM     23  O13 BQY d   1       1.756 248.701   3.497  0.00  0.00    -0.353 OA
BRANCH  23  24
ATOM     24  C14 BQY d   1       1.163 249.494   4.499  0.00  0.00     0.010 C 
ATOM     25  H12 BQY d   1       1.942 250.074   5.017  0.00  0.00     0.066 H 
ATOM     26  H13 BQY d   1       0.647 248.846   5.222  0.00  0.00     0.066 H 
ATOM     27  H14 BQY d   1       0.438 250.182   4.041  0.00  0.00     0.066 H 
ENDBRANCH  23  24
ENDBRANCH  21  23
ENDBRANCH  12  13
ENDBRANCH   5  12
BRANCH   1  28
ATOM     28  O16 BQY d   1       5.133 245.289   1.992  0.00  0.00    -0.388 OA
ATOM     29  H15 BQY d   1       6.059 245.176   2.173  0.00  0.00     0.210 HD
ENDBRANCH   1  28
BRANCH   2  30
ATOM     30  O18 BQY d   1       6.108 243.033   3.304  0.00  0.00    -0.390 OA
ATOM     31  H16 BQY d   1       6.335 242.111   3.303  0.00  0.00     0.210 HD
ENDBRANCH   2  30
BRANCH   3  32
ATOM     32  C02 BQY d   1       1.350 241.994   4.454  0.00  0.00     0.043 C 
ATOM     33  H5  BQY d   1       0.364 242.001   3.967  0.00  0.00     0.078 H 
ATOM     34  H6  BQY d   1       1.684 240.955   4.590  0.00  0.00     0.078 H 
BRANCH  32  35
ATOM     35  O01 BQY d   1       1.254 242.611   5.692  0.00  0.00    -0.398 OA
ATOM     36  H4  BQY d   1       2.105 242.604   6.115  0.00  0.00     0.209 HD
ENDBRANCH  32  35
ENDBRANCH   3  32
BRANCH   6  37
ATOM     37  O20 BQY d   1       4.096 242.965   5.264  0.00  0.00    -0.390 OA
ATOM     38  H18 BQY d   1       3.524 242.538   5.891  0.00  0.00     0.210 HD
ENDBRANCH   6  37
TORSDOF 9
