REMARK  7 active torsions:
REMARK  status: ('A' for Active; 'I' for Inactive)
REMARK    1  A    between atoms: C10_1  and  O17_20 
REMARK    2  A    between atoms: O07_11  and  C05_9 
REMARK    3  A    between atoms: C08_12  and  O07_11 
REMARK    4  A    between atoms: C09_13  and  O18_21 
REMARK    5  A    between atoms: C11_14  and  O16_19 
REMARK    6  A    between atoms: C12_15  and  C14_17 
REMARK    7  A    between atoms: C14_17  and  O15_18 
ROOT
ATOM      1  C10 BS7 d   1      22.227  72.293 127.385  0.00  0.00     0.092 C 
ATOM      2  C08 BS7 d   1      22.491  74.128 128.964  0.00  0.00     0.164 C 
ATOM      3  C09 BS7 d   1      22.191  72.674 128.833  0.00  0.00     0.110 C 
ATOM      4  C11 BS7 d   1      21.259  73.169 126.595  0.00  0.00     0.090 C 
ATOM      5  C12 BS7 d   1      21.623  74.617 126.851  0.00  0.00     0.089 C 
ATOM      6  O13 BS7 d   1      21.558  74.896 128.225  0.00  0.00    -0.348 OA
ATOM      7  H1  BS7 d   1      23.243  72.445 126.992  0.00  0.00     0.091 H 
ATOM      8  H8  BS7 d   1      23.517  74.334 128.625  0.00  0.00     0.134 H 
ATOM      9  H9  BS7 d   1      21.198  72.462 129.256  0.00  0.00     0.094 H 
ATOM     10  H10 BS7 d   1      21.351  72.955 125.520  0.00  0.00     0.091 H 
ATOM     11  H11 BS7 d   1      22.659  74.766 126.511  0.00  0.00     0.090 H 
ENDROOT
BRANCH   2  12
ATOM     12  O07 BS7 d   1      22.319  74.506 130.321  0.00  0.00    -0.315 OA
BRANCH  12  13
ATOM     13  C05 BS7 d   1      22.765  75.768 130.752  0.00  0.00     0.101 A 
ATOM     14  C04 BS7 d   1      22.255  76.267 131.932  0.00  0.00     0.100 A 
ATOM     15  C03 BS7 d   1      22.643  77.508 132.418  0.00  0.00    -0.005 A 
ATOM     16  N19 BS7 d   1      21.366  75.490 132.609  0.00  0.00    -0.257 NA
ATOM     17  C22 BS7 d   1      22.103  77.965 133.611  0.00  0.00    -0.069 A 
ATOM     18  C02 BS7 d   1      23.568  78.271 131.701  0.00  0.00    -0.071 A 
ATOM     19  C21 BS7 d   1      21.181  77.153 134.298  0.00  0.00    -0.065 A 
ATOM     20  H4  BS7 d   1      22.387  78.933 134.008  0.00  0.00     0.085 H 
ATOM     21  C20 BS7 d   1      20.823  75.932 133.787  0.00  0.00     0.003 A 
ATOM     22  H3  BS7 d   1      20.753  77.494 135.234  0.00  0.00     0.085 H 
ATOM     23  H2  BS7 d   1      20.108  75.314 134.317  0.00  0.00     0.114 H 
ATOM     24  C01 BS7 d   1      24.044  77.803 130.524  0.00  0.00    -0.079 A 
ATOM     25  H6  BS7 d   1      23.901  79.229 132.084  0.00  0.00     0.084 H 
ATOM     26  C06 BS7 d   1      23.643  76.543 130.033  0.00  0.00    -0.048 A 
ATOM     27  H5  BS7 d   1      24.742  78.403 129.952  0.00  0.00     0.083 H 
ATOM     28  H7  BS7 d   1      24.029  76.185 129.085  0.00  0.00     0.087 H 
ENDBRANCH  12  13
ENDBRANCH   2  12
BRANCH   3  29
ATOM     29  O18 BS7 d   1      23.195  71.895 129.519  0.00  0.00    -0.388 OA
ATOM     30  H17 BS7 d   1      22.994  70.971 129.429  0.00  0.00     0.210 HD
ENDBRANCH   3  29
BRANCH   1  31
ATOM     31  O17 BS7 d   1      21.885  70.897 127.277  0.00  0.00    -0.390 OA
ATOM     32  H16 BS7 d   1      21.917  70.634 126.365  0.00  0.00     0.210 HD
ENDBRANCH   1  31
BRANCH   5  33
ATOM     33  C14 BS7 d   1      20.717  75.628 126.086  0.00  0.00     0.043 C 
ATOM     34  H12 BS7 d   1      20.602  75.291 125.045  0.00  0.00     0.078 H 
ATOM     35  H13 BS7 d   1      21.194  76.619 126.100  0.00  0.00     0.078 H 
BRANCH  33  36
ATOM     36  O15 BS7 d   1      19.436  75.723 126.685  0.00  0.00    -0.398 OA
ATOM     37  H14 BS7 d   1      19.018  74.870 126.672  0.00  0.00     0.209 HD
ENDBRANCH  33  36
ENDBRANCH   5  33
BRANCH   4  38
ATOM     38  O16 BS7 d   1      19.922  72.878 127.020  0.00  0.00    -0.390 OA
ATOM     39  H15 BS7 d   1      19.312  73.430 126.544  0.00  0.00     0.210 HD
ENDBRANCH   4  38
TORSDOF 7
