REMARK  10 active torsions:
REMARK  status: ('A' for Active; 'I' for Inactive)
REMARK    1  A    between atoms: C16_22  and  C17_3 
REMARK    2  A    between atoms: C21_5  and  C22_6 
REMARK    3  A    between atoms: C26_7  and  N27_28 
REMARK       I    between atoms: N27_28  and  C28_8 
REMARK    4  A    between atoms: C28_8  and  C29_29 
REMARK    5  A    between atoms: C02_10  and  O01_9 
REMARK    6  A    between atoms: C03_11  and  O04_12 
REMARK    7  A    between atoms: C05_13  and  C06_14 
REMARK    8  A    between atoms: C06_14  and  O07_15 
REMARK    9  A    between atoms: O10_18  and  C09_17 
REMARK   10  A    between atoms: C11_19  and  O10_18 
ROOT
ATOM      1  C26 BTG d   1      21.859 124.087 129.692  0.00  0.00     0.087 C 
ATOM      2  C02 BTG d   1      22.002 123.886 128.203  0.00  0.00     0.086 C 
ATOM      3  C03 BTG d   1      21.063 124.832 127.499  0.00  0.00     0.089 C 
ATOM      4  C05 BTG d   1      21.459 126.242 127.861  0.00  0.00     0.089 C 
ATOM      5  O08 BTG d   1      21.351 126.399 129.258  0.00  0.00    -0.349 OA
ATOM      6  C09 BTG d   1      22.108 125.528 130.069  0.00  0.00     0.159 C 
ATOM      7  H4  BTG d   1      20.840 123.806 129.995  0.00  0.00     0.084 H 
ATOM      8  H6  BTG d   1      23.038 124.091 127.895  0.00  0.00     0.090 H 
ATOM      9  H7  BTG d   1      21.133 124.692 126.410  0.00  0.00     0.091 H 
ATOM     10  H9  BTG d   1      22.499 126.424 127.551  0.00  0.00     0.090 H 
ATOM     11  H13 BTG d   1      23.177 125.768 129.965  0.00  0.00     0.133 H 
ENDROOT
BRANCH   6  12
ATOM     12  O10 BTG d   1      21.705 125.654 131.411  0.00  0.00    -0.317 OA
BRANCH  12  13
ATOM     13  C11 BTG d   1      22.223 126.753 132.129  0.00  0.00     0.083 A 
ATOM     14  C12 BTG d   1      23.035 127.732 131.565  0.00  0.00    -0.050 A 
ATOM     15  C13 BTG d   1      23.504 128.776 132.348  0.00  0.00    -0.080 A 
ATOM     16  H14 BTG d   1      23.300 127.679 130.515  0.00  0.00     0.087 H 
ATOM     17  C14 BTG d   1      23.164 128.846 133.691  0.00  0.00    -0.082 A 
ATOM     18  H1  BTG d   1      24.137 129.539 131.910  0.00  0.00     0.083 H 
ATOM     19  C15 BTG d   1      22.356 127.870 134.254  0.00  0.00    -0.070 A 
ATOM     20  H15 BTG d   1      23.530 129.664 134.301  0.00  0.00     0.083 H 
ATOM     21  C16 BTG d   1      21.887 126.830 133.470  0.00  0.00     0.008 A 
ATOM     22  H2  BTG d   1      22.093 127.921 135.304  0.00  0.00     0.085 H 
BRANCH  21  23
ATOM     23  C17 BTG d   1      21.004 125.747 134.053  0.00  0.00    -0.022 A 
ATOM     24  C18 BTG d   1      19.648 125.969 134.235  0.00  0.00    -0.072 A 
ATOM     25  C19 BTG d   1      18.848 124.967 134.764  0.00  0.00    -0.081 A 
ATOM     26  H16 BTG d   1      19.213 126.924 133.964  0.00  0.00     0.084 H 
ATOM     27  C20 BTG d   1      19.403 123.743 135.105  0.00  0.00    -0.066 A 
ATOM     28  H17 BTG d   1      17.788 125.141 134.911  0.00  0.00     0.083 H 
ATOM     29  C21 BTG d   1      20.757 123.521 134.916  0.00  0.00     0.041 A 
ATOM     30  H3  BTG d   1      18.778 122.960 135.519  0.00  0.00     0.085 H 
ATOM     31  C25 BTG d   1      21.555 124.523 134.388  0.00  0.00    -0.056 A 
ATOM     32  H18 BTG d   1      22.614 124.347 134.237  0.00  0.00     0.086 H 
BRANCH  29  33
ATOM     33  C22 BTG d   1      21.367 122.185 135.284  0.00  0.00     0.209 C 
ATOM     34  O23 BTG d   1      20.842 121.119 134.870  0.00  0.00    -0.644 OA
ATOM     35  O24 BTG d   1      22.402 122.142 136.001  0.00  0.00    -0.644 OA
ENDBRANCH  29  33
ENDBRANCH  21  23
ENDBRANCH  12  13
ENDBRANCH   6  12
BRANCH   1  36
ATOM     36  N27 BTG d   1      22.801 123.266 130.378  0.00  0.00    -0.349 N 
ATOM     37  C28 BTG d   1      22.407 122.475 131.493  0.00  0.00     0.214 C 
ATOM     38  O30 BTG d   1      21.258 122.481 131.885  0.00  0.00    -0.274 OA
ATOM     39  H19 BTG d   1      23.753 123.246 130.071  0.00  0.00     0.163 HD
BRANCH  37  40
ATOM     40  C29 BTG d   1      23.425 121.614 132.206  0.00  0.00    -0.003 C 
ATOM     41  H20 BTG d   1      22.937 121.080 133.035  0.00  0.00     0.040 H 
ATOM     42  H21 BTG d   1      24.230 122.250 132.602  0.00  0.00     0.040 H 
ATOM     43  H22 BTG d   1      23.848 120.885 131.499  0.00  0.00     0.040 H 
ENDBRANCH  37  40
ENDBRANCH   1  36
BRANCH   2  44
ATOM     44  O01 BTG d   1      21.666 122.556 127.880  0.00  0.00    -0.391 OA
ATOM     45  H5  BTG d   1      21.755 122.427 126.943  0.00  0.00     0.210 HD
ENDBRANCH   2  44
BRANCH   4  46
ATOM     46  C06 BTG d   1      20.549 127.221 127.156  0.00  0.00     0.043 C 
ATOM     47  H10 BTG d   1      20.173 126.768 126.227  0.00  0.00     0.078 H 
ATOM     48  H11 BTG d   1      21.110 128.136 126.917  0.00  0.00     0.078 H 
BRANCH  46  49
ATOM     49  O07 BTG d   1      19.462 127.542 127.995  0.00  0.00    -0.398 OA
ATOM     50  H12 BTG d   1      18.978 126.751 128.201  0.00  0.00     0.209 HD
ENDBRANCH  46  49
ENDBRANCH   4  46
BRANCH   3  51
ATOM     51  O04 BTG d   1      19.744 124.578 127.926  0.00  0.00    -0.390 OA
ATOM     52  H8  BTG d   1      19.149 125.173 127.484  0.00  0.00     0.210 HD
ENDBRANCH   3  51
TORSDOF 10
