REMARK  7 active torsions:
REMARK  status: ('A' for Active; 'I' for Inactive)
REMARK    1  A    between atoms: C07_7  and  C10_1 
REMARK    2  A    between atoms: C17_3  and  N20_13 
REMARK    3  A    between atoms: C02_4  and  O01_14 
REMARK    4  A    between atoms: C03_5  and  O04_15 
REMARK    5  A    between atoms: O13_20  and  C05_6 
REMARK    6  A    between atoms: C08_8  and  O09_17 
REMARK    7  A    between atoms: C14_9  and  O13_20 
ROOT
ATOM      1  C02 C3G d   1      51.149  44.019 167.724  0.00  0.00     0.092 C 
ATOM      2  C03 C3G d   1      52.060  43.050 168.344  0.00  0.00     0.110 C 
ATOM      3  C05 C3G d   1      52.823  42.207 167.293  0.00  0.00     0.165 C 
ATOM      4  C07 C3G d   1      52.629  44.080 165.699  0.00  0.00     0.152 C 
ATOM      5  C08 C3G d   1      51.868  44.902 166.769  0.00  0.00     0.097 C 
ATOM      6  O06 C3G d   1      53.505  43.056 166.287  0.00  0.00    -0.340 OA
ATOM      7  H2  C3G d   1      50.364  43.473 167.181  0.00  0.00     0.091 H 
ATOM      8  H3  C3G d   1      52.794  43.600 168.951  0.00  0.00     0.094 H 
ATOM      9  H4  C3G d   1      52.118  41.538 166.779  0.00  0.00     0.134 H 
ATOM     10  H5  C3G d   1      51.892  43.581 165.053  0.00  0.00     0.104 H 
ATOM     11  H6  C3G d   1      52.590  45.519 167.325  0.00  0.00     0.091 H 
ENDROOT
BRANCH   3  12
ATOM     12  O13 C3G d   1      53.865  41.389 168.044  0.00  0.00    -0.318 OA
BRANCH  12  13
ATOM     13  C14 C3G d   1      54.395  40.337 167.264  0.00  0.00     0.072 A 
ATOM     14  C15 C3G d   1      55.504  40.575 166.401  0.00  0.00    -0.048 A 
ATOM     15  C16 C3G d   1      56.035  39.527 165.636  0.00  0.00    -0.048 A 
ATOM     16  H1  C3G d   1      55.937  41.567 166.336  0.00  0.00     0.087 H 
ATOM     17  C17 C3G d   1      55.491  38.268 165.720  0.00  0.00     0.103 A 
ATOM     18  H7  C3G d   1      56.876  39.710 164.977  0.00  0.00     0.087 H 
ATOM     19  C18 C3G d   1      54.374  38.021 166.591  0.00  0.00    -0.048 A 
ATOM     20  C19 C3G d   1      53.845  39.058 167.351  0.00  0.00    -0.048 A 
ATOM     21  H8  C3G d   1      53.945  37.028 166.655  0.00  0.00     0.087 H 
ATOM     22  H9  C3G d   1      53.005  38.873 168.011  0.00  0.00     0.087 H 
BRANCH  17  23
ATOM     23  N20 C3G d   1      56.038  37.209 164.938  0.00  0.00    -0.116 N 
ATOM     24  O21 C3G d   1      57.079  37.492 163.956  0.00  0.00    -0.532 OA
ATOM     25  O22 C3G d   1      55.660  36.128 165.084  0.00  0.00    -0.532 OA
ENDBRANCH  17  23
ENDBRANCH  12  13
ENDBRANCH   3  12
BRANCH   2  26
ATOM     26  O04 C3G d   1      51.297  42.150 169.212  0.00  0.00    -0.388 OA
ATOM     27  H11 C3G d   1      50.826  42.661 169.860  0.00  0.00     0.210 HD
ENDBRANCH   2  26
BRANCH   1  28
ATOM     28  O01 C3G d   1      50.530  44.842 168.777  0.00  0.00    -0.390 OA
ATOM     29  H10 C3G d   1      50.070  44.279 169.388  0.00  0.00     0.210 HD
ENDBRANCH   1  28
BRANCH   4  30
ATOM     30  C10 C3G d   1      53.477  45.019 164.860  0.00  0.00     0.206 C 
ATOM     31  O11 C3G d   1      52.992  46.077 164.428  0.00  0.00    -0.646 OA
ATOM     32  O12 C3G d   1      54.732  44.703 164.586  0.00  0.00    -0.646 OA
ENDBRANCH   4  30
BRANCH   5  33
ATOM     33  O09 C3G d   1      50.941  45.729 166.136  0.00  0.00    -0.390 OA
ATOM     34  H12 C3G d   1      51.395  46.317 165.544  0.00  0.00     0.210 HD
ENDBRANCH   5  33
TORSDOF 7
