REMARK  7 active torsions:
REMARK  status: ('A' for Active; 'I' for Inactive)
REMARK    1  A    between atoms: C6_3  and  N6_18 
REMARK    2  A    between atoms: N1'_12  and  C10_4 
REMARK    3  A    between atoms: C10_4  and  C9_15 
REMARK    4  A    between atoms: C20_5  and  C21_6 
REMARK    5  A    between atoms: C4'_14  and  C20_5 
REMARK    6  A    between atoms: C21_6  and  C22_8 
REMARK    7  A    between atoms: C3'_10  and  O3'_9 
ROOT
ATOM      1  C3' C1Y d   1     -33.170   4.576  97.209  0.00  0.00     0.064 C 
ATOM      2  C2' C1Y d   1     -32.075   5.204  96.384  0.00  0.00     0.107 C 
ATOM      3  N1' C1Y d   1     -32.611   5.022  95.020  0.00  0.00    -0.064 N 
ATOM      4  C1' C1Y d   1     -34.082   5.246  95.087  0.00  0.00     0.089 C 
ATOM      5  C4' C1Y d   1     -34.462   5.050  96.555  0.00  0.00    -0.004 C 
ATOM      6  H12 C1Y d   1     -33.125   4.909  98.257  0.00  0.00     0.086 H 
ATOM      7  H13 C1Y d   1     -31.118   4.678  96.516  0.00  0.00     0.080 H 
ATOM      8  H14 C1Y d   1     -31.945   6.269  96.628  0.00  0.00     0.080 H 
ATOM      9  H15 C1Y d   1     -32.487   4.049  94.789  0.00  0.00     0.280 HD
ATOM     10  H16 C1Y d   1     -34.610   4.519  94.453  0.00  0.00     0.076 H 
ATOM     11  H17 C1Y d   1     -34.330   6.266  94.759  0.00  0.00     0.076 H 
ATOM     12  H18 C1Y d   1     -35.222   4.258  96.634  0.00  0.00     0.046 H 
ENDROOT
BRANCH   3  13
ATOM     13  C10 C1Y d   1     -31.878   5.747  93.984  0.00  0.00     0.111 C 
ATOM     14  H1  C1Y d   1     -32.111   5.268  93.021  0.00  0.00     0.083 H 
ATOM     15  H2  C1Y d   1     -30.805   5.634  94.200  0.00  0.00     0.083 H 
BRANCH  13  16
ATOM     16  C9  C1Y d   1     -32.153   7.223  93.831  0.00  0.00     0.014 A 
ATOM     17  C4  C1Y d   1     -31.766   8.347  94.688  0.00  0.00     0.098 A 
ATOM     18  C5  C1Y d   1     -32.262   9.545  94.033  0.00  0.00     0.107 A 
ATOM     19  N3  C1Y d   1     -31.097   8.396  95.866  0.00  0.00    -0.239 NA
ATOM     20  C6  C1Y d   1     -31.984  10.809  94.731  0.00  0.00     0.151 A 
ATOM     21  N7  C1Y d   1     -32.874   9.169  92.908  0.00  0.00    -0.360 N 
ATOM     22  N1  C1Y d   1     -31.314  10.753  95.910  0.00  0.00    -0.223 NA
ATOM     23  C2  C1Y d   1     -30.885   9.588  96.441  0.00  0.00     0.089 A 
ATOM     24  H22 C1Y d   1     -30.342   9.618  97.379  0.00  0.00     0.146 H 
ATOM     25  C8  C1Y d   1     -32.807   7.813  92.761  0.00  0.00    -0.012 A 
ATOM     26  H19 C1Y d   1     -33.332   9.810  92.245  0.00  0.00     0.165 HD
ATOM     27  H7  C1Y d   1     -33.215   7.266  91.912  0.00  0.00     0.112 H 
BRANCH  20  28
ATOM     28  N6  C1Y d   1     -32.399  11.979  94.203  0.00  0.00    -0.382 N 
ATOM     29  H20 C1Y d   1     -32.203  12.863  94.693  0.00  0.00     0.157 HD
ATOM     30  H21 C1Y d   1     -32.911  11.988  93.310  0.00  0.00     0.157 HD
ENDBRANCH  20  28
ENDBRANCH  13  16
ENDBRANCH   3  13
BRANCH   1  31
ATOM     31  O3' C1Y d   1     -33.011   3.151  97.144  0.00  0.00    -0.393 OA
ATOM     32  H11 C1Y d   1     -32.160   2.912  97.491  0.00  0.00     0.210 HD
ENDBRANCH   1  31
BRANCH   5  33
ATOM     33  C20 C1Y d   1     -35.047   6.322  97.200  0.00  0.00    -0.058 C 
ATOM     34  H3  C1Y d   1     -34.801   6.312  98.272  0.00  0.00     0.033 H 
ATOM     35  H4  C1Y d   1     -34.580   7.197  96.725  0.00  0.00     0.033 H 
BRANCH  33  36
ATOM     36  C21 C1Y d   1     -36.578   6.448  97.054  0.00  0.00    -0.068 C 
ATOM     37  H5  C1Y d   1     -36.922   5.652  96.377  0.00  0.00     0.032 H 
ATOM     38  H6  C1Y d   1     -36.798   7.429  96.608  0.00  0.00     0.032 H 
BRANCH  36  39
ATOM     39  C22 C1Y d   1     -37.364   6.334  98.351  0.00  0.00    -0.077 C 
ATOM     40  H8  C1Y d   1     -38.438   6.437  98.139  0.00  0.00     0.027 H 
ATOM     41  H9  C1Y d   1     -37.049   7.130  99.042  0.00  0.00     0.027 H 
ATOM     42  H10 C1Y d   1     -37.173   5.353  98.810  0.00  0.00     0.027 H 
ENDBRANCH  36  39
ENDBRANCH  33  36
ENDBRANCH   5  33
TORSDOF 7
