REMARK  6 active torsions:
REMARK  status: ('A' for Active; 'I' for Inactive)
REMARK    1  A    between atoms: S_6  and  CS5_5 
REMARK    2  A    between atoms: C5'_7  and  S_6 
REMARK    3  A    between atoms: C4'_8  and  C5'_7 
REMARK    4  A    between atoms: C10_11  and  N1'_10 
REMARK    5  A    between atoms: C10_11  and  C9_12 
REMARK    6  A    between atoms: C3'_19  and  O3'_20 
ROOT
ATOM      1  C4' TDI d   1      17.451  -5.797  31.753  0.00  0.00     0.004 C 
ATOM      2  C1' TDI d   1      16.948  -5.704  30.319  0.00  0.00     0.090 C 
ATOM      3  N1' TDI d   1      15.542  -6.022  30.486  0.00  0.00    -0.064 N 
ATOM      4  C2' TDI d   1      15.069  -5.916  31.862  0.00  0.00     0.108 C 
ATOM      5  C3' TDI d   1      16.261  -5.323  32.574  0.00  0.00     0.064 C 
ATOM      6  H7  TDI d   1      18.299  -5.113  31.901  0.00  0.00     0.047 H 
ATOM      7  H8  TDI d   1      17.451  -6.434  29.668  0.00  0.00     0.076 H 
ATOM      8  H9  TDI d   1      17.085  -4.692  29.910  0.00  0.00     0.076 H 
ATOM      9  H10 TDI d   1      15.261  -5.076  30.279  0.00  0.00     0.280 HD
ATOM     10  H17 TDI d   1      14.813  -6.904  32.271  0.00  0.00     0.080 H 
ATOM     11  H18 TDI d   1      14.194  -5.253  31.931  0.00  0.00     0.080 H 
ATOM     12  H19 TDI d   1      16.329  -5.652  33.621  0.00  0.00     0.086 H 
ENDROOT
BRANCH   3  13
ATOM     13  C10 TDI d   1      14.739  -6.509  29.402  0.00  0.00     0.111 C 
ATOM     14  H11 TDI d   1      14.994  -5.982  28.471  0.00  0.00     0.083 H 
ATOM     15  H12 TDI d   1      13.671  -6.366  29.624  0.00  0.00     0.083 H 
BRANCH  13  16
ATOM     16  C9  TDI d   1      15.055  -7.981  29.274  0.00  0.00     0.014 A 
ATOM     17  C4  TDI d   1      14.735  -9.113  30.151  0.00  0.00     0.098 A 
ATOM     18  C5  TDI d   1      15.252 -10.311  29.512  0.00  0.00     0.107 A 
ATOM     19  N3  TDI d   1      14.112  -9.149  31.347  0.00  0.00    -0.239 NA
ATOM     20  C6  TDI d   1      15.032 -11.572  30.211  0.00  0.00     0.151 A 
ATOM     21  N7  TDI d   1      15.826  -9.920  28.361  0.00  0.00    -0.360 N 
ATOM     22  N6  TDI d   1      15.454 -12.742  29.699  0.00  0.00    -0.382 N 
ATOM     23  N1  TDI d   1      14.410 -11.527  31.404  0.00  0.00    -0.223 NA
ATOM     24  H15 TDI d   1      15.286 -13.619  30.212  0.00  0.00     0.157 HD
ATOM     25  H16 TDI d   1      15.945 -12.761  28.794  0.00  0.00     0.157 HD
ATOM     26  C2  TDI d   1      13.972 -10.352  31.920  0.00  0.00     0.089 A 
ATOM     27  H1  TDI d   1      13.465 -10.389  32.878  0.00  0.00     0.146 H 
ATOM     28  C8  TDI d   1      15.706  -8.571  28.202  0.00  0.00    -0.012 A 
ATOM     29  H14 TDI d   1      16.291 -10.551  27.693  0.00  0.00     0.165 HD
ATOM     30  H13 TDI d   1      16.077  -8.023  27.337  0.00  0.00     0.112 H 
ENDBRANCH  13  16
ENDBRANCH   3  13
BRANCH   1  31
ATOM     31  C5' TDI d   1      17.920  -7.220  32.103  0.00  0.00    -0.017 C 
ATOM     32  H5  TDI d   1      17.037  -7.875  32.136  0.00  0.00     0.049 H 
ATOM     33  H6  TDI d   1      18.601  -7.562  31.310  0.00  0.00     0.049 H 
BRANCH  31  34
ATOM     34  S   TDI d   1      18.765  -7.350  33.655  0.00  0.00    -0.173 SA
BRANCH  34  35
ATOM     35  CS5 TDI d   1      20.369  -6.780  33.172  0.00  0.00    -0.035 C 
ATOM     36  H2  TDI d   1      21.041  -6.797  34.042  0.00  0.00     0.041 H 
ATOM     37  H3  TDI d   1      20.293  -5.752  32.787  0.00  0.00     0.041 H 
ATOM     38  H4  TDI d   1      20.770  -7.437  32.386  0.00  0.00     0.041 H 
ENDBRANCH  34  35
ENDBRANCH  31  34
ENDBRANCH   1  31
BRANCH   5  39
ATOM     39  O3' TDI d   1      16.145  -3.907  32.487  0.00  0.00    -0.393 OA
ATOM     40  H20 TDI d   1      15.336  -3.631  32.902  0.00  0.00     0.210 HD
ENDBRANCH   5  39
TORSDOF 6
