REMARK  10 active torsions:
REMARK  status: ('A' for Active; 'I' for Inactive)
REMARK    1  A    between atoms: C3'_6  and  O3'_5 
REMARK    2  A    between atoms: C4'_7  and  C5'_8 
REMARK    3  A    between atoms: C5'_8  and  S5'_9 
REMARK    4  A    between atoms: S5'_9  and  C20_10 
REMARK    5  A    between atoms: C20_10  and  C21_11 
REMARK    6  A    between atoms: C21_11  and  C22_12 
REMARK    7  A    between atoms: C22_12  and  C23_13 
REMARK    8  A    between atoms: C10_17  and  N1'_15 
REMARK    9  A    between atoms: C10_17  and  C9_22 
REMARK   10  A    between atoms: C6_19  and  N6_20 
ROOT
ATOM      1  C3' BIG d   1      67.841  14.770  42.366  0.00  0.00     0.064 C 
ATOM      2  C4' BIG d   1      66.745  15.591  42.997  0.00  0.00     0.004 C 
ATOM      3  C1' BIG d   1      65.522  15.141  42.199  0.00  0.00     0.090 C 
ATOM      4  N1' BIG d   1      66.048  14.551  40.952  0.00  0.00    -0.064 N 
ATOM      5  C2' BIG d   1      67.521  14.788  40.899  0.00  0.00     0.108 C 
ATOM      6  H4  BIG d   1      68.843  15.165  42.588  0.00  0.00     0.086 H 
ATOM      7  H5  BIG d   1      66.641  15.320  44.058  0.00  0.00     0.047 H 
ATOM      8  H17 BIG d   1      64.875  16.001  41.972  0.00  0.00     0.076 H 
ATOM      9  H18 BIG d   1      64.950  14.391  42.766  0.00  0.00     0.076 H 
ATOM     10  H19 BIG d   1      65.919  13.555  41.038  0.00  0.00     0.280 HD
ATOM     11  H20 BIG d   1      68.044  13.986  40.357  0.00  0.00     0.080 H 
ATOM     12  H21 BIG d   1      67.762  15.758  40.441  0.00  0.00     0.080 H 
ENDROOT
BRANCH   4  13
ATOM     13  C10 BIG d   1      65.355  14.920  39.721  0.00  0.00     0.111 C 
ATOM     14  H22 BIG d   1      64.365  14.441  39.751  0.00  0.00     0.083 H 
ATOM     15  H23 BIG d   1      65.938  14.506  38.885  0.00  0.00     0.083 H 
BRANCH  13  16
ATOM     16  C9  BIG d   1      65.130  16.388  39.423  0.00  0.00     0.014 A 
ATOM     17  C4  BIG d   1      66.026  17.452  38.933  0.00  0.00     0.098 A 
ATOM     18  C5  BIG d   1      65.212  18.663  38.803  0.00  0.00     0.107 A 
ATOM     19  N3  BIG d   1      67.358  17.457  38.670  0.00  0.00    -0.239 NA
ATOM     20  N7  BIG d   1      63.953  18.338  39.144  0.00  0.00    -0.360 N 
ATOM     21  C6  BIG d   1      65.930  19.878  38.322  0.00  0.00     0.151 A 
ATOM     22  C8  BIG d   1      63.890  17.029  39.509  0.00  0.00    -0.012 A 
ATOM     23  H24 BIG d   1      63.152  18.986  39.131  0.00  0.00     0.165 HD
ATOM     24  H2  BIG d   1      62.975  16.535  39.832  0.00  0.00     0.112 H 
ATOM     25  N1  BIG d   1      67.252  19.766  38.084  0.00  0.00    -0.223 NA
ATOM     26  C2  BIG d   1      67.933  18.605  38.260  0.00  0.00     0.089 A 
ATOM     27  H1  BIG d   1      68.998  18.601  38.060  0.00  0.00     0.146 H 
BRANCH  21  28
ATOM     28  N6  BIG d   1      65.305  21.060  38.137  0.00  0.00    -0.382 N 
ATOM     29  H25 BIG d   1      65.836  21.877  37.803  0.00  0.00     0.157 HD
ATOM     30  H26 BIG d   1      64.297  21.145  38.330  0.00  0.00     0.157 HD
ENDBRANCH  21  28
ENDBRANCH  13  16
ENDBRANCH   4  13
BRANCH   2  31
ATOM     31  C5' BIG d   1      66.918  17.103  42.911  0.00  0.00    -0.016 C 
ATOM     32  H6  BIG d   1      65.949  17.587  43.103  0.00  0.00     0.049 H 
ATOM     33  H7  BIG d   1      67.266  17.368  41.902  0.00  0.00     0.049 H 
BRANCH  31  34
ATOM     34  S5' BIG d   1      68.089  17.676  44.090  0.00  0.00    -0.169 SA
BRANCH  34  35
ATOM     35  C20 BIG d   1      67.120  17.752  45.566  0.00  0.00    -0.023 C 
ATOM     36  H8  BIG d   1      66.671  16.765  45.752  0.00  0.00     0.048 H 
ATOM     37  H9  BIG d   1      66.323  18.499  45.435  0.00  0.00     0.048 H 
BRANCH  35  38
ATOM     38  C21 BIG d   1      67.973  18.142  46.760  0.00  0.00    -0.058 C 
ATOM     39  H10 BIG d   1      68.556  19.041  46.513  0.00  0.00     0.034 H 
ATOM     40  H11 BIG d   1      68.658  17.317  47.003  0.00  0.00     0.034 H 
BRANCH  38  41
ATOM     41  C22 BIG d   1      67.084  18.432  47.965  0.00  0.00    -0.068 C 
ATOM     42  H12 BIG d   1      66.487  17.539  48.202  0.00  0.00     0.032 H 
ATOM     43  H13 BIG d   1      66.412  19.270  47.729  0.00  0.00     0.032 H 
BRANCH  41  44
ATOM     44  C23 BIG d   1      67.939  18.795  49.159  0.00  0.00    -0.076 C 
ATOM     45  H14 BIG d   1      67.292  19.003  50.024  0.00  0.00     0.027 H 
ATOM     46  H15 BIG d   1      68.536  19.689  48.925  0.00  0.00     0.027 H 
ATOM     47  H16 BIG d   1      68.611  17.957  49.397  0.00  0.00     0.027 H 
ENDBRANCH  41  44
ENDBRANCH  38  41
ENDBRANCH  35  38
ENDBRANCH  34  35
ENDBRANCH  31  34
ENDBRANCH   2  31
BRANCH   1  48
ATOM     48  O3' BIG d   1      67.691  13.418  42.801  0.00  0.00    -0.393 OA
ATOM     49  H3  BIG d   1      68.374  12.884  42.413  0.00  0.00     0.210 HD
ENDBRANCH   1  48
TORSDOF 10
