REMARK  12 active torsions:
REMARK  status: ('A' for Active; 'I' for Inactive)
REMARK    1  A    between atoms: O3A_1  and  C3A_2 
REMARK    2  A    between atoms: C4A_3  and  C5A_4 
REMARK    3  A    between atoms: C5A_4  and  S5A_5 
REMARK    4  A    between atoms: S5A_5  and  C20_6 
REMARK    5  A    between atoms: C20_6  and  C21_7 
REMARK    6  A    between atoms: C21_7  and  C22_8 
REMARK    7  A    between atoms: C22_8  and  C23_9 
REMARK    8  A    between atoms: C23_9  and  C24_10 
REMARK    9  A    between atoms: C24_10  and  C25_11 
REMARK   10  A    between atoms: N1A_13  and  C10_15 
REMARK   11  A    between atoms: C10_15  and  C9_16 
REMARK   12  A    between atoms: C6_21  and  N6_22 
ROOT
ATOM      1  C3A HT6 d   1     -27.000  24.490   4.959  0.00  0.00     0.064 C 
ATOM      2  C4A HT6 d   1     -25.901  25.428   5.405  0.00  0.00     0.004 C 
ATOM      3  C2A HT6 d   1     -26.611  23.181   5.577  0.00  0.00     0.108 C 
ATOM      4  N1A HT6 d   1     -25.157  23.164   5.348  0.00  0.00    -0.064 N 
ATOM      5  C1A HT6 d   1     -24.651  24.554   5.404  0.00  0.00     0.090 C 
ATOM      6  H2  HT6 d   1     -27.978  24.829   5.333  0.00  0.00     0.086 H 
ATOM      7  H3  HT6 d   1     -25.793  26.254   4.686  0.00  0.00     0.047 H 
ATOM      8  H19 HT6 d   1     -27.106  22.337   5.074  0.00  0.00     0.080 H 
ATOM      9  H20 HT6 d   1     -26.848  23.158   6.651  0.00  0.00     0.080 H 
ATOM     10  H21 HT6 d   1     -25.015  22.852   4.400  0.00  0.00     0.280 HD
ATOM     11  H22 HT6 d   1     -24.065  24.716   6.321  0.00  0.00     0.076 H 
ATOM     12  H23 HT6 d   1     -24.026  24.774   4.526  0.00  0.00     0.076 H 
ENDROOT
BRANCH   2  13
ATOM     13  C5A HT6 d   1     -26.162  26.019   6.800  0.00  0.00    -0.016 C 
ATOM     14  H4  HT6 d   1     -25.222  26.444   7.181  0.00  0.00     0.049 H 
ATOM     15  H5  HT6 d   1     -26.495  25.209   7.466  0.00  0.00     0.049 H 
BRANCH  13  16
ATOM     16  S5A HT6 d   1     -27.390  27.286   6.799  0.00  0.00    -0.169 SA
BRANCH  16  17
ATOM     17  C20 HT6 d   1     -26.475  28.672   6.188  0.00  0.00    -0.023 C 
ATOM     18  H6  HT6 d   1     -26.210  28.482   5.137  0.00  0.00     0.048 H 
ATOM     19  H7  HT6 d   1     -25.557  28.777   6.785  0.00  0.00     0.048 H 
BRANCH  17  20
ATOM     20  C21 HT6 d   1     -27.254  29.974   6.264  0.00  0.00    -0.057 C 
ATOM     21  H8  HT6 d   1     -27.760  30.046   7.238  0.00  0.00     0.034 H 
ATOM     22  H9  HT6 d   1     -28.003  30.004   5.459  0.00  0.00     0.034 H 
BRANCH  20  23
ATOM     23  C22 HT6 d   1     -26.285  31.138   6.104  0.00  0.00    -0.064 C 
ATOM     24  H10 HT6 d   1     -25.736  31.018   5.159  0.00  0.00     0.033 H 
ATOM     25  H11 HT6 d   1     -25.575  31.130   6.944  0.00  0.00     0.033 H 
BRANCH  23  26
ATOM     26  C23 HT6 d   1     -27.017  32.476   6.086  0.00  0.00    -0.065 C 
ATOM     27  H12 HT6 d   1     -27.722  32.514   6.929  0.00  0.00     0.033 H 
ATOM     28  H13 HT6 d   1     -27.571  32.572   5.140  0.00  0.00     0.033 H 
BRANCH  26  29
ATOM     29  C24 HT6 d   1     -26.026  33.633   6.208  0.00  0.00    -0.069 C 
ATOM     30  H14 HT6 d   1     -25.328  33.596   5.359  0.00  0.00     0.032 H 
ATOM     31  H15 HT6 d   1     -25.465  33.525   7.148  0.00  0.00     0.032 H 
BRANCH  29  32
ATOM     32  C25 HT6 d   1     -26.731  34.976   6.207  0.00  0.00    -0.077 C 
ATOM     33  H16 HT6 d   1     -25.987  35.781   6.296  0.00  0.00     0.027 H 
ATOM     34  H17 HT6 d   1     -27.428  35.025   7.057  0.00  0.00     0.027 H 
ATOM     35  H18 HT6 d   1     -27.290  35.096   5.267  0.00  0.00     0.027 H 
ENDBRANCH  29  32
ENDBRANCH  26  29
ENDBRANCH  23  26
ENDBRANCH  20  23
ENDBRANCH  17  20
ENDBRANCH  16  17
ENDBRANCH  13  16
ENDBRANCH   2  13
BRANCH   1  36
ATOM     36  O3A HT6 d   1     -27.051  24.372   3.526  0.00  0.00    -0.393 OA
ATOM     37  H1  HT6 d   1     -27.751  23.777   3.283  0.00  0.00     0.210 HD
ENDBRANCH   1  36
BRANCH   4  38
ATOM     38  C10 HT6 d   1     -24.462  22.190   6.184  0.00  0.00     0.111 C 
ATOM     39  H24 HT6 d   1     -23.484  22.002   5.717  0.00  0.00     0.083 H 
ATOM     40  H25 HT6 d   1     -25.059  21.266   6.169  0.00  0.00     0.083 H 
BRANCH  38  41
ATOM     41  C9  HT6 d   1     -24.204  22.528   7.634  0.00  0.00     0.014 A 
ATOM     42  C4  HT6 d   1     -25.122  22.489   8.774  0.00  0.00     0.098 A 
ATOM     43  N3  HT6 d   1     -26.442  22.196   8.861  0.00  0.00    -0.239 NA
ATOM     44  C5  HT6 d   1     -24.343  22.855   9.942  0.00  0.00     0.107 A 
ATOM     45  C2  HT6 d   1     -27.043  22.241  10.039  0.00  0.00     0.089 A 
ATOM     46  N1  HT6 d   1     -26.403  22.596  11.175  0.00  0.00    -0.223 NA
ATOM     47  H26 HT6 d   1     -28.094  21.982  10.095  0.00  0.00     0.146 H 
ATOM     48  C6  HT6 d   1     -25.090  22.879  11.207  0.00  0.00     0.151 A 
ATOM     49  N7  HT6 d   1     -23.087  23.089   9.538  0.00  0.00    -0.360 N 
ATOM     50  C8  HT6 d   1     -22.978  22.889   8.187  0.00  0.00    -0.012 A 
ATOM     51  H29 HT6 d   1     -22.314  23.378  10.155  0.00  0.00     0.165 HD
ATOM     52  H30 HT6 d   1     -22.054  22.998   7.620  0.00  0.00     0.112 H 
BRANCH  48  53
ATOM     53  N6  HT6 d   1     -24.475  23.212  12.373  0.00  0.00    -0.382 N 
ATOM     54  H27 HT6 d   1     -23.468  23.426  12.381  0.00  0.00     0.157 HD
ATOM     55  H28 HT6 d   1     -25.017  23.250  13.248  0.00  0.00     0.157 HD
ENDBRANCH  48  53
ENDBRANCH  38  41
ENDBRANCH   4  38
TORSDOF 12
