REMARK  7 active torsions:
REMARK  status: ('A' for Active; 'I' for Inactive)
REMARK    1  A    between atoms: O3'_1  and  C3'_2 
REMARK    2  A    between atoms: C4'_3  and  C5'_4 
REMARK    3  A    between atoms: C5'_4  and  S_5 
REMARK    4  A    between atoms: S_5  and  C6'_20 
REMARK    5  A    between atoms: N1'_7  and  C10_9 
REMARK    6  A    between atoms: C10_9  and  C9_10 
REMARK    7  A    between atoms: C6_17  and  N6_19 
ROOT
ATOM      1  C3' MOL d   1     -14.578  -5.101  36.644  0.00  0.00     0.064 C 
ATOM      2  C4' MOL d   1     -14.420  -5.871  37.939  0.00  0.00     0.004 C 
ATOM      3  C2' MOL d   1     -13.551  -5.749  35.749  0.00  0.00     0.108 C 
ATOM      4  N1' MOL d   1     -12.411  -5.807  36.673  0.00  0.00    -0.064 N 
ATOM      5  C1' MOL d   1     -12.946  -6.266  37.979  0.00  0.00     0.090 C 
ATOM      6  H2  MOL d   1     -15.599  -5.209  36.249  0.00  0.00     0.086 H 
ATOM      7  H3  MOL d   1     -14.646  -5.219  38.795  0.00  0.00     0.047 H 
ATOM      8  H6  MOL d   1     -13.330  -5.131  34.866  0.00  0.00     0.080 H 
ATOM      9  H7  MOL d   1     -13.866  -6.752  35.425  0.00  0.00     0.080 H 
ATOM     10  H8  MOL d   1     -12.107  -4.858  36.822  0.00  0.00     0.280 HD
ATOM     11  H9  MOL d   1     -12.837  -7.356  38.084  0.00  0.00     0.076 H 
ATOM     12  H10 MOL d   1     -12.430  -5.764  38.810  0.00  0.00     0.076 H 
ENDROOT
BRANCH   4  13
ATOM     13  C10 MOL d   1     -11.241  -6.480  36.106  0.00  0.00     0.111 C 
ATOM     14  H11 MOL d   1     -10.356  -6.105  36.641  0.00  0.00     0.083 H 
ATOM     15  H12 MOL d   1     -11.179  -6.191  35.046  0.00  0.00     0.083 H 
BRANCH  13  16
ATOM     16  C9  MOL d   1     -11.196  -7.980  36.164  0.00  0.00     0.014 A 
ATOM     17  C4  MOL d   1     -12.008  -8.987  35.477  0.00  0.00     0.098 A 
ATOM     18  N3  MOL d   1     -13.052  -8.829  34.617  0.00  0.00    -0.239 NA
ATOM     19  C5  MOL d   1     -11.538 -10.235  35.866  0.00  0.00     0.107 A 
ATOM     20  C2  MOL d   1     -13.643  -9.918  34.128  0.00  0.00     0.089 A 
ATOM     21  N1  MOL d   1     -13.231 -11.156  34.473  0.00  0.00    -0.223 NA
ATOM     22  H13 MOL d   1     -14.472  -9.807  33.439  0.00  0.00     0.146 H 
ATOM     23  C6  MOL d   1     -12.186 -11.345  35.331  0.00  0.00     0.151 A 
ATOM     24  N7  MOL d   1     -10.505 -10.049  36.705  0.00  0.00    -0.360 N 
ATOM     25  C8  MOL d   1     -10.286  -8.720  36.899  0.00  0.00    -0.012 A 
ATOM     26  H15 MOL d   1      -9.957 -10.805  37.140  0.00  0.00     0.165 HD
ATOM     27  H14 MOL d   1      -9.510  -8.301  37.538  0.00  0.00     0.112 H 
BRANCH  23  28
ATOM     28  N6  MOL d   1     -11.784 -12.596  35.653  0.00  0.00    -0.382 N 
ATOM     29  H16 MOL d   1     -12.269 -13.412  35.253  0.00  0.00     0.157 HD
ATOM     30  H17 MOL d   1     -10.993 -12.733  36.298  0.00  0.00     0.157 HD
ENDBRANCH  23  28
ENDBRANCH  13  16
ENDBRANCH   4  13
BRANCH   1  31
ATOM     31  O3' MOL d   1     -14.239  -3.707  36.745  0.00  0.00    -0.393 OA
ATOM     32  H1  MOL d   1     -14.361  -3.291  35.900  0.00  0.00     0.210 HD
ENDBRANCH   1  31
BRANCH   2  33
ATOM     33  C5' MOL d   1     -15.384  -7.064  37.977  0.00  0.00    -0.010 C 
ATOM     34  H4  MOL d   1     -15.120  -7.762  37.169  0.00  0.00     0.050 H 
ATOM     35  H5  MOL d   1     -16.410  -6.699  37.826  0.00  0.00     0.050 H 
BRANCH  33  36
ATOM     36  S   MOL d   1     -15.301  -7.914  39.515  0.00  0.00    -0.108 SA
BRANCH  36  37
ATOM     37  C6' MOL d   1     -16.138  -7.082  40.736  0.00  0.00     0.110 A 
ATOM     38  C9' MOL d   1     -16.216  -7.606  42.026  0.00  0.00     0.036 A 
ATOM     39  N3' MOL d   1     -16.876  -6.954  42.998  0.00  0.00    -0.269 NA
ATOM     40  H18 MOL d   1     -15.737  -8.553  42.248  0.00  0.00     0.119 H 
ATOM     41  C8' MOL d   1     -17.466  -5.783  42.729  0.00  0.00     0.019 A 
ATOM     42  C7' MOL d   1     -17.388  -5.246  41.444  0.00  0.00     0.020 A 
ATOM     43  H19 MOL d   1     -18.003  -5.253  43.508  0.00  0.00     0.117 H 
ATOM     44  N2' MOL d   1     -16.732  -5.904  40.471  0.00  0.00    -0.251 NA
ATOM     45  H20 MOL d   1     -17.858  -4.293  41.228  0.00  0.00     0.117 H 
ENDBRANCH  36  37
ENDBRANCH  33  36
ENDBRANCH   2  33
TORSDOF 7
