REMARK  4 active torsions:
REMARK  status: ('A' for Active; 'I' for Inactive)
REMARK    1  A    between atoms: C6_3  and  C7_5 
REMARK    2  A    between atoms: N1_4  and  C9_8 
REMARK    3  A    between atoms: C12_11  and  O_19 
REMARK    4  A    between atoms: N_17  and  C_18 
ROOT
ATOM      1  C4  C9G d   1     -17.043 -18.366  20.223  0.00  0.00    -0.068 A 
ATOM      2  C5  C9G d   1     -17.588 -17.336  19.478  0.00  0.00    -0.052 A 
ATOM      3  C6  C9G d   1     -18.203 -17.655  18.272  0.00  0.00     0.089 A 
ATOM      4  C15 C9G d   1     -17.761 -19.907  18.548  0.00  0.00     0.135 A 
ATOM      5  N4  C9G d   1     -18.297 -18.913  17.814  0.00  0.00    -0.240 NA
ATOM      6  N   C9G d   1     -17.310 -22.273  18.757  0.00  0.00    -0.327 N 
ATOM      7  C1  C9G d   1     -16.679 -22.035  19.955  0.00  0.00    -0.017 A 
ATOM      8  C16 C9G d   1     -17.888 -21.261  17.988  0.00  0.00     0.276 A 
ATOM      9  C2  C9G d   1     -16.566 -20.815  20.470  0.00  0.00    -0.056 A 
ATOM     10  C3  C9G d   1     -17.113 -19.687  19.771  0.00  0.00    -0.000 A 
ATOM     11  O1  C9G d   1     -18.472 -21.535  16.956  0.00  0.00    -0.265 OA
ATOM     12  H1  C9G d   1     -16.557 -18.147  21.167  0.00  0.00     0.085 H 
ATOM     13  H2  C9G d   1     -17.537 -16.310  19.824  0.00  0.00     0.087 H 
ATOM     14  H12 C9G d   1     -16.256 -22.877  20.502  0.00  0.00     0.111 H 
ATOM     15  H13 C9G d   1     -16.058 -20.671  21.423  0.00  0.00     0.086 H 
ENDROOT
BRANCH   3  16
ATOM     16  C7  C9G d   1     -18.768 -16.620  17.398  0.00  0.00     0.127 A 
ATOM     17  C8  C9G d   1     -18.858 -15.267  17.588  0.00  0.00     0.038 A 
ATOM     18  N1  C9G d   1     -19.496 -14.795  16.495  0.00  0.00    -0.225 N 
ATOM     19  H3  C9G d   1     -18.493 -14.694  18.439  0.00  0.00     0.118 H 
ATOM     20  N2  C9G d   1     -19.804 -15.812  15.650  0.00  0.00    -0.060 NA
ATOM     21  N3  C9G d   1     -19.348 -16.915  16.196  0.00  0.00    -0.128 NA
BRANCH  18  22
ATOM     22  C9  C9G d   1     -19.858 -13.456  16.170  0.00  0.00     0.059 A 
ATOM     23  C10 C9G d   1     -19.896 -13.048  14.846  0.00  0.00    -0.052 A 
ATOM     24  C11 C9G d   1     -20.202 -11.733  14.538  0.00  0.00    -0.049 A 
ATOM     25  H4  C9G d   1     -19.687 -13.757  14.053  0.00  0.00     0.087 H 
ATOM     26  C12 C9G d   1     -20.459 -10.824  15.556  0.00  0.00     0.065 A 
ATOM     27  H5  C9G d   1     -20.241 -11.413  13.503  0.00  0.00     0.087 H 
ATOM     28  C13 C9G d   1     -20.427 -11.237  16.880  0.00  0.00    -0.049 A 
ATOM     29  C14 C9G d   1     -20.137 -12.552  17.184  0.00  0.00    -0.052 A 
ATOM     30  H6  C9G d   1     -20.629 -10.528  17.675  0.00  0.00     0.087 H 
ATOM     31  H7  C9G d   1     -20.127 -12.879  18.218  0.00  0.00     0.087 H 
BRANCH  26  32
ATOM     32  O   C9G d   1     -20.752  -9.524  15.289  0.00  0.00    -0.361 OA
ATOM     33  H11 C9G d   1     -20.739  -9.384  14.349  0.00  0.00     0.217 HD
ENDBRANCH  26  32
ENDBRANCH  18  22
ENDBRANCH   3  16
BRANCH   6  34
ATOM     34  C   C9G d   1     -17.391 -23.637  18.238  0.00  0.00    -0.011 C 
ATOM     35  H8  C9G d   1     -16.899 -24.326  18.940  0.00  0.00     0.057 H 
ATOM     36  H9  C9G d   1     -16.888 -23.688  17.261  0.00  0.00     0.057 H 
ATOM     37  H10 C9G d   1     -18.447 -23.923  18.123  0.00  0.00     0.057 H 
ENDBRANCH   6  34
TORSDOF 4
