REMARK  5 active torsions:
REMARK  status: ('A' for Active; 'I' for Inactive)
REMARK    1  A    between atoms: CAO_2  and  CAL_4 
REMARK    2  A    between atoms: NAM_6  and  CAP_7 
REMARK    3  A    between atoms: CAJ_9  and  CAI_10 
REMARK    4  A    between atoms: NAG_18  and  CAQ_19 
REMARK    5  A    between atoms: CAQ_19  and  CAR_20 
ROOT
ATOM      1  CAI 53X d   1      -1.695   5.807  13.613  0.00  0.00     0.022 A 
ATOM      2  CAH 53X d   1      -0.673   5.378  12.767  0.00  0.00    -0.007 A 
ATOM      3  CAF 53X d   1      -1.474   7.168  13.845  0.00  0.00     0.005 A 
ATOM      4  CAA 53X d   1      -2.131   8.148  14.591  0.00  0.00    -0.070 A 
ATOM      5  CAB 53X d   1      -1.628   9.448  14.603  0.00  0.00    -0.082 A 
ATOM      6  CAC 53X d   1      -0.481   9.772  13.879  0.00  0.00    -0.081 A 
ATOM      7  CAD 53X d   1       0.173   8.800  13.144  0.00  0.00    -0.056 A 
ATOM      8  CAE 53X d   1      -0.334   7.493  13.126  0.00  0.00     0.045 A 
ATOM      9  NAG 53X d   1       0.117   6.405  12.497  0.00  0.00    -0.355 N 
ATOM     10  H5  53X d   1      -0.546   4.364  12.390  0.00  0.00     0.113 H 
ATOM     11  H6  53X d   1      -3.023   7.901  15.155  0.00  0.00     0.084 H 
ATOM     12  H7  53X d   1      -2.133  10.214  15.180  0.00  0.00     0.083 H 
ATOM     13  H8  53X d   1      -0.101  10.787  13.892  0.00  0.00     0.083 H 
ATOM     14  H9  53X d   1       1.070   9.046  12.587  0.00  0.00     0.087 H 
ENDROOT
BRANCH   1  15
ATOM     15  CAJ 53X d   1      -2.825   4.980  14.193  0.00  0.00     0.092 A 
ATOM     16  CAK 53X d   1      -2.676   3.704  14.763  0.00  0.00    -0.018 A 
ATOM     17  CAL 53X d   1      -3.965   3.334  15.157  0.00  0.00     0.131 A 
ATOM     18  H1  53X d   1      -1.758   3.130  14.873  0.00  0.00     0.091 H 
ATOM     19  NAM 53X d   1      -4.769   4.342  14.847  0.00  0.00    -0.267 N 
ATOM     20  NAN 53X d   1      -4.083   5.323  14.280  0.00  0.00    -0.172 NA
BRANCH  17  21
ATOM     21  CAO 53X d   1      -4.381   2.039  15.829  0.00  0.00     0.228 C 
ATOM     22  OAS 53X d   1      -5.576   1.666  15.747  0.00  0.00    -0.643 OA
ATOM     23  OAT 53X d   1      -3.547   1.342  16.470  0.00  0.00    -0.643 OA
ENDBRANCH  17  21
BRANCH  19  24
ATOM     24  CAP 53X d   1      -6.202   4.419  15.082  0.00  0.00     0.003 C 
ATOM     25  H2  53X d   1      -6.583   5.383  14.713  0.00  0.00     0.059 H 
ATOM     26  H3  53X d   1      -6.402   4.335  16.160  0.00  0.00     0.059 H 
ATOM     27  H4  53X d   1      -6.705   3.598  14.551  0.00  0.00     0.059 H 
ENDBRANCH  19  24
ENDBRANCH   1  15
BRANCH   9  28
ATOM     28  CAQ 53X d   1       1.315   6.402  11.661  0.00  0.00    -0.004 C 
ATOM     29  H10 53X d   1       2.198   6.332  12.313  0.00  0.00     0.064 H 
ATOM     30  H11 53X d   1       1.351   7.344  11.095  0.00  0.00     0.064 H 
BRANCH  28  31
ATOM     31  CAR 53X d   1       1.343   5.240  10.676  0.00  0.00    -0.061 C 
ATOM     32  H12 53X d   1       2.264   5.290  10.076  0.00  0.00     0.029 H 
ATOM     33  H13 53X d   1       0.469   5.302  10.011  0.00  0.00     0.029 H 
ATOM     34  H14 53X d   1       1.316   4.290  11.229  0.00  0.00     0.029 H 
ENDBRANCH  28  31
ENDBRANCH   9  28
TORSDOF 5
