REMARK  6 active torsions:
REMARK  status: ('A' for Active; 'I' for Inactive)
REMARK    1  A    between atoms: C18_21  and  C15_8 
REMARK    2  A    between atoms: O21_26  and  C17_9 
REMARK    3  A    between atoms: C19_22  and  C20_10 
REMARK    4  A    between atoms: C20_10  and  O21_26 
REMARK    5  A    between atoms: C23_20  and  C24_11 
REMARK    6  A    between atoms: C18_21  and  C19_22 
ROOT
ATOM      1  C19 CJY d   1       9.348  -8.409  14.766  0.00  0.00    -0.041 C 
ATOM      2  H16 CJY d   1       8.603  -9.074  15.227  0.00  0.00     0.036 H 
ATOM      3  H17 CJY d   1       9.121  -7.366  15.030  0.00  0.00     0.036 H 
ENDROOT
BRANCH   1   4
ATOM      4  C20 CJY d   1       9.233  -8.548  13.259  0.00  0.00     0.026 C 
ATOM      5  H7  CJY d   1       8.301  -8.081  12.908  0.00  0.00     0.075 H 
ATOM      6  H8  CJY d   1       9.238  -9.611  12.977  0.00  0.00     0.075 H 
BRANCH   4   7
ATOM      7  O21 CJY d   1      10.352  -7.889  12.688  0.00  0.00    -0.350 OA
BRANCH   7   8
ATOM      8  C17 CJY d   1      10.446  -7.933  11.292  0.00  0.00     0.079 A 
ATOM      9  C13 CJY d   1      11.167  -6.901  10.713  0.00  0.00     0.007 A 
ATOM     10  C7  CJY d   1      11.732  -5.889  11.476  0.00  0.00    -0.070 A 
ATOM     11  C12 CJY d   1      11.323  -6.891   9.335  0.00  0.00    -0.023 A 
ATOM     12  C2  CJY d   1      12.451  -4.880  10.878  0.00  0.00    -0.082 A 
ATOM     13  H4  CJY d   1      11.606  -5.894  12.553  0.00  0.00     0.085 H 
ATOM     14  C1  CJY d   1      12.604  -4.873   9.509  0.00  0.00    -0.082 A 
ATOM     15  H10 CJY d   1      12.894  -4.095  11.480  0.00  0.00     0.083 H 
ATOM     16  C6  CJY d   1      12.038  -5.873   8.737  0.00  0.00    -0.072 A 
ATOM     17  H9  CJY d   1      13.171  -4.080   9.034  0.00  0.00     0.083 H 
ATOM     18  H3  CJY d   1      12.157  -5.856   7.660  0.00  0.00     0.084 H 
ATOM     19  C9  CJY d   1      10.797  -7.901   8.550  0.00  0.00    -0.072 A 
ATOM     20  C5  CJY d   1      10.097  -8.929   9.135  0.00  0.00    -0.080 A 
ATOM     21  H12 CJY d   1      10.937  -7.882   7.475  0.00  0.00     0.084 H 
ATOM     22  C11 CJY d   1       9.920  -8.950  10.501  0.00  0.00    -0.050 A 
ATOM     23  H2  CJY d   1       9.685  -9.722   8.522  0.00  0.00     0.083 H 
ATOM     24  H13 CJY d   1       9.369  -9.762  10.962  0.00  0.00     0.087 H 
ENDBRANCH   7   8
ENDBRANCH   4   7
ENDBRANCH   1   4
BRANCH   1  25
ATOM     25  C18 CJY d   1      10.707  -8.754  15.344  0.00  0.00    -0.036 C 
ATOM     26  H14 CJY d   1      11.476  -8.234  14.755  0.00  0.00     0.040 H 
ATOM     27  H15 CJY d   1      10.741  -8.400  16.385  0.00  0.00     0.040 H 
BRANCH  25  28
ATOM     28  C15 CJY d   1      11.012 -10.206  15.333  0.00  0.00    -0.012 A 
ATOM     29  C14 CJY d   1      11.949 -10.850  14.473  0.00  0.00    -0.001 A 
ATOM     30  C8  CJY d   1      12.812 -10.398  13.489  0.00  0.00    -0.070 A 
ATOM     31  C16 CJY d   1      11.934 -12.202  14.768  0.00  0.00     0.043 A 
ATOM     32  C3  CJY d   1      13.627 -11.322  12.861  0.00  0.00    -0.082 A 
ATOM     33  H5  CJY d   1      12.848  -9.349  13.218  0.00  0.00     0.084 H 
ATOM     34  C4  CJY d   1      13.598 -12.665  13.173  0.00  0.00    -0.081 A 
ATOM     35  H11 CJY d   1      14.313 -10.978  12.096  0.00  0.00     0.083 H 
ATOM     36  C10 CJY d   1      12.738 -13.136  14.141  0.00  0.00    -0.056 A 
ATOM     37  H1  CJY d   1      14.255 -13.354  12.654  0.00  0.00     0.083 H 
ATOM     38  H6  CJY d   1      12.694 -14.188  14.399  0.00  0.00     0.086 H 
ATOM     39  N22 CJY d   1      11.025 -12.379  15.776  0.00  0.00    -0.350 N 
ATOM     40  C23 CJY d   1      10.456 -11.188  16.140  0.00  0.00     0.117 A 
ATOM     41  H18 CJY d   1      10.799 -13.288  16.204  0.00  0.00     0.166 HD
BRANCH  40  42
ATOM     42  C24 CJY d   1       9.462 -11.094  17.178  0.00  0.00     0.227 C 
ATOM     43  O25 CJY d   1       9.032 -10.090  17.725  0.00  0.00    -0.643 OA
ATOM     44  O26 CJY d   1       9.057 -12.338  17.513  0.00  0.00    -0.643 OA
ENDBRANCH  40  42
ENDBRANCH  25  28
ENDBRANCH   1  25
TORSDOF 6
