REMARK  19 active torsions:
REMARK  status: ('A' for Active; 'I' for Inactive)
REMARK    1  A    between atoms: C2_1  and  C39_38 
REMARK    2  A    between atoms: S8_7  and  C5_4 
REMARK    3  A    between atoms: N11_10  and  S8_7 
REMARK    4  A    between atoms: N11_10  and  C12_11 
REMARK    5  A    between atoms: C16_15  and  N11_10 
REMARK    6  A    between atoms: C12_11  and  C13_12 
REMARK    7  A    between atoms: C13_12  and  C14_13 
REMARK    8  A    between atoms: C13_12  and  C15_14 
REMARK    9  A    between atoms: C17_16  and  C16_15 
REMARK   10  A    between atoms: C17_16  and  O18_17 
REMARK   11  A    between atoms: C19_18  and  C17_16 
REMARK   12  A    between atoms: C19_18  and  N20_19 
REMARK   13  A    between atoms: C32_31  and  C19_18 
REMARK       I    between atoms: N20_19  and  C21_20 
REMARK   14  A    between atoms: C21_20  and  O23_22 
REMARK   15  A    between atoms: O23_22  and  C24_23 
REMARK   16  A    between atoms: C38_37  and  C32_31 
REMARK   17  A    between atoms: C42_41  and  C44_43 
REMARK   18  A    between atoms: C44_43  and  O46_45 
REMARK   19  A    between atoms: O46_45  and  C47_46 
ROOT
ATOM      1  C16 G53 d   1      16.413  25.258  17.371  0.00  0.00     0.031 C 
ATOM      2  H14 G53 d   1      16.138  25.539  16.344  0.00  0.00     0.069 H 
ATOM      3  H15 G53 d   1      16.474  26.162  17.994  0.00  0.00     0.069 H 
ENDROOT
BRANCH   1   4
ATOM      4  N11 G53 d   1      17.715  24.607  17.352  0.00  0.00    -0.304 N 
BRANCH   4   5
ATOM      5  S8  G53 d   1      18.352  24.245  15.892  0.00  0.00     0.260 S 
ATOM      6  O9  G53 d   1      17.234  24.303  14.908  0.00  0.00    -0.200 OA
ATOM      7  O10 G53 d   1      19.133  23.022  16.004  0.00  0.00    -0.200 OA
BRANCH   5   8
ATOM      8  C5  G53 d   1      19.490  25.545  15.466  0.00  0.00     0.079 A 
ATOM      9  C4  G53 d   1      19.090  26.771  15.001  0.00  0.00    -0.059 A 
ATOM     10  C3  G53 d   1      20.045  27.763  14.764  0.00  0.00    -0.067 A 
ATOM     11  H2  G53 d   1      18.040  26.970  14.818  0.00  0.00     0.085 H 
ATOM     12  C2  G53 d   1      21.401  27.551  15.037  0.00  0.00     0.017 A 
ATOM     13  H1  G53 d   1      19.729  28.718  14.360  0.00  0.00     0.085 H 
ATOM     14  C7  G53 d   1      21.789  26.292  15.499  0.00  0.00    -0.067 A 
ATOM     15  C6  G53 d   1      20.834  25.323  15.756  0.00  0.00    -0.059 A 
ATOM     16  H4  G53 d   1      22.839  26.073  15.657  0.00  0.00     0.085 H 
ATOM     17  H3  G53 d   1      21.137  24.377  16.190  0.00  0.00     0.085 H 
BRANCH  12  18
ATOM     18  C39 G53 d   1      22.348  28.497  14.902  0.00  0.00     0.180 C 
ATOM     19  O40 G53 d   1      23.662  28.215  14.949  0.00  0.00    -0.301 OA
ATOM     20  C41 G53 d   1      24.400  29.404  14.859  0.00  0.00     0.055 C 
ATOM     21  C42 G53 d   1      23.503  30.359  14.584  0.00  0.00     0.157 C 
ATOM     22  H36 G53 d   1      25.475  29.525  14.986  0.00  0.00     0.127 H 
ATOM     23  N43 G53 d   1      22.289  29.788  14.694  0.00  0.00    -0.216 NA
BRANCH  21  24
ATOM     24  C44 G53 d   1      23.869  31.606  14.738  0.00  0.00     0.313 C 
ATOM     25  O45 G53 d   1      23.097  32.553  14.943  0.00  0.00    -0.257 OA
BRANCH  24  26
ATOM     26  O46 G53 d   1      25.235  31.782  14.679  0.00  0.00    -0.321 OA
BRANCH  26  27
ATOM     27  C47 G53 d   1      25.793  30.675  15.419  0.00  0.00     0.013 C 
ATOM     28  H37 G53 d   1      26.891  30.748  15.416  0.00  0.00     0.067 H 
ATOM     29  H38 G53 d   1      25.487  29.729  14.949  0.00  0.00     0.067 H 
ATOM     30  H39 G53 d   1      25.427  30.705  16.456  0.00  0.00     0.067 H 
ENDBRANCH  26  27
ENDBRANCH  24  26
ENDBRANCH  21  24
ENDBRANCH  12  18
ENDBRANCH   5   8
ENDBRANCH   4   5
BRANCH   4  31
ATOM     31  C12 G53 d   1      18.656  24.767  18.427  0.00  0.00     0.008 C 
ATOM     32  H5  G53 d   1      18.744  25.844  18.633  0.00  0.00     0.066 H 
ATOM     33  H6  G53 d   1      19.625  24.380  18.079  0.00  0.00     0.066 H 
BRANCH  31  34
ATOM     34  C13 G53 d   1      18.326  24.062  19.765  0.00  0.00    -0.045 C 
ATOM     35  H7  G53 d   1      17.318  24.375  20.076  0.00  0.00     0.041 H 
BRANCH  34  36
ATOM     36  C14 G53 d   1      18.302  22.541  19.599  0.00  0.00    -0.072 C 
ATOM     37  H8  G53 d   1      18.065  22.070  20.565  0.00  0.00     0.028 H 
ATOM     38  H9  G53 d   1      19.287  22.194  19.254  0.00  0.00     0.028 H 
ATOM     39  H10 G53 d   1      17.536  22.265  18.859  0.00  0.00     0.028 H 
ENDBRANCH  34  36
BRANCH  34  40
ATOM     40  C15 G53 d   1      19.306  24.525  20.832  0.00  0.00    -0.072 C 
ATOM     41  H11 G53 d   1      19.278  25.622  20.904  0.00  0.00     0.028 H 
ATOM     42  H12 G53 d   1      20.322  24.201  20.562  0.00  0.00     0.028 H 
ATOM     43  H13 G53 d   1      19.027  24.086  21.801  0.00  0.00     0.028 H 
ENDBRANCH  34  40
ENDBRANCH  31  34
ENDBRANCH   4  31
ENDBRANCH   1   4
BRANCH   1  44
ATOM     44  C17 G53 d   1      15.309  24.311  17.953  0.00  0.00     0.071 C 
ATOM     45  H16 G53 d   1      15.695  23.836  18.867  0.00  0.00     0.088 H 
BRANCH  44  46
ATOM     46  O18 G53 d   1      14.171  25.112  18.288  0.00  0.00    -0.392 OA
ATOM     47  H17 G53 d   1      13.851  25.548  17.507  0.00  0.00     0.210 HD
ENDBRANCH  44  46
BRANCH  44  48
ATOM     48  C19 G53 d   1      14.920  23.200  16.960  0.00  0.00     0.044 C 
ATOM     49  H18 G53 d   1      15.832  22.684  16.625  0.00  0.00     0.077 H 
BRANCH  48  50
ATOM     50  N20 G53 d   1      14.048  22.261  17.705  0.00  0.00    -0.329 N 
ATOM     51  C21 G53 d   1      14.365  21.020  18.037  0.00  0.00     0.361 C 
ATOM     52  O22 G53 d   1      15.437  20.434  17.859  0.00  0.00    -0.238 OA
ATOM     53  H19 G53 d   1      13.146  22.593  17.979  0.00  0.00     0.165 HD
BRANCH  51  54
ATOM     54  O23 G53 d   1      13.308  20.424  18.715  0.00  0.00    -0.296 OA
BRANCH  54  55
ATOM     55  C24 G53 d   1      13.480  19.024  18.955  0.00  0.00     0.078 C 
ATOM     56  C25 G53 d   1      12.849  18.830  20.357  0.00  0.00     0.048 C 
ATOM     57  O26 G53 d   1      11.459  18.801  20.120  0.00  0.00    -0.358 OA
ATOM     58  H21 G53 d   1      13.112  19.667  21.021  0.00  0.00     0.078 H 
ATOM     59  H22 G53 d   1      13.186  17.885  20.807  0.00  0.00     0.078 H 
ATOM     60  C27 G53 d   1      11.183  18.189  18.848  0.00  0.00     0.137 C 
ATOM     61  O28 G53 d   1      10.246  19.048  18.127  0.00  0.00    -0.361 OA
ATOM     62  C31 G53 d   1      12.504  18.204  18.094  0.00  0.00     0.023 C 
ATOM     63  H23 G53 d   1      10.787  17.169  18.961  0.00  0.00     0.129 H 
ATOM     64  C29 G53 d   1      10.938  19.688  17.046  0.00  0.00     0.023 C 
ATOM     65  C30 G53 d   1      12.163  18.827  16.736  0.00  0.00    -0.035 C 
ATOM     66  H24 G53 d   1      11.251  20.700  17.343  0.00  0.00     0.074 H 
ATOM     67  H25 G53 d   1      10.286  19.751  16.163  0.00  0.00     0.074 H 
ATOM     68  H26 G53 d   1      12.995  19.443  16.364  0.00  0.00     0.037 H 
ATOM     69  H27 G53 d   1      11.922  18.051  15.995  0.00  0.00     0.037 H 
ATOM     70  H28 G53 d   1      12.902  17.189  17.951  0.00  0.00     0.051 H 
ATOM     71  H20 G53 d   1      14.526  18.697  18.864  0.00  0.00     0.088 H 
ENDBRANCH  54  55
ENDBRANCH  51  54
ENDBRANCH  48  50
BRANCH  48  72
ATOM     72  C32 G53 d   1      14.161  23.697  15.726  0.00  0.00    -0.020 C 
ATOM     73  H29 G53 d   1      14.793  24.403  15.168  0.00  0.00     0.043 H 
ATOM     74  H30 G53 d   1      13.238  24.204  16.044  0.00  0.00     0.043 H 
BRANCH  72  75
ATOM     75  C38 G53 d   1      13.806  22.512  14.826  0.00  0.00    -0.056 A 
ATOM     76  C33 G53 d   1      12.494  22.084  14.678  0.00  0.00    -0.077 A 
ATOM     77  C34 G53 d   1      12.177  20.948  13.908  0.00  0.00    -0.082 A 
ATOM     78  H31 G53 d   1      11.697  22.635  15.165  0.00  0.00     0.084 H 
ATOM     79  C35 G53 d   1      13.161  20.243  13.204  0.00  0.00    -0.083 A 
ATOM     80  H32 G53 d   1      11.148  20.612  13.859  0.00  0.00     0.083 H 
ATOM     81  C36 G53 d   1      14.483  20.698  13.339  0.00  0.00    -0.082 A 
ATOM     82  H33 G53 d   1      12.915  19.388  12.585  0.00  0.00     0.083 H 
ATOM     83  C37 G53 d   1      14.819  21.831  14.146  0.00  0.00    -0.077 A 
ATOM     84  H34 G53 d   1      15.274  20.174  12.815  0.00  0.00     0.083 H 
ATOM     85  H35 G53 d   1      15.849  22.158  14.229  0.00  0.00     0.084 H 
ENDBRANCH  72  75
ENDBRANCH  48  72
ENDBRANCH  44  48
ENDBRANCH   1  44
TORSDOF 19
