REMARK  11 active torsions:
REMARK  status: ('A' for Active; 'I' for Inactive)
REMARK    1  A    between atoms: C20_10  and  C30_30 
REMARK    2  A    between atoms: C31_31  and  C21_11 
REMARK    3  A    between atoms: C24_13  and  C25_27 
REMARK    4  A    between atoms: C19_25  and  C18_24 
REMARK    5  A    between atoms: O41_41  and  C23_26 
REMARK    6  A    between atoms: C32_32  and  C31_31 
REMARK    7  A    between atoms: C35_35  and  C32_32 
REMARK    8  A    between atoms: C33_33  and  C34_34 
REMARK    9  A    between atoms: N36_36  and  C33_33 
REMARK   10  A    between atoms: C34_34  and  N37_37 
REMARK   11  A    between atoms: C35_35  and  O41_41 
ROOT
ATOM      1  C5  CN7 d   1      -7.278  15.341  -1.105  0.00  0.00    -0.081 A 
ATOM      2  C17 CN7 d   1      -7.660  17.609  -0.506  0.00  0.00     0.000 A 
ATOM      3  C21 CN7 d   1      -7.694  18.833   0.223  0.00  0.00    -0.012 A 
ATOM      4  C22 CN7 d   1      -8.245  17.817  -1.752  0.00  0.00     0.057 A 
ATOM      5  C24 CN7 d   1      -8.268  19.782  -0.593  0.00  0.00     0.119 A 
ATOM      6  C9  CN7 d   1      -7.189  16.346  -0.169  0.00  0.00    -0.070 A 
ATOM      7  C12 CN7 d   1      -7.869  15.559  -2.327  0.00  0.00    -0.070 A 
ATOM      8  C19 CN7 d   1      -8.382  16.791  -2.683  0.00  0.00     0.002 A 
ATOM      9  N36 CN7 d   1      -8.600  19.151  -1.768  0.00  0.00    -0.338 N 
ATOM     10  H2  CN7 d   1      -6.875  14.361  -0.875  0.00  0.00     0.083 H 
ATOM     11  H15 CN7 d   1      -6.761  16.157   0.809  0.00  0.00     0.084 H 
ATOM     12  H17 CN7 d   1      -7.934  14.739  -3.033  0.00  0.00     0.084 H 
ENDROOT
BRANCH   3  13
ATOM     13  C31 CN7 d   1      -7.240  19.032   1.618  0.00  0.00    -0.036 C 
ATOM     14  H26 CN7 d   1      -7.235  18.051   2.116  0.00  0.00     0.040 H 
ATOM     15  H27 CN7 d   1      -7.962  19.694   2.119  0.00  0.00     0.040 H 
BRANCH  13  16
ATOM     16  C32 CN7 d   1      -5.860  19.642   1.773  0.00  0.00    -0.041 C 
ATOM     17  H28 CN7 d   1      -5.698  19.873   2.836  0.00  0.00     0.036 H 
ATOM     18  H29 CN7 d   1      -5.822  20.571   1.186  0.00  0.00     0.036 H 
BRANCH  16  19
ATOM     19  C35 CN7 d   1      -4.743  18.731   1.304  0.00  0.00     0.026 C 
ATOM     20  H34 CN7 d   1      -3.778  19.254   1.380  0.00  0.00     0.075 H 
ATOM     21  H35 CN7 d   1      -4.918  18.434   0.259  0.00  0.00     0.075 H 
BRANCH  19  22
ATOM     22  O41 CN7 d   1      -4.735  17.576   2.141  0.00  0.00    -0.350 OA
BRANCH  22  23
ATOM     23  C23 CN7 d   1      -3.639  16.735   1.973  0.00  0.00     0.079 A 
ATOM     24  C14 CN7 d   1      -2.772  16.784   0.888  0.00  0.00    -0.050 A 
ATOM     25  C6  CN7 d   1      -1.716  15.899   0.819  0.00  0.00    -0.080 A 
ATOM     26  H18 CN7 d   1      -2.925  17.513   0.101  0.00  0.00     0.087 H 
ATOM     27  C10 CN7 d   1      -1.530  14.958   1.807  0.00  0.00    -0.072 A 
ATOM     28  H3  CN7 d   1      -1.029  15.945  -0.018  0.00  0.00     0.083 H 
ATOM     29  C15 CN7 d   1      -2.405  14.895   2.870  0.00  0.00    -0.023 A 
ATOM     30  H6  CN7 d   1      -0.696  14.268   1.749  0.00  0.00     0.084 H 
ATOM     31  C7  CN7 d   1      -2.229  13.925   3.835  0.00  0.00    -0.072 A 
ATOM     32  C16 CN7 d   1      -3.461  15.784   2.962  0.00  0.00     0.007 A 
ATOM     33  C1  CN7 d   1      -3.085  13.832   4.909  0.00  0.00    -0.082 A 
ATOM     34  H4  CN7 d   1      -1.405  13.226   3.746  0.00  0.00     0.084 H 
ATOM     35  C2  CN7 d   1      -4.139  14.715   5.009  0.00  0.00    -0.082 A 
ATOM     36  H12 CN7 d   1      -2.932  13.073   5.668  0.00  0.00     0.083 H 
ATOM     37  C8  CN7 d   1      -4.330  15.672   4.039  0.00  0.00    -0.070 A 
ATOM     38  H13 CN7 d   1      -4.818  14.655   5.852  0.00  0.00     0.083 H 
ATOM     39  H5  CN7 d   1      -5.173  16.349   4.117  0.00  0.00     0.085 H 
ENDBRANCH  22  23
ENDBRANCH  19  22
ENDBRANCH  16  19
ENDBRANCH  13  16
ENDBRANCH   3  13
BRANCH   5  40
ATOM     40  C25 CN7 d   1      -8.605  21.148  -0.295  0.00  0.00     0.227 C 
ATOM     41  O38 CN7 d   1      -9.727  21.604  -0.438  0.00  0.00    -0.643 OA
ATOM     42  O40 CN7 d   1      -7.582  21.861   0.221  0.00  0.00    -0.643 OA
ENDBRANCH   5  40
BRANCH   9  43
ATOM     43  C33 CN7 d   1      -9.043  19.910  -2.933  0.00  0.00     0.023 C 
ATOM     44  H30 CN7 d   1      -9.720  19.304  -3.553  0.00  0.00     0.067 H 
ATOM     45  H31 CN7 d   1      -9.557  20.831  -2.621  0.00  0.00     0.067 H 
BRANCH  43  46
ATOM     46  C34 CN7 d   1      -7.769  20.243  -3.701  0.00  0.00     0.099 C 
ATOM     47  H32 CN7 d   1      -7.372  19.306  -4.119  0.00  0.00     0.078 H 
ATOM     48  H33 CN7 d   1      -7.044  20.663  -2.988  0.00  0.00     0.078 H 
BRANCH  46  49
ATOM     49  N37 CN7 d   1      -7.925  21.213  -4.819  0.00  0.00    -0.066 N 
ATOM     50  C26 CN7 d   1      -8.198  20.475  -6.092  0.00  0.00     0.103 C 
ATOM     51  C28 CN7 d   1      -8.126  21.459  -7.250  0.00  0.00     0.042 C 
ATOM     52  H8  CN7 d   1      -7.446  19.684  -6.230  0.00  0.00     0.079 H 
ATOM     53  H9  CN7 d   1      -9.200  20.024  -6.051  0.00  0.00     0.079 H 
ATOM     54  O39 CN7 d   1      -6.824  22.047  -7.259  0.00  0.00    -0.388 OA
ATOM     55  H10 CN7 d   1      -8.887  22.243  -7.120  0.00  0.00     0.076 H 
ATOM     56  H11 CN7 d   1      -8.302  20.931  -8.199  0.00  0.00     0.076 H 
ATOM     57  C29 CN7 d   1      -6.652  22.874  -6.108  0.00  0.00     0.042 C 
ATOM     58  C27 CN7 d   1      -6.645  21.982  -4.877  0.00  0.00     0.103 C 
ATOM     59  H21 CN7 d   1      -5.698  23.417  -6.179  0.00  0.00     0.076 H 
ATOM     60  H22 CN7 d   1      -7.480  23.595  -6.041  0.00  0.00     0.076 H 
ATOM     61  H19 CN7 d   1      -6.548  22.602  -3.974  0.00  0.00     0.079 H 
ATOM     62  H20 CN7 d   1      -5.798  21.282  -4.935  0.00  0.00     0.079 H 
ATOM     63  H36 CN7 d   1      -8.691  21.841  -4.632  0.00  0.00     0.280 HD
ENDBRANCH  46  49
ENDBRANCH  43  46
ENDBRANCH   9  43
BRANCH   8  64
ATOM     64  C18 CN7 d   1      -9.046  16.897  -3.959  0.00  0.00    -0.018 A 
ATOM     65  C20 CN7 d   1     -10.426  16.994  -4.078  0.00  0.00    -0.051 A 
ATOM     66  C13 CN7 d   1     -11.007  17.096  -5.325  0.00  0.00    -0.076 A 
ATOM     67  C4  CN7 d   1     -10.225  17.097  -6.458  0.00  0.00    -0.082 A 
ATOM     68  H7  CN7 d   1     -12.085  17.176  -5.413  0.00  0.00     0.084 H 
ATOM     69  C3  CN7 d   1      -8.860  16.984  -6.344  0.00  0.00    -0.082 A 
ATOM     70  H1  CN7 d   1     -10.684  17.186  -7.436  0.00  0.00     0.083 H 
ATOM     71  C11 CN7 d   1      -8.276  16.879  -5.101  0.00  0.00    -0.072 A 
ATOM     72  H14 CN7 d   1      -8.242  16.977  -7.234  0.00  0.00     0.083 H 
ATOM     73  H16 CN7 d   1      -7.199  16.781  -5.021  0.00  0.00     0.084 H 
BRANCH  65  74
ATOM     74  C30 CN7 d   1     -11.352  16.997  -2.901  0.00  0.00    -0.050 C 
ATOM     75  H23 CN7 d   1     -12.391  17.083  -3.252  0.00  0.00     0.033 H 
ATOM     76  H24 CN7 d   1     -11.114  17.850  -2.249  0.00  0.00     0.033 H 
ATOM     77  H25 CN7 d   1     -11.232  16.060  -2.337  0.00  0.00     0.033 H 
ENDBRANCH  65  74
ENDBRANCH   8  64
TORSDOF 11
