REMARK  8 active torsions:
REMARK  status: ('A' for Active; 'I' for Inactive)
REMARK    1  A    between atoms: C10_1  and  C11_2 
REMARK       I    between atoms: N09_16  and  C10_1 
REMARK    2  A    between atoms: C11_2  and  N12_17 
REMARK    3  A    between atoms: C18_6  and  N22_21 
REMARK    4  A    between atoms: C07_13  and  C03_9 
REMARK    5  A    between atoms: C06_12  and  S23_26 
REMARK    6  A    between atoms: C08_14  and  C07_13 
REMARK    7  A    between atoms: C08_14  and  N09_16 
REMARK    8  A    between atoms: S23_26  and  N26_22 
ROOT
ATOM      1  C08 CQS d   1      -2.987   6.680  14.558  0.00  0.00    -0.001 C 
ATOM      2  H10 CQS d   1      -2.199   6.200  15.157  0.00  0.00     0.064 H 
ATOM      3  H11 CQS d   1      -3.691   7.198  15.226  0.00  0.00     0.064 H 
ENDROOT
BRANCH   1   4
ATOM      4  C07 CQS d   1      -3.707   5.661  13.731  0.00  0.00    -0.026 C 
ATOM      5  H8  CQS d   1      -4.542   6.154  13.211  0.00  0.00     0.042 H 
ATOM      6  H9  CQS d   1      -3.006   5.249  12.990  0.00  0.00     0.042 H 
BRANCH   4   7
ATOM      7  C03 CQS d   1      -4.259   4.521  14.565  0.00  0.00    -0.057 A 
ATOM      8  C02 CQS d   1      -5.553   4.569  14.924  0.00  0.00    -0.075 A 
ATOM      9  C01 CQS d   1      -6.076   3.538  15.645  0.00  0.00    -0.060 A 
ATOM     10  H5  CQS d   1      -6.171   5.415  14.644  0.00  0.00     0.084 H 
ATOM     11  C06 CQS d   1      -5.282   2.506  15.984  0.00  0.00     0.079 A 
ATOM     12  H4  CQS d   1      -7.119   3.549  15.942  0.00  0.00     0.085 H 
ATOM     13  C05 CQS d   1      -3.993   2.465  15.602  0.00  0.00    -0.060 A 
ATOM     14  C04 CQS d   1      -3.462   3.477  14.887  0.00  0.00    -0.075 A 
ATOM     15  H7  CQS d   1      -3.378   1.614  15.870  0.00  0.00     0.085 H 
ATOM     16  H6  CQS d   1      -2.423   3.454  14.578  0.00  0.00     0.084 H 
BRANCH  11  17
ATOM     17  S23 CQS d   1      -5.925   1.086  16.944  0.00  0.00     0.256 S 
ATOM     18  O24 CQS d   1      -5.448   1.276  18.184  0.00  0.00    -0.201 OA
ATOM     19  O25 CQS d   1      -7.210   1.126  16.878  0.00  0.00    -0.201 OA
BRANCH  17  20
ATOM     20  N26 CQS d   1      -5.169  -0.255  16.359  0.00  0.00    -0.324 N 
ATOM     21  H16 CQS d   1      -5.375  -1.154  16.746  0.00  0.00     0.169 HD
ATOM     22  H17 CQS d   1      -4.504  -0.171  15.617  0.00  0.00     0.169 HD
ENDBRANCH  17  20
ENDBRANCH  11  17
ENDBRANCH   4   7
ENDBRANCH   1   4
BRANCH   1  23
ATOM     23  N09 CQS d   1      -2.421   7.590  13.640  0.00  0.00    -0.359 N 
ATOM     24  C10 CQS d   1      -1.482   8.473  14.099  0.00  0.00     0.235 C 
ATOM     25  O13 CQS d   1      -1.149   8.634  15.178  0.00  0.00    -0.272 OA
ATOM     26  H13 CQS d   1      -2.699   7.590  12.679  0.00  0.00     0.162 HD
BRANCH  24  27
ATOM     27  C11 CQS d   1      -1.011   9.283  12.939  0.00  0.00     0.076 C 
ATOM     28  H1  CQS d   1      -1.633   9.101  12.050  0.00  0.00     0.079 H 
ATOM     29  H2  CQS d   1       0.040   9.062  12.702  0.00  0.00     0.079 H 
BRANCH  27  30
ATOM     30  N12 CQS d   1      -1.156  10.572  13.388  0.00  0.00    -0.315 N 
ATOM     31  C14 CQS d   1      -2.032  11.448  13.106  0.00  0.00     0.069 A 
ATOM     32  N15 CQS d   1      -1.715  12.534  13.744  0.00  0.00    -0.236 NA
ATOM     33  H3  CQS d   1      -2.891  11.313  12.450  0.00  0.00     0.143 H 
ATOM     34  C16 CQS d   1      -0.602  12.278  14.473  0.00  0.00     0.149 A 
ATOM     35  C17 CQS d   1      -0.268  11.020  14.188  0.00  0.00     0.165 A 
ATOM     36  C18 CQS d   1       0.247  12.946  15.341  0.00  0.00     0.155 A 
ATOM     37  N21 CQS d   1       0.828  10.463  14.703  0.00  0.00    -0.222 NA
ATOM     38  C20 CQS d   1       1.547  11.134  15.492  0.00  0.00     0.091 A 
ATOM     39  N19 CQS d   1       1.288  12.362  15.810  0.00  0.00    -0.222 NA
ATOM     40  H12 CQS d   1       2.422  10.661  15.924  0.00  0.00     0.146 H 
BRANCH  36  41
ATOM     41  N22 CQS d   1       0.036  14.295  15.763  0.00  0.00    -0.382 N 
ATOM     42  H14 CQS d   1       0.701  14.742  16.411  0.00  0.00     0.157 HD
ATOM     43  H15 CQS d   1      -0.781  14.820  15.420  0.00  0.00     0.157 HD
ENDBRANCH  36  41
ENDBRANCH  27  30
ENDBRANCH  24  27
ENDBRANCH   1  23
TORSDOF 8
