REMARK  19 active torsions:
REMARK  status: ('A' for Active; 'I' for Inactive)
REMARK    1  A    between atoms: C1_1  and  C2_2 
REMARK       I    between atoms: N_5  and  C1_1 
REMARK    2  A    between atoms: C2_2  and  C3_3 
REMARK    3  A    between atoms: C3_6  and  N_5 
REMARK    4  A    between atoms: C3_6  and  C29_7 
REMARK    5  A    between atoms: C4_18  and  C3_6 
REMARK    6  A    between atoms: C29_7  and  C30_8 
REMARK       I    between atoms: N7_22  and  C4_18 
REMARK    7  A    between atoms: C6_21  and  C5_20 
REMARK       I    between atoms: C5_20  and  N_29 
REMARK    8  A    between atoms: C6_21  and  N7_22 
REMARK    9  A    between atoms: C6_21  and  C33_24 
REMARK   10  A    between atoms: N_29  and  CA_30 
REMARK   11  A    between atoms: CA_30  and  CB_31 
REMARK   12  A    between atoms: CA_30  and  C_38 
REMARK   13  A    between atoms: CB_31  and  CG_32 
REMARK   14  A    between atoms: CG_32  and  CD_33 
REMARK   15  A    between atoms: CD_33  and  CE_34 
REMARK   16  A    between atoms: CE_34  and  NZ_35 
REMARK   17  A    between atoms: NZ_35  and  CH1_36 
REMARK   18  A    between atoms: NZ_35  and  CH2_37 
REMARK       I    between atoms: C_38  and  N34_40 
REMARK   19  A    between atoms: N34_40  and  C35_41 
ROOT
ATOM      1  C5  2KY d   1      -0.429  24.336  22.576  0.00  0.00     0.241 C 
ATOM      2  O32 2KY d   1      -1.341  24.009  23.321  0.00  0.00    -0.271 OA
ATOM      3  N   MLY d   1      -0.602  25.158  21.533  0.00  0.00    -0.346 N 
ATOM      4  H24 MLY d   1       0.174  25.370  20.939  0.00  0.00     0.163 HD
ENDROOT
BRANCH   1   5
ATOM      5  C6  2KY d   1       0.955  23.730  22.773  0.00  0.00     0.093 C 
ATOM      6  H13 2KY d   1       0.811  22.782  23.312  0.00  0.00     0.088 H 
BRANCH   5   7
ATOM      7  N7  2KY d   1       1.618  23.406  21.526  0.00  0.00    -0.346 N 
ATOM      8  C4  CZS d   1       1.143  22.484  20.689  0.00  0.00     0.241 C 
ATOM      9  O3  CZS d   1       0.024  21.989  20.793  0.00  0.00    -0.271 OA
ATOM     10  H14 2KY d   1       2.459  23.890  21.286  0.00  0.00     0.163 HD
BRANCH   8  11
ATOM     11  C3  CZS d   1       2.089  22.054  19.568  0.00  0.00     0.095 C 
ATOM     12  H7  CZS d   1       2.533  22.961  19.131  0.00  0.00     0.088 H 
BRANCH  11  13
ATOM     13  N   CZS d   1       3.165  21.241  20.112  0.00  0.00    -0.347 N 
ATOM     14  C1  PPI d   1       4.290  21.765  20.608  0.00  0.00     0.217 C 
ATOM     15  O1  PPI d   1       4.574  22.958  20.505  0.00  0.00    -0.274 OA
ATOM     16  H6  CZS d   1       3.059  20.247  20.115  0.00  0.00     0.163 HD
BRANCH  14  17
ATOM     17  C2  PPI d   1       5.203  20.780  21.278  0.00  0.00     0.006 C 
ATOM     18  H1  PPI d   1       6.096  20.647  20.649  0.00  0.00     0.046 H 
ATOM     19  H2  PPI d   1       4.674  19.820  21.371  0.00  0.00     0.046 H 
BRANCH  17  20
ATOM     20  C3  PPI d   1       5.649  21.222  22.663  0.00  0.00    -0.068 C 
ATOM     21  H3  PPI d   1       6.312  20.459  23.096  0.00  0.00     0.028 H 
ATOM     22  H4  PPI d   1       4.768  21.350  23.309  0.00  0.00     0.028 H 
ATOM     23  H5  PPI d   1       6.189  22.177  22.587  0.00  0.00     0.028 H 
ENDBRANCH  17  20
ENDBRANCH  14  17
ENDBRANCH  11  13
BRANCH  11  24
ATOM     24  C29 CZS d   1       1.349  21.313  18.453  0.00  0.00     0.009 C 
ATOM     25  H8  CZS d   1       0.598  21.987  18.015  0.00  0.00     0.046 H 
ATOM     26  H9  CZS d   1       0.847  20.434  18.882  0.00  0.00     0.046 H 
BRANCH  24  27
ATOM     27  C30 CZS d   1       2.281  20.859  17.372  0.00  0.00     0.079 A 
ATOM     28  S   CZS d   1       3.013  19.277  17.434  0.00  0.00    -0.072 SA
ATOM     29  C36 CZS d   1       3.930  19.683  16.013  0.00  0.00     0.037 A 
ATOM     30  C35 CZS d   1       4.882  18.927  15.341  0.00  0.00    -0.043 A 
ATOM     31  C31 CZS d   1       3.602  20.979  15.603  0.00  0.00     0.075 A 
ATOM     32  C34 CZS d   1       5.506  19.499  14.245  0.00  0.00     0.035 A 
ATOM     33  H10 CZS d   1       5.128  17.922  15.664  0.00  0.00     0.088 H 
ATOM     34 CL   CZS d   1       6.720  18.576  13.388  0.00  0.00    -0.084 Cl
ATOM     35  C33 CZS d   1       5.203  20.779  13.815  0.00  0.00    -0.060 A 
ATOM     36  C32 CZS d   1       4.249  21.523  14.496  0.00  0.00    -0.052 A 
ATOM     37  H11 CZS d   1       5.707  21.198  12.952  0.00  0.00     0.086 H 
ATOM     38  H12 CZS d   1       4.008  22.527  14.166  0.00  0.00     0.087 H 
ATOM     39  N5  CZS d   1       2.650  21.623  16.396  0.00  0.00    -0.245 NA
ENDBRANCH  24  27
ENDBRANCH  11  24
ENDBRANCH   8  11
ENDBRANCH   5   7
BRANCH   5  40
ATOM     40  C33 2KY d   1       1.835  24.610  23.644  0.00  0.00    -0.026 C 
ATOM     41  C34 2KY d   1       2.989  23.823  24.272  0.00  0.00    -0.059 C 
ATOM     42  C35 2KY d   1       3.336  24.567  25.531  0.00  0.00    -0.065 C 
ATOM     43  H16 2KY d   1       3.852  23.795  23.591  0.00  0.00     0.033 H 
ATOM     44  H17 2KY d   1       2.673  22.796  24.506  0.00  0.00     0.033 H 
ATOM     45  C36 2KY d   1       2.198  25.480  25.822  0.00  0.00    -0.065 C 
ATOM     46  H18 2KY d   1       4.259  25.148  25.385  0.00  0.00     0.033 H 
ATOM     47  H19 2KY d   1       3.475  23.860  26.362  0.00  0.00     0.033 H 
ATOM     48  C37 2KY d   1       1.115  25.153  24.881  0.00  0.00    -0.059 C 
ATOM     49  H20 2KY d   1       2.511  26.526  25.685  0.00  0.00     0.033 H 
ATOM     50  H21 2KY d   1       1.854  25.333  26.856  0.00  0.00     0.033 H 
ATOM     51  H22 2KY d   1       0.446  24.391  25.308  0.00  0.00     0.033 H 
ATOM     52  H23 2KY d   1       0.534  26.052  24.629  0.00  0.00     0.033 H 
ATOM     53  H15 2KY d   1       2.218  25.438  23.029  0.00  0.00     0.043 H 
ENDBRANCH   5  40
ENDBRANCH   1   5
BRANCH   3  54
ATOM     54  CA  MLY d   1      -1.899  25.745  21.252  0.00  0.00     0.089 C 
ATOM     55  H25 MLY d   1      -2.297  26.076  22.223  0.00  0.00     0.087 H 
BRANCH  54  56
ATOM     56  CB  MLY d   1      -1.784  26.995  20.376  0.00  0.00    -0.038 C 
ATOM     57  H26 MLY d   1      -2.780  27.246  19.983  0.00  0.00     0.036 H 
ATOM     58  H27 MLY d   1      -1.102  26.782  19.540  0.00  0.00     0.036 H 
BRANCH  56  59
ATOM     59  CG  MLY d   1      -1.247  28.189  21.157  0.00  0.00    -0.061 C 
ATOM     60  H28 MLY d   1      -0.221  27.959  21.482  0.00  0.00     0.033 H 
ATOM     61  H29 MLY d   1      -1.885  28.343  22.040  0.00  0.00     0.033 H 
BRANCH  59  62
ATOM     62  CD  MLY d   1      -1.219  29.473  20.358  0.00  0.00    -0.042 C 
ATOM     63  H30 MLY d   1      -0.938  30.299  21.028  0.00  0.00     0.035 H 
ATOM     64  H31 MLY d   1      -2.224  29.657  19.951  0.00  0.00     0.035 H 
BRANCH  62  65
ATOM     65  CE  MLY d   1      -0.227  29.423  19.203  0.00  0.00     0.083 C 
ATOM     66  H32 MLY d   1      -0.676  28.834  18.390  0.00  0.00     0.075 H 
ATOM     67  H33 MLY d   1       0.687  28.923  19.557  0.00  0.00     0.075 H 
BRANCH  65  68
ATOM     68  NZ  MLY d   1       0.149  30.735  18.664  0.00  0.00    -0.079 N 
ATOM     69  H34 MLY d   1       0.330  31.348  19.444  0.00  0.00     0.278 HD
BRANCH  68  70
ATOM     70  CH1 MLY d   1       1.374  30.646  17.864  0.00  0.00     0.066 C 
ATOM     71  H35 MLY d   1       1.631  31.642  17.474  0.00  0.00     0.068 H 
ATOM     72  H36 MLY d   1       1.214  29.954  17.024  0.00  0.00     0.068 H 
ATOM     73  H37 MLY d   1       2.197  30.276  18.493  0.00  0.00     0.068 H 
ENDBRANCH  68  70
BRANCH  68  74
ATOM     74  CH2 MLY d   1      -0.938  31.321  17.870  0.00  0.00     0.066 C 
ATOM     75  H38 MLY d   1      -1.849  31.381  18.483  0.00  0.00     0.068 H 
ATOM     76  H39 MLY d   1      -1.130  30.691  16.989  0.00  0.00     0.068 H 
ATOM     77  H40 MLY d   1      -0.650  32.331  17.542  0.00  0.00     0.068 H 
ENDBRANCH  68  74
ENDBRANCH  65  68
ENDBRANCH  62  65
ENDBRANCH  59  62
ENDBRANCH  56  59
ENDBRANCH  54  56
BRANCH  54  78
ATOM     78  C   MLY d   1      -2.928  24.770  20.682  0.00  0.00     0.241 C 
ATOM     79  O   MLY d   1      -4.057  25.171  20.434  0.00  0.00    -0.271 OA
ATOM     80  N34 1XY d   1      -2.562  23.493  20.517  0.00  0.00    -0.350 N 
ATOM     81  H41 1XY d   1      -1.590  23.273  20.599  0.00  0.00     0.163 HD
BRANCH  80  82
ATOM     82  C35 1XY d   1      -3.487  22.398  20.225  0.00  0.00     0.042 C 
ATOM     83  C37 1XY d   1      -3.488  21.363  21.347  0.00  0.00    -0.022 C 
ATOM     84  C38 1XY d   1      -3.424  19.949  20.824  0.00  0.00     0.028 C 
ATOM     85  H43 1XY d   1      -4.410  21.481  21.936  0.00  0.00     0.039 H 
ATOM     86  H44 1XY d   1      -2.615  21.541  21.993  0.00  0.00     0.039 H 
ATOM     87  O39 1XY d   1      -2.380  19.739  19.858  0.00  0.00    -0.350 OA
ATOM     88  H45 1XY d   1      -4.388  19.709  20.352  0.00  0.00     0.075 H 
ATOM     89  H46 1XY d   1      -3.253  19.271  21.674  0.00  0.00     0.075 H 
ATOM     90  C40 1XY d   1      -2.448  20.586  18.785  0.00  0.00     0.077 A 
ATOM     91  C41 1XY d   1      -1.965  20.101  17.578  0.00  0.00    -0.050 A 
ATOM     92  C45 1XY d   1      -3.028  21.851  18.882  0.00  0.00    -0.002 A 
ATOM     93  C42 1XY d   1      -2.109  20.871  16.433  0.00  0.00    -0.080 A 
ATOM     94  H47 1XY d   1      -1.481  19.132  17.530  0.00  0.00     0.087 H 
ATOM     95  C43 1XY d   1      -2.715  22.113  16.502  0.00  0.00    -0.082 A 
ATOM     96  H48 1XY d   1      -1.746  20.499  15.482  0.00  0.00     0.083 H 
ATOM     97  C44 1XY d   1      -3.162  22.603  17.718  0.00  0.00    -0.072 A 
ATOM     98  H49 1XY d   1      -2.840  22.704  15.602  0.00  0.00     0.083 H 
ATOM     99  H50 1XY d   1      -3.622  23.584  17.764  0.00  0.00     0.084 H 
ATOM    100  H42 1XY d   1      -4.510  22.791  20.125  0.00  0.00     0.080 H 
ENDBRANCH  80  82
ENDBRANCH  54  78
ENDBRANCH   3  54
TORSDOF 19
