REMARK  2 active torsions:
REMARK  status: ('A' for Active; 'I' for Inactive)
REMARK    1  A    between atoms: C9_8  and  C11_4 
REMARK    2  A    between atoms: C4_5  and  O5_11 
ROOT
ATOM      1  C1  CWM d   1     -34.191 -32.417  55.297  0.00  0.00    -0.049 A 
ATOM      2  C2  CWM d   1     -35.256 -32.692  54.451  0.00  0.00    -0.078 A 
ATOM      3  C3  CWM d   1     -35.928 -33.902  54.524  0.00  0.00    -0.055 A 
ATOM      4  C4  CWM d   1     -33.775 -33.358  56.235  0.00  0.00     0.096 A 
ATOM      5  C6  CWM d   1     -34.465 -34.579  56.282  0.00  0.00     0.118 A 
ATOM      6  C7  CWM d   1     -35.517 -34.849  55.460  0.00  0.00     0.065 A 
ATOM      7  C9  CWM d   1     -35.271 -36.564  56.744  0.00  0.00     0.101 A 
ATOM      8  N10 CWM d   1     -34.309 -35.676  57.099  0.00  0.00    -0.231 NA
ATOM      9  N8  CWM d   1     -36.033 -36.115  55.753  0.00  0.00    -0.343 N 
ATOM     10  H1  CWM d   1     -33.680 -31.464  55.227  0.00  0.00     0.087 H 
ATOM     11  H2  CWM d   1     -35.566 -31.951  53.724  0.00  0.00     0.083 H 
ATOM     12  H3  CWM d   1     -36.761 -34.109  53.862  0.00  0.00     0.087 H 
ATOM     13  H7  CWM d   1     -36.826 -36.592  55.302  0.00  0.00     0.167 HD
ENDROOT
BRANCH   7  14
ATOM     14  C11 CWM d   1     -35.424 -37.886  57.413  0.00  0.00    -0.021 C 
ATOM     15  H4  CWM d   1     -34.659 -37.991  58.196  0.00  0.00     0.037 H 
ATOM     16  H5  CWM d   1     -35.302 -38.689  56.671  0.00  0.00     0.037 H 
ATOM     17  H6  CWM d   1     -36.424 -37.954  57.866  0.00  0.00     0.037 H 
ENDBRANCH   7  14
BRANCH   4  18
ATOM     18  O5  CWM d   1     -32.748 -33.073  57.078  0.00  0.00    -0.358 OA
ATOM     19  H8  CWM d   1     -32.416 -32.204  56.888  0.00  0.00     0.217 HD
ENDBRANCH   4  18
TORSDOF 2
