REMARK  3 active torsions:
REMARK  status: ('A' for Active; 'I' for Inactive)
REMARK    1  A    between atoms: O11_12  and  C12_3 
REMARK    2  A    between atoms: C7_8  and  C10_4 
REMARK    3  A    between atoms: C9_10  and  O11_12 
ROOT
ATOM      1  C1  CWJ d   1     -38.217  32.354  54.775  0.00  0.00     0.043 A 
ATOM      2  C2  CWJ d   1     -38.352  31.175  54.069  0.00  0.00    -0.005 A 
ATOM      3  C4  CWJ d   1     -36.978  32.962  54.949  0.00  0.00    -0.054 A 
ATOM      4  C5  CWJ d   1     -37.261  30.532  53.497  0.00  0.00    -0.039 A 
ATOM      5  C6  CWJ d   1     -39.830  30.897  54.136  0.00  0.00    -0.049 A 
ATOM      6  C7  CWJ d   1     -40.349  31.910  54.845  0.00  0.00     0.006 A 
ATOM      7  C8  CWJ d   1     -35.868  32.327  54.379  0.00  0.00    -0.049 A 
ATOM      8  C9  CWJ d   1     -36.002  31.124  53.659  0.00  0.00     0.069 A 
ATOM      9  N3  CWJ d   1     -39.422  32.752  55.215  0.00  0.00    -0.359 N 
ATOM     10  H7  CWJ d   1     -36.876  33.888  55.503  0.00  0.00     0.087 H 
ATOM     11  H8  CWJ d   1     -37.380  29.606  52.946  0.00  0.00     0.089 H 
ATOM     12  H9  CWJ d   1     -40.364  30.053  53.701  0.00  0.00     0.087 H 
ATOM     13  H10 CWJ d   1     -34.886  32.770  54.494  0.00  0.00     0.087 H 
ATOM     14  H11 CWJ d   1     -39.592  33.604  55.768  0.00  0.00     0.166 HD
ENDROOT
BRANCH   8  15
ATOM     15  O11 CWJ d   1     -34.905  30.474  53.081  0.00  0.00    -0.356 OA
BRANCH  15  16
ATOM     16  C12 CWJ d   1     -34.872  30.167  51.679  0.00  0.00     0.010 C 
ATOM     17  H1  CWJ d   1     -33.926  29.660  51.437  0.00  0.00     0.066 H 
ATOM     18  H2  CWJ d   1     -34.948  31.098  51.098  0.00  0.00     0.066 H 
ATOM     19  H3  CWJ d   1     -35.716  29.508  51.428  0.00  0.00     0.066 H 
ENDBRANCH  15  16
ENDBRANCH   8  15
BRANCH   6  20
ATOM     20  C10 CWJ d   1     -41.794  32.096  55.192  0.00  0.00    -0.037 C 
ATOM     21  H4  CWJ d   1     -42.381  31.265  54.774  0.00  0.00     0.035 H 
ATOM     22  H5  CWJ d   1     -42.153  33.047  54.771  0.00  0.00     0.035 H 
ATOM     23  H6  CWJ d   1     -41.909  32.113  56.286  0.00  0.00     0.035 H 
ENDBRANCH   6  20
TORSDOF 3
