REMARK  6 active torsions:
REMARK  status: ('A' for Active; 'I' for Inactive)
REMARK    1  A    between atoms: N2_18  and  C3_2 
REMARK    2  A    between atoms: N4_3  and  C14_15 
REMARK    3  A    between atoms: C4_19  and  C5_4 
REMARK    4  A    between atoms: C8_20  and  C11_8 
REMARK    5  A    between atoms: C4_19  and  C12_9 
REMARK    6  A    between atoms: N2_18  and  C4_19 
ROOT
ATOM      1  C4  CZY d   1      29.494  -4.583  14.523  0.00  0.00     0.033 C 
ATOM      2  H12 CZY d   1      30.111  -5.265  15.127  0.00  0.00     0.079 H 
ENDROOT
BRANCH   1   3
ATOM      3  C5  CZY d   1      29.984  -3.166  14.770  0.00  0.00    -0.036 A 
ATOM      4  C10 CZY d   1      30.445  -2.389  13.712  0.00  0.00    -0.074 A 
ATOM      5  C9  CZY d   1      30.889  -1.093  13.919  0.00  0.00    -0.068 A 
ATOM      6  H3  CZY d   1      30.457  -2.804  12.711  0.00  0.00     0.084 H 
ATOM      7  C8  CZY d   1      30.875  -0.531  15.191  0.00  0.00     0.047 A 
ATOM      8  H2  CZY d   1      31.252  -0.510  13.080  0.00  0.00     0.084 H 
ATOM      9  C7  CZY d   1      30.399  -1.299  16.250  0.00  0.00    -0.068 A 
ATOM     10  C6  CZY d   1      29.970  -2.601  16.044  0.00  0.00    -0.074 A 
ATOM     11  H1  CZY d   1      30.363  -0.874  17.247  0.00  0.00     0.084 H 
ATOM     12  H13 CZY d   1      29.619  -3.188  16.885  0.00  0.00     0.084 H 
BRANCH   7  13
ATOM     13  C11 CZY d   1      31.396   0.857  15.421  0.00  0.00     0.417 C 
ATOM     14  F2  CZY d   1      32.362   0.911  16.323  0.00  0.00    -0.166 F 
ATOM     15  F1  CZY d   1      30.449   1.703  15.791  0.00  0.00    -0.166 F 
ATOM     16  F   CZY d   1      31.959   1.386  14.359  0.00  0.00    -0.166 F 
ENDBRANCH   7  13
ENDBRANCH   1   3
BRANCH   1  17
ATOM     17  C12 CZY d   1      28.033  -4.767  14.926  0.00  0.00    -0.053 C 
ATOM     18  H4  CZY d   1      27.726  -5.805  14.729  0.00  0.00     0.030 H 
ATOM     19  H5  CZY d   1      27.402  -4.081  14.342  0.00  0.00     0.030 H 
ATOM     20  H6  CZY d   1      27.918  -4.548  15.998  0.00  0.00     0.030 H 
ENDBRANCH   1  17
BRANCH   1  21
ATOM     21  N2  CZY d   1      29.633  -4.951  13.105  0.00  0.00    -0.366 N 
ATOM     22  H11 CZY d   1      28.836  -4.671  12.516  0.00  0.00     0.161 HD
BRANCH  21  23
ATOM     23  C3  CZY d   1      30.619  -5.591  12.436  0.00  0.00     0.143 A 
ATOM     24  C2  CZY d   1      31.788  -6.038  13.123  0.00  0.00     0.076 A 
ATOM     25  C13 CZY d   1      32.425  -6.001  14.384  0.00  0.00     0.039 A 
ATOM     26  C1  CZY d   1      32.675  -6.743  12.306  0.00  0.00     0.164 A 
ATOM     27  N3  CZY d   1      33.585  -6.620  14.354  0.00  0.00    -0.182 NA
ATOM     28  H7  CZY d   1      32.008  -5.521  15.268  0.00  0.00     0.119 H 
ATOM     29  N4  CZY d   1      33.737  -7.082  13.071  0.00  0.00    -0.256 N 
ATOM     30  N1  CZY d   1      32.526  -6.999  10.992  0.00  0.00    -0.198 NA
ATOM     31  C   CZY d   1      31.413  -6.475  10.505  0.00  0.00     0.227 A 
ATOM     32 CL   CZY d   1      31.243  -6.587   8.780  0.00  0.00    -0.041 Cl
ATOM     33  N   CZY d   1      30.448  -5.812  11.121  0.00  0.00    -0.200 NA
BRANCH  29  34
ATOM     34  C14 CZY d   1      34.933  -7.837  12.727  0.00  0.00     0.004 C 
ATOM     35  H8  CZY d   1      35.583  -7.916  13.611  0.00  0.00     0.059 H 
ATOM     36  H9  CZY d   1      35.473  -7.321  11.919  0.00  0.00     0.059 H 
ATOM     37  H10 CZY d   1      34.647  -8.845  12.391  0.00  0.00     0.059 H 
ENDBRANCH  29  34
ENDBRANCH  21  23
ENDBRANCH   1  21
TORSDOF 6
