REMARK  3 active torsions:
REMARK  status: ('A' for Active; 'I' for Inactive)
REMARK    1  A    between atoms: N_13  and  C2_1 
REMARK    2  A    between atoms: C5_4  and  N4_3 
REMARK    3  A    between atoms: N4_3  and  C6_10 
ROOT
ATOM      1  C3  D07 d   1      30.475  -4.636  11.768  0.00  0.00     0.039 A 
ATOM      2  C5  D07 d   1      32.241  -5.521  13.536  0.00  0.00     0.142 A 
ATOM      3 CL   D07 d   1      35.011  -8.083  12.520  0.00  0.00    -0.041 Cl
ATOM      4  C4  D07 d   1      33.669  -6.981  12.485  0.00  0.00     0.227 A 
ATOM      5  N2  D07 d   1      33.109  -6.893  11.267  0.00  0.00    -0.198 NA
ATOM      6  C1  D07 d   1      32.061  -6.046  11.246  0.00  0.00     0.164 A 
ATOM      7  N3  D07 d   1      33.320  -6.349  13.636  0.00  0.00    -0.200 NA
ATOM      8  C   D07 d   1      31.540  -5.332  12.328  0.00  0.00     0.076 A 
ATOM      9  N1  D07 d   1      30.354  -4.917  10.456  0.00  0.00    -0.182 NA
ATOM     10  N   D07 d   1      31.323  -5.773  10.150  0.00  0.00    -0.256 N 
ATOM     11  H4  D07 d   1      29.826  -3.955  12.316  0.00  0.00     0.119 H 
ENDROOT
BRANCH   2  12
ATOM     12  N4  D07 d   1      31.899  -4.938  14.697  0.00  0.00    -0.378 N 
ATOM     13  H5  D07 d   1      32.456  -5.189  15.527  0.00  0.00     0.160 HD
BRANCH  12  14
ATOM     14  C6  D07 d   1      30.806  -3.977  14.894  0.00  0.00    -0.020 C 
ATOM     15  H6  D07 d   1      30.769  -3.675  15.951  0.00  0.00     0.056 H 
ATOM     16  H7  D07 d   1      29.851  -4.445  14.613  0.00  0.00     0.056 H 
ATOM     17  H8  D07 d   1      30.979  -3.091  14.265  0.00  0.00     0.056 H 
ENDBRANCH  12  14
ENDBRANCH   2  12
BRANCH  10  18
ATOM     18  C2  D07 d   1      31.518  -6.317   8.816  0.00  0.00     0.004 C 
ATOM     19  H1  D07 d   1      30.757  -5.904   8.137  0.00  0.00     0.059 H 
ATOM     20  H2  D07 d   1      31.424  -7.412   8.849  0.00  0.00     0.059 H 
ATOM     21  H3  D07 d   1      32.520  -6.046   8.452  0.00  0.00     0.059 H 
ENDBRANCH  10  18
TORSDOF 3
