REMARK  12 active torsions:
REMARK  status: ('A' for Active; 'I' for Inactive)
REMARK    1  A    between atoms: CAA_1  and  OAV_2 
REMARK    2  A    between atoms: OAV_2  and  CAX_3 
REMARK    3  A    between atoms: CAX_3  and  CBK_5 
REMARK    4  A    between atoms: CBK_5  and  OAJ_6 
REMARK    5  A    between atoms: CBK_5  and  CBM_7 
REMARK    6  A    between atoms: CBM_7  and  CAB_8 
REMARK    7  A    between atoms: CBM_7  and  OAK_9 
REMARK    8  A    between atoms: CBM_7  and  CBO_10 
REMARK    9  A    between atoms: CAZ_15  and  OAG_16 
REMARK   10  A    between atoms: CAY_23  and  OAF_24 
REMARK   11  A    between atoms: CBA_25  and  OAH_26 
REMARK   12  A    between atoms: CBJ_40  and  OAI_41 
ROOT
ATOM      1  CBO D77 d   1     -10.045  -5.548   6.965  0.00  0.00     0.166 A 
ATOM      2  OAW D77 d   1     -10.516  -6.035   8.148  0.00  0.00    -0.347 OA
ATOM      3  CBN D77 d   1      -9.658  -4.964   8.344  0.00  0.00     0.165 A 
ATOM      4  CBB D77 d   1     -10.268  -3.761   8.826  0.00  0.00     0.013 A 
ATOM      5  CAT D77 d   1      -9.702  -3.118   9.935  0.00  0.00    -0.038 A 
ATOM      6  CAZ D77 d   1     -10.188  -1.936  10.456  0.00  0.00     0.081 A 
ATOM      7  CBH D77 d   1     -11.302  -1.302   9.876  0.00  0.00     0.064 A 
ATOM      8  CBD D77 d   1     -11.788  -0.080  10.402  0.00  0.00     0.197 A 
ATOM      9  OAD D77 d   1     -11.268   0.452  11.390  0.00  0.00    -0.286 OA
ATOM     10  CBF D77 d   1     -12.883   0.534   9.790  0.00  0.00     0.032 A 
ATOM     11  CAS D77 d   1     -13.372   1.748  10.301  0.00  0.00    -0.065 A 
ATOM     12  CAR D77 d   1     -14.469   2.374   9.714  0.00  0.00    -0.047 A 
ATOM     13  CAY D77 d   1     -15.072   1.795   8.601  0.00  0.00     0.099 A 
ATOM     14  CBA D77 d   1     -14.590   0.587   8.086  0.00  0.00     0.114 A 
ATOM     15  CBG D77 d   1     -13.495  -0.067   8.670  0.00  0.00     0.065 A 
ATOM     16  CBE D77 d   1     -13.022  -1.284   8.143  0.00  0.00     0.199 A 
ATOM     17  OAE D77 d   1     -13.600  -1.780   7.169  0.00  0.00    -0.286 OA
ATOM     18  CBI D77 d   1     -11.909  -1.924   8.734  0.00  0.00     0.059 A 
ATOM     19  CBC D77 d   1     -11.392  -3.158   8.215  0.00  0.00     0.054 A 
ATOM     20  NAU D77 d   1     -11.953  -3.812   7.069  0.00  0.00    -0.371 N 
ATOM     21  CBL D77 d   1     -11.069  -4.539   6.118  0.00  0.00     0.106 C 
ATOM     22  CAO D77 d   1     -10.200  -3.554   5.527  0.00  0.00    -0.073 C 
ATOM     23  CAM D77 d   1      -9.369  -2.709   5.074  0.00  0.00    -0.076 C 
ATOM     24  CAQ D77 d   1      -8.285  -1.696   4.630  0.00  0.00    -0.025 C 
ATOM     25  CAP D77 d   1      -7.126  -1.810   5.463  0.00  0.00    -0.025 C 
ATOM     26  CAL D77 d   1      -7.328  -2.882   6.528  0.00  0.00    -0.075 C 
ATOM     27  CAN D77 d   1      -7.645  -3.804   7.352  0.00  0.00    -0.066 C 
ATOM     28  CBJ D77 d   1      -8.094  -4.923   8.257  0.00  0.00     0.131 C 
ATOM     29  H10 D77 d   1      -8.839  -3.572  10.408  0.00  0.00     0.088 H 
ATOM     30  H12 D77 d   1     -12.891   2.202  11.160  0.00  0.00     0.085 H 
ATOM     31  H13 D77 d   1     -14.850   3.304  10.120  0.00  0.00     0.087 H 
ATOM     32  H16 D77 d   1     -12.969  -3.779   6.904  0.00  0.00     0.161 HD
ATOM     33  H17 D77 d   1     -11.654  -5.088   5.366  0.00  0.00     0.098 H 
ATOM     34  H18 D77 d   1      -8.389  -0.996   3.802  0.00  0.00     0.098 H 
ATOM     35  H19 D77 d   1      -6.223  -1.212   5.351  0.00  0.00     0.098 H 
ATOM     36  H20 D77 d   1      -7.792  -5.884   7.814  0.00  0.00     0.108 H 
ENDROOT
BRANCH   1  37
ATOM     37  CBM D77 d   1      -9.313  -6.499   5.983  0.00  0.00     0.127 C 
BRANCH  37  38
ATOM     38  CBK D77 d   1      -8.668  -7.693   6.848  0.00  0.00     0.151 C 
ATOM     39  H4  D77 d   1      -8.812  -7.397   7.897  0.00  0.00     0.103 H 
BRANCH  38  40
ATOM     40  CAX D77 d   1      -7.089  -7.976   6.732  0.00  0.00     0.290 C 
ATOM     41  OAC D77 d   1      -6.358  -7.748   7.705  0.00  0.00    -0.262 OA
BRANCH  40  42
ATOM     42  OAV D77 d   1      -6.575  -8.513   5.563  0.00  0.00    -0.324 OA
BRANCH  42  43
ATOM     43  CAA D77 d   1      -5.393  -9.335   5.745  0.00  0.00     0.013 C 
ATOM     44  H1  D77 d   1      -5.058  -9.716   4.769  0.00  0.00     0.067 H 
ATOM     45  H2  D77 d   1      -5.633 -10.181   6.406  0.00  0.00     0.067 H 
ATOM     46  H3  D77 d   1      -4.593  -8.731   6.198  0.00  0.00     0.067 H 
ENDBRANCH  42  43
ENDBRANCH  40  42
ENDBRANCH  38  40
BRANCH  38  47
ATOM     47  OAJ D77 d   1      -9.457  -8.861   6.650  0.00  0.00    -0.382 OA
ATOM     48  H5  D77 d   1      -9.289  -9.212   5.784  0.00  0.00     0.210 HD
ENDBRANCH  38  47
ENDBRANCH  37  38
BRANCH  37  49
ATOM     49  CAB D77 d   1      -8.285  -5.824   5.277  0.00  0.00    -0.042 C 
ATOM     50  H6  D77 d   1      -8.723  -5.007   4.684  0.00  0.00     0.031 H 
ATOM     51  H7  D77 d   1      -7.776  -6.531   4.606  0.00  0.00     0.031 H 
ATOM     52  H8  D77 d   1      -7.559  -5.410   5.993  0.00  0.00     0.031 H 
ENDBRANCH  37  49
BRANCH  37  53
ATOM     53  OAK D77 d   1     -10.264  -7.054   4.893  0.00  0.00    -0.384 OA
ATOM     54  H9  D77 d   1     -10.980  -7.521   5.307  0.00  0.00     0.210 HD
ENDBRANCH  37  53
ENDBRANCH   1  37
BRANCH  28  55
ATOM     55  OAI D77 d   1      -7.264  -4.735   9.527  0.00  0.00    -0.380 OA
ATOM     56  H21 D77 d   1      -6.341  -4.798   9.313  0.00  0.00     0.211 HD
ENDBRANCH  28  55
BRANCH   6  57
ATOM     57  OAG D77 d   1      -9.585  -1.388  11.546  0.00  0.00    -0.360 OA
ATOM     58  H11 D77 d   1     -10.031  -0.583  11.782  0.00  0.00     0.217 HD
ENDBRANCH   6  57
BRANCH  14  59
ATOM     59  OAH D77 d   1     -15.203   0.026   6.998  0.00  0.00    -0.357 OA
ATOM     60  H15 D77 d   1     -14.763  -0.785   6.771  0.00  0.00     0.217 HD
ENDBRANCH  14  59
BRANCH  13  61
ATOM     61  OAF D77 d   1     -16.135   2.372   7.994  0.00  0.00    -0.358 OA
ATOM     62  H14 D77 d   1     -16.408   1.836   7.258  0.00  0.00     0.217 HD
ENDBRANCH  13  61
TORSDOF 12
