REMARK  12 active torsions:
REMARK  status: ('A' for Active; 'I' for Inactive)
REMARK    1  A    between atoms: N_1  and  CA_2 
REMARK    2  A    between atoms: CA_2  and  C_3 
REMARK    3  A    between atoms: CA_2  and  CB_6 
REMARK    4  A    between atoms: CB_6  and  CG_7 
REMARK    5  A    between atoms: CG_7  and  CD_8 
REMARK    6  A    between atoms: CD_8  and  NE_9 
REMARK    7  A    between atoms: CD_8  and  C5'_10 
REMARK    8  A    between atoms: C5'_10  and  C4'_11 
REMARK    9  A    between atoms: C3'_13  and  O3'_14 
REMARK   10  A    between atoms: C2'_15  and  O2'_16 
REMARK   11  A    between atoms: C1'_17  and  N9_18 
REMARK   12  A    between atoms: C6_22  and  N6_23 
ROOT
ATOM      1  C4' SFG d   1      -8.303  14.949 -16.447  0.00  0.00     0.070 C 
ATOM      2  O4' SFG d   1      -7.976  13.649 -15.930  0.00  0.00    -0.355 OA
ATOM      3  C3' SFG d   1      -8.796  14.651 -17.857  0.00  0.00     0.089 C 
ATOM      4  C2' SFG d   1      -7.962  13.450 -18.252  0.00  0.00     0.105 C 
ATOM      5  C1' SFG d   1      -7.857  12.688 -16.976  0.00  0.00     0.139 C 
ATOM      6  H15 SFG d   1      -7.388  15.558 -16.498  0.00  0.00     0.087 H 
ATOM      7  H16 SFG d   1      -9.865  14.393 -17.848  0.00  0.00     0.091 H 
ATOM      8  H18 SFG d   1      -8.436  12.868 -19.056  0.00  0.00     0.093 H 
ATOM      9  H20 SFG d   1      -6.889  12.168 -16.928  0.00  0.00     0.122 H 
ENDROOT
BRANCH   1  10
ATOM     10  C5' SFG d   1      -9.327  15.731 -15.608  0.00  0.00    -0.012 C 
ATOM     11  H13 SFG d   1      -9.770  16.512 -16.243  0.00  0.00     0.040 H 
ATOM     12  H14 SFG d   1     -10.113  15.033 -15.284  0.00  0.00     0.040 H 
BRANCH  10  13
ATOM     13  CD  SFG d   1      -8.730  16.405 -14.355  0.00  0.00     0.102 C 
ATOM     14  H9  SFG d   1      -9.547  16.679 -13.672  0.00  0.00     0.084 H 
BRANCH  13  15
ATOM     15  CG  SFG d   1      -7.885  17.653 -14.666  0.00  0.00    -0.036 C 
ATOM     16  H7  SFG d   1      -7.207  17.830 -13.818  0.00  0.00     0.036 H 
ATOM     17  H8  SFG d   1      -7.294  17.451 -15.572  0.00  0.00     0.036 H 
BRANCH  15  18
ATOM     18  CB  SFG d   1      -8.703  18.929 -14.901  0.00  0.00    -0.027 C 
ATOM     19  H5  SFG d   1      -8.019  19.736 -15.202  0.00  0.00     0.036 H 
ATOM     20  H6  SFG d   1      -9.426  18.740 -15.709  0.00  0.00     0.036 H 
BRANCH  18  21
ATOM     21  CA  SFG d   1      -9.470  19.377 -13.650  0.00  0.00     0.182 C 
ATOM     22  H4  SFG d   1     -10.246  18.629 -13.431  0.00  0.00     0.101 H 
BRANCH  21  23
ATOM     23  N   SFG d   1     -10.122  20.675 -13.927  0.00  0.00    -0.065 N 
ATOM     24  H1  SFG d   1     -10.719  20.586 -14.734  0.00  0.00     0.275 HD
ATOM     25  H2  SFG d   1      -9.418  21.373 -14.106  0.00  0.00     0.275 HD
ATOM     26  H3  SFG d   1     -10.674  20.951 -13.130  0.00  0.00     0.275 HD
ENDBRANCH  21  23
BRANCH  21  27
ATOM     27  C   SFG d   1      -8.574  19.492 -12.447  0.00  0.00     0.204 C 
ATOM     28  O   SFG d   1      -7.844  20.502 -12.321  0.00  0.00    -0.646 OA
ATOM     29  OXT SFG d   1      -8.601  18.578 -11.581  0.00  0.00    -0.646 OA
ENDBRANCH  21  27
ENDBRANCH  18  21
ENDBRANCH  15  18
ENDBRANCH  13  15
BRANCH  13  30
ATOM     30  NE  SFG d   1      -7.809  15.435 -13.705  0.00  0.00    -0.075 N 
ATOM     31  H10 SFG d   1      -8.314  14.593 -13.478  0.00  0.00     0.274 HD
ATOM     32  H11 SFG d   1      -7.435  15.840 -12.861  0.00  0.00     0.274 HD
ATOM     33  H12 SFG d   1      -7.054  15.215 -14.335  0.00  0.00     0.274 HD
ENDBRANCH  13  30
ENDBRANCH  10  13
ENDBRANCH   1  10
BRANCH   3  34
ATOM     34  O3' SFG d   1      -8.599  15.761 -18.734  0.00  0.00    -0.390 OA
ATOM     35  H17 SFG d   1      -9.076  16.513 -18.403  0.00  0.00     0.210 HD
ENDBRANCH   3  34
BRANCH   5  36
ATOM     36  N9  SFG d   1      -8.945  11.724 -16.803  0.00  0.00    -0.294 N 
ATOM     37  C8  SFG d   1     -10.041  11.848 -16.034  0.00  0.00     0.071 A 
ATOM     38  N7  SFG d   1     -10.801  10.715 -16.092  0.00  0.00    -0.236 NA
ATOM     39  H21 SFG d   1     -10.289  12.730 -15.446  0.00  0.00     0.144 H 
ATOM     40  C5  SFG d   1     -10.168   9.860 -16.908  0.00  0.00     0.149 A 
ATOM     41  C6  SFG d   1     -10.413   8.498 -17.387  0.00  0.00     0.155 A 
ATOM     42  C4  SFG d   1      -8.950  10.524 -17.360  0.00  0.00     0.167 A 
ATOM     43  N1  SFG d   1      -9.442   7.997 -18.192  0.00  0.00    -0.222 NA
ATOM     44  C2  SFG d   1      -8.357   8.689 -18.600  0.00  0.00     0.091 A 
ATOM     45  N3  SFG d   1      -8.079   9.954 -18.194  0.00  0.00    -0.222 NA
ATOM     46  H24 SFG d   1      -7.671   8.209 -19.289  0.00  0.00     0.146 H 
BRANCH  41  47
ATOM     47  N6  SFG d   1     -11.530   7.816 -16.994  0.00  0.00    -0.382 N 
ATOM     48  H22 SFG d   1     -11.695   6.858 -17.335  0.00  0.00     0.157 HD
ATOM     49  H23 SFG d   1     -12.207   8.260 -16.357  0.00  0.00     0.157 HD
ENDBRANCH  41  47
ENDBRANCH   5  36
BRANCH   4  50
ATOM     50  O2' SFG d   1      -6.633  13.843 -18.616  0.00  0.00    -0.388 OA
ATOM     51  H19 SFG d   1      -6.672  14.442 -19.352  0.00  0.00     0.210 HD
ENDBRANCH   4  50
TORSDOF 12
