REMARK  16 active torsions:
REMARK  status: ('A' for Active; 'I' for Inactive)
REMARK    1  A    between atoms: C7_7  and  C5_3 
REMARK    2  A    between atoms: C12_15  and  N1_6 
REMARK    3  A    between atoms: C9_10  and  C8_8 
REMARK    4  A    between atoms: O2_33  and  C9_10 
REMARK    5  A    between atoms: O5_11  and  P1_23 
REMARK    6  A    between atoms: P_32  and  O5_11 
REMARK    7  A    between atoms: C10_12  and  C11_14 
REMARK    8  A    between atoms: O8_20  and  C10_12 
REMARK    9  A    between atoms: C17_29  and  N3_16 
REMARK   10  A    between atoms: C13_17  and  O10_25 
REMARK   11  A    between atoms: C14_19  and  O11_24 
REMARK   12  A    between atoms: P1_23  and  O8_20 
REMARK   13  A    between atoms: P_32  and  O2_33 
REMARK   14  A    between atoms: C20_35  and  O12_36 
REMARK   15  A    between atoms: C21_37  and  O13_38 
REMARK   16  A    between atoms: C1_41  and  C_42 
REMARK       I    between atoms: C_42  and  N_44 
ROOT
ATOM      1  O5  DQV d   1     -19.286  21.553  38.748  0.00  0.00    -0.180 OA
ENDROOT
BRANCH   1   2
ATOM      2  P1  DQV d   1     -19.668  23.033  39.174  0.00  0.00     0.417 P 
ATOM      3  O6  DQV d   1     -20.480  22.944  40.499  0.00  0.00    -0.624 OA
ATOM      4  O7  DQV d   1     -18.498  23.890  39.412  0.00  0.00    -0.624 OA
BRANCH   2   5
ATOM      5  O8  DQV d   1     -20.615  23.552  38.091  0.00  0.00    -0.287 OA
BRANCH   5   6
ATOM      6  C10 DQV d   1     -21.577  24.602  38.222  0.00  0.00     0.058 C 
ATOM      7  H7  DQV d   1     -22.593  24.185  38.158  0.00  0.00     0.079 H 
ATOM      8  H8  DQV d   1     -21.448  25.105  39.192  0.00  0.00     0.079 H 
BRANCH   6   9
ATOM      9  C11 DQV d   1     -21.362  25.584  37.110  0.00  0.00     0.089 C 
ATOM     10  C14 DQV d   1     -19.941  26.139  36.989  0.00  0.00     0.091 C 
ATOM     11  C13 DQV d   1     -20.044  27.522  37.645  0.00  0.00     0.105 C 
ATOM     12  H14 DQV d   1     -19.221  25.508  37.531  0.00  0.00     0.091 H 
ATOM     13  C12 DQV d   1     -21.469  27.896  37.261  0.00  0.00     0.139 C 
ATOM     14  H13 DQV d   1     -19.907  27.473  38.735  0.00  0.00     0.093 H 
ATOM     15  O9  DQV d   1     -22.226  26.712  37.346  0.00  0.00    -0.353 OA
ATOM     16  H10 DQV d   1     -21.458  28.253  36.221  0.00  0.00     0.122 H 
ATOM     17  H9  DQV d   1     -21.629  25.096  36.161  0.00  0.00     0.090 H 
BRANCH  10  18
ATOM     18  O11 DQV d   1     -19.571  26.205  35.624  0.00  0.00    -0.390 OA
ATOM     19  H16 DQV d   1     -18.723  26.627  35.547  0.00  0.00     0.210 HD
ENDBRANCH  10  18
BRANCH  11  20
ATOM     20  O10 DQV d   1     -19.115  28.439  37.080  0.00  0.00    -0.388 OA
ATOM     21  H17 DQV d   1     -19.290  28.533  36.151  0.00  0.00     0.210 HD
ENDBRANCH  11  20
BRANCH  13  22
ATOM     22  N1  DQV d   1     -22.115  28.919  38.070  0.00  0.00    -0.294 N 
ATOM     23  C15 DQV d   1     -21.804  29.348  39.332  0.00  0.00     0.071 A 
ATOM     24  N2  DQV d   1     -22.601  30.283  39.789  0.00  0.00    -0.236 NA
ATOM     25  H15 DQV d   1     -20.969  28.948  39.905  0.00  0.00     0.144 H 
ATOM     26  C16 DQV d   1     -23.491  30.496  38.746  0.00  0.00     0.149 A 
ATOM     27  C19 DQV d   1     -23.204  29.660  37.681  0.00  0.00     0.167 A 
ATOM     28  C17 DQV d   1     -24.572  31.389  38.583  0.00  0.00     0.155 A 
ATOM     29  N5  DQV d   1     -23.856  29.598  36.509  0.00  0.00    -0.222 NA
ATOM     30  C18 DQV d   1     -24.847  30.497  36.463  0.00  0.00     0.091 A 
ATOM     31  N4  DQV d   1     -25.230  31.374  37.399  0.00  0.00    -0.222 NA
ATOM     32  H18 DQV d   1     -25.417  30.517  35.541  0.00  0.00     0.146 H 
BRANCH  28  33
ATOM     33  N3  DQV d   1     -24.995  32.225  39.536  0.00  0.00    -0.382 N 
ATOM     34  H11 DQV d   1     -24.512  32.256  40.445  0.00  0.00     0.157 HD
ATOM     35  H12 DQV d   1     -25.804  32.838  39.361  0.00  0.00     0.157 HD
ENDBRANCH  28  33
ENDBRANCH  13  22
ENDBRANCH   6   9
ENDBRANCH   5   6
ENDBRANCH   2   5
ENDBRANCH   1   2
BRANCH   1  36
ATOM     36  P   DQV d   1     -18.614  21.082  37.395  0.00  0.00     0.417 P 
ATOM     37  O3  DQV d   1     -19.070  22.026  36.308  0.00  0.00    -0.624 OA
ATOM     38  O4  DQV d   1     -19.072  19.686  37.133  0.00  0.00    -0.624 OA
BRANCH  36  39
ATOM     39  O2  DQV d   1     -17.041  21.241  37.673  0.00  0.00    -0.287 OA
BRANCH  39  40
ATOM     40  C9  DQV d   1     -16.478  20.880  38.952  0.00  0.00     0.058 C 
ATOM     41  H5  DQV d   1     -16.502  21.762  39.608  0.00  0.00     0.079 H 
ATOM     42  H6  DQV d   1     -17.090  20.079  39.392  0.00  0.00     0.079 H 
BRANCH  40  43
ATOM     43  C8  DQV d   1     -15.053  20.396  38.848  0.00  0.00     0.087 C 
ATOM     44  O1  DQV d   1     -14.250  21.438  38.285  0.00  0.00    -0.368 OA
ATOM     45  C7  DQV d   1     -12.913  21.388  38.822  0.00  0.00     0.091 C 
ATOM     46  C21 DQV d   1     -12.934  20.415  40.014  0.00  0.00     0.091 C 
ATOM     47  H3  DQV d   1     -12.252  20.953  38.058  0.00  0.00     0.095 H 
ATOM     48  C20 DQV d   1     -14.423  20.094  40.207  0.00  0.00     0.090 C 
ATOM     49  H21 DQV d   1     -12.531  20.899  40.916  0.00  0.00     0.091 H 
ATOM     50  H19 DQV d   1     -14.864  20.734  40.986  0.00  0.00     0.091 H 
ATOM     51  H4  DQV d   1     -15.023  19.497  38.215  0.00  0.00     0.090 H 
BRANCH  45  52
ATOM     52  C5  DQV d   1     -12.387  22.768  39.104  0.00  0.00    -0.026 A 
ATOM     53  C4  DQV d   1     -11.249  22.940  39.890  0.00  0.00    -0.074 A 
ATOM     54  C3  DQV d   1     -10.647  24.184  39.998  0.00  0.00    -0.081 A 
ATOM     55  H1  DQV d   1     -10.831  22.093  40.422  0.00  0.00     0.084 H 
ATOM     56  C2  DQV d   1     -11.180  25.273  39.332  0.00  0.00    -0.068 A 
ATOM     57  H23 DQV d   1      -9.757  24.304  40.605  0.00  0.00     0.083 H 
ATOM     58  C1  DQV d   1     -12.325  25.126  38.545  0.00  0.00     0.032 A 
ATOM     59  H24 DQV d   1     -10.707  26.244  39.421  0.00  0.00     0.085 H 
ATOM     60  C6  DQV d   1     -12.926  23.870  38.442  0.00  0.00    -0.059 A 
ATOM     61  H2  DQV d   1     -13.820  23.751  37.841  0.00  0.00     0.086 H 
BRANCH  58  62
ATOM     62  C   DQV d   1     -12.853  26.300  37.766  0.00  0.00     0.249 C 
ATOM     63  O   DQV d   1     -12.061  27.223  37.429  0.00  0.00    -0.268 OA
ATOM     64  N   DQV d   1     -14.159  26.313  37.454  0.00  0.00    -0.366 N 
ATOM     65  H25 DQV d   1     -14.542  27.078  36.937  0.00  0.00     0.159 HD
ATOM     66  H26 DQV d   1     -14.749  25.557  37.739  0.00  0.00     0.159 HD
ENDBRANCH  58  62
ENDBRANCH  45  52
BRANCH  46  67
ATOM     67  O13 DQV d   1     -12.157  19.261  39.725  0.00  0.00    -0.390 OA
ATOM     68  H22 DQV d   1     -12.231  18.643  40.443  0.00  0.00     0.210 HD
ENDBRANCH  46  67
BRANCH  48  69
ATOM     69  O12 DQV d   1     -14.578  18.728  40.575  0.00  0.00    -0.390 OA
ATOM     70  H20 DQV d   1     -14.160  18.177  39.924  0.00  0.00     0.210 HD
ENDBRANCH  48  69
ENDBRANCH  40  43
ENDBRANCH  39  40
ENDBRANCH  36  39
ENDBRANCH   1  36
TORSDOF 16
