REMARK  11 active torsions:
REMARK  status: ('A' for Active; 'I' for Inactive)
REMARK    1  A    between atoms: N_1  and  CA_2 
REMARK    2  A    between atoms: CA_2  and  CB_3 
REMARK    3  A    between atoms: CA_2  and  C_6 
REMARK    4  A    between atoms: CB_3  and  CG_4 
REMARK    5  A    between atoms: CG_4  and  SD_5 
REMARK    6  A    between atoms: SD_5  and  C5'_9 
REMARK    7  A    between atoms: C5'_9  and  C4'_10 
REMARK    8  A    between atoms: C3'_12  and  O3'_13 
REMARK    9  A    between atoms: C2'_14  and  O2'_15 
REMARK   10  A    between atoms: C1'_16  and  N9_17 
REMARK   11  A    between atoms: C6_21  and  N6_22 
ROOT
ATOM      1  C4' SAH d   1      -8.505  14.804 -16.532  0.00  0.00     0.076 C 
ATOM      2  O4' SAH d   1      -8.418  13.490 -15.988  0.00  0.00    -0.355 OA
ATOM      3  C3' SAH d   1      -8.885  14.547 -17.971  0.00  0.00     0.090 C 
ATOM      4  C2' SAH d   1      -8.145  13.281 -18.327  0.00  0.00     0.105 C 
ATOM      5  C1' SAH d   1      -8.224  12.544 -17.029  0.00  0.00     0.139 C 
ATOM      6  H11 SAH d   1      -7.532  15.313 -16.461  0.00  0.00     0.088 H 
ATOM      7  H12 SAH d   1      -9.972  14.399 -18.056  0.00  0.00     0.091 H 
ATOM      8  H14 SAH d   1      -8.590  12.745 -19.178  0.00  0.00     0.093 H 
ATOM      9  H16 SAH d   1      -7.273  12.012 -16.879  0.00  0.00     0.122 H 
ENDROOT
BRANCH   1  10
ATOM     10  C5' SAH d   1      -9.570  15.671 -15.871  0.00  0.00     0.003 C 
ATOM     11  H9  SAH d   1      -9.714  16.566 -16.494  0.00  0.00     0.052 H 
ATOM     12  H10 SAH d   1     -10.505  15.093 -15.838  0.00  0.00     0.052 H 
BRANCH  10  13
ATOM     13  SD  SAH d   1      -9.192  16.218 -14.189  0.00  0.00    -0.166 SA
BRANCH  13  14
ATOM     14  CG  SAH d   1      -8.197  17.662 -14.686  0.00  0.00    -0.021 C 
ATOM     15  H7  SAH d   1      -7.473  17.875 -13.885  0.00  0.00     0.049 H 
ATOM     16  H8  SAH d   1      -7.657  17.408 -15.610  0.00  0.00     0.049 H 
BRANCH  14  17
ATOM     17  CB  SAH d   1      -9.016  18.927 -14.941  0.00  0.00    -0.021 C 
ATOM     18  H5  SAH d   1      -8.340  19.707 -15.320  0.00  0.00     0.037 H 
ATOM     19  H6  SAH d   1      -9.777  18.700 -15.702  0.00  0.00     0.037 H 
BRANCH  17  20
ATOM     20  CA  SAH d   1      -9.722  19.465 -13.702  0.00  0.00     0.183 C 
ATOM     21  H4  SAH d   1     -10.489  18.741 -13.391  0.00  0.00     0.101 H 
BRANCH  20  22
ATOM     22  N   SAH d   1     -10.392  20.722 -14.056  0.00  0.00    -0.065 N 
ATOM     23  H1  SAH d   1     -11.029  20.560 -14.820  0.00  0.00     0.275 HD
ATOM     24  H2  SAH d   1      -9.703  21.404 -14.332  0.00  0.00     0.275 HD
ATOM     25  H3  SAH d   1     -10.905  21.066 -13.259  0.00  0.00     0.275 HD
ENDBRANCH  20  22
BRANCH  20  26
ATOM     26  C   SAH d   1      -8.737  19.628 -12.547  0.00  0.00     0.204 C 
ATOM     27  O   SAH d   1      -8.055  20.672 -12.444  0.00  0.00    -0.646 OA
ATOM     28  OXT SAH d   1      -8.641  18.742 -11.670  0.00  0.00    -0.646 OA
ENDBRANCH  20  26
ENDBRANCH  17  20
ENDBRANCH  14  17
ENDBRANCH  13  14
ENDBRANCH  10  13
ENDBRANCH   1  10
BRANCH   3  29
ATOM     29  O3' SAH d   1      -8.495  15.595 -18.830  0.00  0.00    -0.390 OA
ATOM     30  H13 SAH d   1      -7.552  15.700 -18.791  0.00  0.00     0.210 HD
ENDBRANCH   3  29
BRANCH   5  31
ATOM     31  N9  SAH d   1      -9.318  11.578 -16.921  0.00  0.00    -0.294 N 
ATOM     32  C8  SAH d   1     -10.495  11.678 -16.230  0.00  0.00     0.071 A 
ATOM     33  N7  SAH d   1     -11.191  10.513 -16.370  0.00  0.00    -0.236 NA
ATOM     34  H17 SAH d   1     -10.823  12.547 -15.661  0.00  0.00     0.144 H 
ATOM     35  C5  SAH d   1     -10.468   9.678 -17.155  0.00  0.00     0.149 A 
ATOM     36  C6  SAH d   1     -10.688   8.387 -17.627  0.00  0.00     0.155 A 
ATOM     37  C4  SAH d   1      -9.288  10.346 -17.505  0.00  0.00     0.167 A 
ATOM     38  N1  SAH d   1      -9.699   7.835 -18.404  0.00  0.00    -0.222 NA
ATOM     39  C2  SAH d   1      -8.552   8.534 -18.740  0.00  0.00     0.091 A 
ATOM     40  N3  SAH d   1      -8.335   9.814 -18.296  0.00  0.00    -0.222 NA
ATOM     41  H20 SAH d   1      -7.808   8.059 -19.369  0.00  0.00     0.146 H 
BRANCH  36  42
ATOM     42  N6  SAH d   1     -11.793   7.673 -17.335  0.00  0.00    -0.382 N 
ATOM     43  H18 SAH d   1     -11.905   6.721 -17.711  0.00  0.00     0.157 HD
ATOM     44  H19 SAH d   1     -12.525   8.079 -16.735  0.00  0.00     0.157 HD
ENDBRANCH  36  42
ENDBRANCH   5  31
BRANCH   4  45
ATOM     45  O2' SAH d   1      -6.770  13.547 -18.524  0.00  0.00    -0.388 OA
ATOM     46  H15 SAH d   1      -6.668  14.173 -19.231  0.00  0.00     0.210 HD
ENDBRANCH   4  45
TORSDOF 11
