REMARK  9 active torsions:
REMARK  status: ('A' for Active; 'I' for Inactive)
REMARK    1  A    between atoms: O3A_8  and  PB_1 
REMARK    2  A    between atoms: PA_5  and  O3A_8 
REMARK    3  A    between atoms: PA_5  and  O5'_9 
REMARK    4  A    between atoms: O5'_9  and  C5'_10 
REMARK    5  A    between atoms: C5'_10  and  C4'_11 
REMARK    6  A    between atoms: C3'_13  and  O3'_14 
REMARK    7  A    between atoms: C2'_15  and  O2'_16 
REMARK    8  A    between atoms: C1'_17  and  N9_18 
REMARK    9  A    between atoms: C6_22  and  N6_23 
ROOT
ATOM      1  C4' ADP d   1      75.227  47.951  11.196  0.00  0.00     0.089 C 
ATOM      2  O4' ADP d   1      76.062  49.065  11.574  0.00  0.00    -0.353 OA
ATOM      3  C3' ADP d   1      75.180  47.966   9.666  0.00  0.00     0.091 C 
ATOM      4  C2' ADP d   1      76.474  48.699   9.287  0.00  0.00     0.105 C 
ATOM      5  C1' ADP d   1      76.584  49.710  10.426  0.00  0.00     0.139 C 
ATOM      6  H3  ADP d   1      74.206  48.110  11.573  0.00  0.00     0.090 H 
ATOM      7  H4  ADP d   1      75.174  46.946   9.255  0.00  0.00     0.091 H 
ATOM      8  H6  ADP d   1      77.326  48.003   9.306  0.00  0.00     0.093 H 
ATOM      9  H8  ADP d   1      75.974  50.590  10.176  0.00  0.00     0.122 H 
ENDROOT
BRANCH   5  10
ATOM     10  N9  ADP d   1      77.941  50.164  10.730  0.00  0.00    -0.294 N 
ATOM     11  C8  ADP d   1      79.026  49.389  11.055  0.00  0.00     0.071 A 
ATOM     12  N7  ADP d   1      80.103  50.075  11.355  0.00  0.00    -0.236 NA
ATOM     13  H9  ADP d   1      78.996  48.300  11.063  0.00  0.00     0.144 H 
ATOM     14  C5  ADP d   1      79.702  51.396  11.212  0.00  0.00     0.149 A 
ATOM     15  C6  ADP d   1      80.372  52.624  11.416  0.00  0.00     0.155 A 
ATOM     16  C4  ADP d   1      78.373  51.465  10.825  0.00  0.00     0.167 A 
ATOM     17  N1  ADP d   1      79.666  53.765  11.234  0.00  0.00    -0.222 NA
ATOM     18  C2  ADP d   1      78.384  53.679  10.860  0.00  0.00     0.091 A 
ATOM     19  N3  ADP d   1      77.656  52.584  10.617  0.00  0.00    -0.222 NA
ATOM     20  H12 ADP d   1      77.866  54.623  10.738  0.00  0.00     0.146 H 
BRANCH  15  21
ATOM     21  N6  ADP d   1      81.653  52.723  11.776  0.00  0.00    -0.382 N 
ATOM     22  H10 ADP d   1      82.081  53.651  11.908  0.00  0.00     0.157 HD
ATOM     23  H11 ADP d   1      82.214  51.872  11.922  0.00  0.00     0.157 HD
ENDBRANCH  15  21
ENDBRANCH   5  10
BRANCH   4  24
ATOM     24  O2' ADP d   1      76.438  49.314   8.003  0.00  0.00    -0.388 OA
ATOM     25  H7  ADP d   1      75.736  49.954   7.979  0.00  0.00     0.210 HD
ENDBRANCH   4  24
BRANCH   1  26
ATOM     26  C5' ADP d   1      75.757  46.689  11.837  0.00  0.00     0.058 C 
ATOM     27  H1  ADP d   1      75.850  46.832  12.924  0.00  0.00     0.079 H 
ATOM     28  H2  ADP d   1      75.074  45.851  11.634  0.00  0.00     0.079 H 
BRANCH  26  29
ATOM     29  O5' ADP d   1      77.056  46.414  11.264  0.00  0.00    -0.287 OA
BRANCH  29  30
ATOM     30  PA  ADP d   1      77.569  45.025  10.695  0.00  0.00     0.418 P 
ATOM     31  O1A ADP d   1      76.533  44.370   9.765  0.00  0.00    -0.624 OA
ATOM     32  O2A ADP d   1      78.911  45.077  10.071  0.00  0.00    -0.624 OA
BRANCH  30  33
ATOM     33  O3A ADP d   1      77.613  44.244  12.082  0.00  0.00    -0.173 OA
BRANCH  33  34
ATOM     34  PB  ADP d   1      77.664  42.736  12.585  0.00  0.00     0.431 P 
ATOM     35  O1B ADP d   1      78.250  41.905  11.423  0.00  0.00    -0.616 OA
ATOM     36  O2B ADP d   1      76.184  42.341  12.799  0.00  0.00    -0.616 OA
ATOM     37  O3B ADP d   1      78.457  42.656  13.861  0.00  0.00    -0.616 OA
ENDBRANCH  33  34
ENDBRANCH  30  33
ENDBRANCH  29  30
ENDBRANCH  26  29
ENDBRANCH   1  26
BRANCH   3  38
ATOM     38  O3' ADP d   1      74.022  48.661   9.229  0.00  0.00    -0.390 OA
ATOM     39  H5  ADP d   1      73.247  48.225   9.564  0.00  0.00     0.210 HD
ENDBRANCH   3  38
TORSDOF 9
