REMARK  12 active torsions:
REMARK  status: ('A' for Active; 'I' for Inactive)
REMARK    1  A    between atoms: PG_1  and  S1G_2 
REMARK    2  A    between atoms: O3B_8  and  PG_1 
REMARK    3  A    between atoms: PB_5  and  O3B_8 
REMARK    4  A    between atoms: O3A_12  and  PB_5 
REMARK    5  A    between atoms: PA_9  and  O3A_12 
REMARK    6  A    between atoms: PA_9  and  O5'_13 
REMARK    7  A    between atoms: O5'_13  and  C5'_14 
REMARK    8  A    between atoms: C5'_14  and  C4'_15 
REMARK    9  A    between atoms: C3'_17  and  O3'_18 
REMARK   10  A    between atoms: C2'_19  and  O2'_20 
REMARK   11  A    between atoms: C1'_21  and  N9_22 
REMARK   12  A    between atoms: C6_26  and  N6_27 
ROOT
ATOM      1  C4' AGS d   1     -46.312  48.317  11.046  0.00  0.00     0.089 C 
ATOM      2  O4' AGS d   1     -45.502  49.441  11.457  0.00  0.00    -0.353 OA
ATOM      3  C3' AGS d   1     -46.331  48.352   9.515  0.00  0.00     0.091 C 
ATOM      4  C2' AGS d   1     -45.026  49.077   9.173  0.00  0.00     0.105 C 
ATOM      5  C1' AGS d   1     -44.928  50.080  10.325  0.00  0.00     0.139 C 
ATOM      6  H4  AGS d   1     -47.342  48.457  11.405  0.00  0.00     0.090 H 
ATOM      7  H5  AGS d   1     -46.345  47.336   9.093  0.00  0.00     0.091 H 
ATOM      8  H7  AGS d   1     -44.181  48.374   9.215  0.00  0.00     0.093 H 
ATOM      9  H9  AGS d   1     -45.509  50.977  10.063  0.00  0.00     0.122 H 
ENDROOT
BRANCH   1  10
ATOM     10  C5' AGS d   1     -45.782  47.048  11.673  0.00  0.00     0.058 C 
ATOM     11  H2  AGS d   1     -45.727  47.169  12.765  0.00  0.00     0.079 H 
ATOM     12  H3  AGS d   1     -46.450  46.208  11.431  0.00  0.00     0.079 H 
BRANCH  10  13
ATOM     13  O5' AGS d   1     -44.461  46.789  11.144  0.00  0.00    -0.287 OA
BRANCH  13  14
ATOM     14  PA  AGS d   1     -43.928  45.391  10.586  0.00  0.00     0.417 P 
ATOM     15  O1A AGS d   1     -42.568  45.499  10.000  0.00  0.00    -0.624 OA
ATOM     16  O2A AGS d   1     -44.955  44.716   9.640  0.00  0.00    -0.624 OA
BRANCH  14  17
ATOM     17  O3A AGS d   1     -43.965  44.590  11.960  0.00  0.00    -0.180 OA
BRANCH  17  18
ATOM     18  PB  AGS d   1     -43.833  43.052  12.346  0.00  0.00     0.426 P 
ATOM     19  O1B AGS d   1     -43.124  42.923  13.644  0.00  0.00    -0.624 OA
ATOM     20  O2B AGS d   1     -43.250  42.324  11.117  0.00  0.00    -0.624 OA
BRANCH  18  21
ATOM     21  O3B AGS d   1     -45.355  42.602  12.446  0.00  0.00    -0.195 OA
BRANCH  21  22
ATOM     22  PG  AGS d   1     -46.092  41.190  12.381  0.00  0.00     0.322 P 
ATOM     23  O2G AGS d   1     -45.715  40.487  13.740  0.00  0.00    -0.638 OA
ATOM     24  O3G AGS d   1     -45.318  40.310  11.340  0.00  0.00    -0.638 OA
BRANCH  22  25
ATOM     25  S1G AGS d   1     -47.940  41.565  12.177  0.00  0.00    -0.054 SA
ATOM     26  H1  AGS d   1     -48.095  42.012  11.287  0.00  0.00     0.114 HD
ENDBRANCH  22  25
ENDBRANCH  21  22
ENDBRANCH  18  21
ENDBRANCH  17  18
ENDBRANCH  14  17
ENDBRANCH  13  14
ENDBRANCH  10  13
ENDBRANCH   1  10
BRANCH   3  27
ATOM     27  O3' AGS d   1     -47.454  49.082   9.041  0.00  0.00    -0.390 OA
ATOM     28  H6  AGS d   1     -48.252  48.668   9.348  0.00  0.00     0.210 HD
ENDBRANCH   3  27
BRANCH   5  29
ATOM     29  N9  AGS d   1     -43.566  50.499  10.669  0.00  0.00    -0.294 N 
ATOM     30  C8  AGS d   1     -42.490  49.698  10.961  0.00  0.00     0.071 A 
ATOM     31  N7  AGS d   1     -41.394  50.358  11.260  0.00  0.00    -0.236 NA
ATOM     32  H10 AGS d   1     -42.541  48.610  10.946  0.00  0.00     0.144 H 
ATOM     33  C5  AGS d   1     -41.774  51.689  11.158  0.00  0.00     0.149 A 
ATOM     34  C6  AGS d   1     -41.067  52.902  11.330  0.00  0.00     0.155 A 
ATOM     35  C4  AGS d   1     -43.111  51.790  10.791  0.00  0.00     0.167 A 
ATOM     36  N1  AGS d   1     -41.741  54.055  11.125  0.00  0.00    -0.222 NA
ATOM     37  C2  AGS d   1     -43.030  53.997  10.767  0.00  0.00     0.091 A 
ATOM     38  N3  AGS d   1     -43.798  52.920  10.576  0.00  0.00    -0.222 NA
ATOM     39  H13 AGS d   1     -43.517  54.953  10.611  0.00  0.00     0.146 H 
BRANCH  34  40
ATOM     40  N6  AGS d   1     -39.777  52.982  11.682  0.00  0.00    -0.382 N 
ATOM     41  H11 AGS d   1     -39.328  53.903  11.788  0.00  0.00     0.157 HD
ATOM     42  H12 AGS d   1     -39.234  52.123  11.846  0.00  0.00     0.157 HD
ENDBRANCH  34  40
ENDBRANCH   5  29
BRANCH   4  43
ATOM     43  O2' AGS d   1     -45.027  49.670   7.880  0.00  0.00    -0.388 OA
ATOM     44  H8  AGS d   1     -45.729  50.307   7.826  0.00  0.00     0.210 HD
ENDBRANCH   4  43
TORSDOF 12
