REMARK  12 active torsions:
REMARK  status: ('A' for Active; 'I' for Inactive)
REMARK    1  A    between atoms: C15_4  and  N18_26 
REMARK    2  A    between atoms: C19_5  and  N25_27 
REMARK    3  A    between atoms: C26_28  and  C24_10 
REMARK    4  A    between atoms: C10_24  and  C12_12 
REMARK       I    between atoms: N18_26  and  C34_13 
REMARK    5  A    between atoms: C34_13  and  O36_36 
REMARK    6  A    between atoms: N3_17  and  C4_18 
REMARK       I    between atoms: C32_33  and  N3_17 
REMARK    7  A    between atoms: C4_18  and  C5_19 
REMARK    8  A    between atoms: C4_18  and  C6_20 
REMARK    9  A    between atoms: C6_20  and  C38_38 
REMARK   10  A    between atoms: C31_32  and  C32_33 
REMARK   11  A    between atoms: O36_36  and  C37_37 
REMARK       I    between atoms: N42_42  and  C44_44 
REMARK   12  A    between atoms: C44_44  and  C46_46 
ROOT
ATOM      1  C4  EEJ d   1      39.945 -21.154  29.498  0.00  0.00     0.057 C 
ATOM      2  H10 EEJ d   1      39.822 -21.384  30.567  0.00  0.00     0.082 H 
ENDROOT
BRANCH   1   3
ATOM      3  N3  EEJ d   1      39.243 -19.897  29.233  0.00  0.00    -0.347 N 
ATOM      4  C32 EEJ d   1      39.238 -18.954  30.199  0.00  0.00     0.241 C 
ATOM      5  O33 EEJ d   1      39.865 -19.098  31.252  0.00  0.00    -0.269 OA
ATOM      6  H9  EEJ d   1      38.780 -19.741  28.360  0.00  0.00     0.163 HD
BRANCH   4   7
ATOM      7  C31 EEJ d   1      38.497 -17.707  29.898  0.00  0.00    -0.017 C 
ATOM      8  C26 EEJ d   1      37.974 -17.320  28.744  0.00  0.00    -0.066 C 
ATOM      9  H15 EEJ d   1      38.044 -17.994  27.891  0.00  0.00     0.085 H 
ATOM     10  H16 EEJ d   1      38.365 -17.020  30.733  0.00  0.00     0.092 H 
BRANCH   8  11
ATOM     11  C24 EEJ d   1      37.303 -16.024  28.559  0.00  0.00    -0.005 A 
ATOM     12  C19 EEJ d   1      37.775 -15.038  27.676  0.00  0.00     0.071 A 
ATOM     13  C20 EEJ d   1      37.105 -13.817  27.585  0.00  0.00    -0.053 A 
ATOM     14  C21 EEJ d   1      35.979 -13.569  28.355  0.00  0.00    -0.060 A 
ATOM     15  H4  EEJ d   1      37.469 -13.055  26.905  0.00  0.00     0.087 H 
ATOM     16  C22 EEJ d   1      35.520 -14.547  29.215  0.00  0.00     0.035 A 
ATOM     17  H5  EEJ d   1      35.465 -12.618  28.283  0.00  0.00     0.086 H 
ATOM     18  C23 EEJ d   1      36.160 -15.761  29.326  0.00  0.00    -0.050 A 
ATOM     19 CL1  EEJ d   1      34.076 -14.259  30.158  0.00  0.00    -0.084 Cl
ATOM     20  H6  EEJ d   1      35.780 -16.514  30.007  0.00  0.00     0.087 H 
BRANCH  12  21
ATOM     21  N25 EEJ d   1      38.779 -15.362  26.714  0.00  0.00    -0.205 N 
ATOM     22  C27 EEJ d   1      38.883 -15.141  25.402  0.00  0.00     0.113 A 
ATOM     23  N28 EEJ d   1      40.070 -15.490  24.988  0.00  0.00    -0.122 NA
ATOM     24  H8  EEJ d   1      38.095 -14.731  24.772  0.00  0.00     0.149 H 
ATOM     25  N29 EEJ d   1      40.736 -15.899  26.096  0.00  0.00    -0.023 NA
ATOM     26  N30 EEJ d   1      39.976 -15.834  27.142  0.00  0.00    -0.040 NA
ENDBRANCH  12  21
ENDBRANCH   8  11
ENDBRANCH   4   7
ENDBRANCH   1   3
BRANCH   1  27
ATOM     27  C5  EEJ d   1      41.414 -20.957  29.207  0.00  0.00     0.080 A 
ATOM     28  C11 EEJ d   1      42.360 -21.170  30.204  0.00  0.00    -0.041 A 
ATOM     29  C10 EEJ d   1      43.709 -21.209  29.849  0.00  0.00     0.018 A 
ATOM     30  H7  EEJ d   1      42.056 -21.303  31.236  0.00  0.00     0.088 H 
ATOM     31  C9  EEJ d   1      43.993 -21.002  28.481  0.00  0.00     0.159 A 
ATOM     32 CL2  EEJ d   1      45.613 -21.129  27.849  0.00  0.00    -0.060 Cl
ATOM     33  N8  EEJ d   1      43.055 -20.754  27.591  0.00  0.00    -0.137 NA
ATOM     34  N7  EEJ d   1      41.763 -20.724  27.941  0.00  0.00    -0.151 NA
BRANCH  29  35
ATOM     35  C12 EEJ d   1      44.707 -21.509  30.920  0.00  0.00    -0.022 A 
ATOM     36  C13 EEJ d   1      45.950 -20.873  30.958  0.00  0.00    -0.070 A 
ATOM     37  C14 EEJ d   1      46.894 -21.187  31.924  0.00  0.00    -0.056 A 
ATOM     38  H1  EEJ d   1      46.182 -20.117  30.216  0.00  0.00     0.084 H 
ATOM     39  C15 EEJ d   1      46.602 -22.120  32.920  0.00  0.00     0.036 A 
ATOM     40  H13 EEJ d   1      47.865 -20.705  31.905  0.00  0.00     0.086 H 
ATOM     41  C16 EEJ d   1      45.350 -22.736  32.915  0.00  0.00    -0.056 A 
ATOM     42  C17 EEJ d   1      44.428 -22.445  31.922  0.00  0.00    -0.070 A 
ATOM     43  H3  EEJ d   1      45.097 -23.447  33.693  0.00  0.00     0.086 H 
ATOM     44  H2  EEJ d   1      43.471 -22.953  31.922  0.00  0.00     0.084 H 
BRANCH  39  45
ATOM     45  N18 EEJ d   1      47.525 -22.530  33.934  0.00  0.00    -0.303 N 
ATOM     46  C34 EEJ d   1      48.839 -22.184  34.071  0.00  0.00     0.364 C 
ATOM     47  O35 EEJ d   1      49.484 -21.487  33.315  0.00  0.00    -0.238 OA
ATOM     48  H14 EEJ d   1      47.162 -23.148  34.631  0.00  0.00     0.171 HD
BRANCH  46  49
ATOM     49  O36 EEJ d   1      49.342 -22.753  35.180  0.00  0.00    -0.309 OA
BRANCH  49  50
ATOM     50  C37 EEJ d   1      50.765 -22.573  35.404  0.00  0.00     0.015 C 
ATOM     51  H17 EEJ d   1      51.057 -23.080  36.336  0.00  0.00     0.067 H 
ATOM     52  H18 EEJ d   1      50.991 -21.499  35.485  0.00  0.00     0.067 H 
ATOM     53  H19 EEJ d   1      51.326 -23.003  34.561  0.00  0.00     0.067 H 
ENDBRANCH  49  50
ENDBRANCH  46  49
ENDBRANCH  39  45
ENDBRANCH  29  35
ENDBRANCH   1  27
BRANCH   1  54
ATOM     54  C6  EEJ d   1      39.439 -22.371  28.702  0.00  0.00    -0.036 C 
ATOM     55  H11 EEJ d   1      39.602 -22.172  27.633  0.00  0.00     0.037 H 
ATOM     56  H12 EEJ d   1      38.361 -22.481  28.894  0.00  0.00     0.037 H 
BRANCH  54  57
ATOM     57  C38 EEJ d   1      40.129 -23.713  29.052  0.00  0.00    -0.036 C 
ATOM     58  C39 EEJ d   1      40.091 -24.069  30.535  0.00  0.00    -0.059 C 
ATOM     59  C40 EEJ d   1      40.892 -25.332  30.824  0.00  0.00    -0.050 C 
ATOM     60  H21 EEJ d   1      39.046 -24.231  30.837  0.00  0.00     0.033 H 
ATOM     61  H22 EEJ d   1      40.516 -23.236  31.114  0.00  0.00     0.033 H 
ATOM     62  C41 EEJ d   1      40.463 -26.483  29.910  0.00  0.00    -0.002 C 
ATOM     63  H23 EEJ d   1      40.731 -25.627  31.871  0.00  0.00     0.035 H 
ATOM     64  H24 EEJ d   1      41.960 -25.124  30.662  0.00  0.00     0.035 H 
ATOM     65  N42 EEJ d   1      40.358 -26.090  28.491  0.00  0.00    -0.352 N 
ATOM     66  H25 EEJ d   1      39.481 -26.848  30.245  0.00  0.00     0.064 H 
ATOM     67  H26 EEJ d   1      41.204 -27.292  29.995  0.00  0.00     0.064 H 
ATOM     68  C43 EEJ d   1      39.554 -24.883  28.262  0.00  0.00     0.001 C 
ATOM     69  C44 EEJ d   1      41.019 -26.778  27.506  0.00  0.00     0.215 C 
ATOM     70  H27 EEJ d   1      39.563 -24.638  27.190  0.00  0.00     0.065 H 
ATOM     71  H28 EEJ d   1      38.520 -25.068  28.587  0.00  0.00     0.065 H 
ATOM     72  O45 EEJ d   1      41.812 -27.664  27.781  0.00  0.00    -0.274 OA
ATOM     73  H20 EEJ d   1      41.186 -23.605  28.768  0.00  0.00     0.042 H 
BRANCH  69  74
ATOM     74  C46 EEJ d   1      40.794 -26.375  26.081  0.00  0.00    -0.003 C 
ATOM     75  H29 EEJ d   1      41.392 -27.019  25.419  0.00  0.00     0.040 H 
ATOM     76  H30 EEJ d   1      41.097 -25.327  25.944  0.00  0.00     0.040 H 
ATOM     77  H31 EEJ d   1      39.728 -26.484  25.833  0.00  0.00     0.040 H 
ENDBRANCH  69  74
ENDBRANCH  54  57
ENDBRANCH   1  54
TORSDOF 12
