REMARK  9 active torsions:
REMARK  status: ('A' for Active; 'I' for Inactive)
REMARK    1  A    between atoms: C23_23  and  C7_1 
REMARK    2  A    between atoms: C24_24  and  C11_11 
REMARK    3  A    between atoms: C12_12  and  C21_21 
REMARK    4  A    between atoms: C13_13  and  N29_29 
REMARK    5  A    between atoms: N29_29  and  C14_14 
REMARK    6  A    between atoms: C20_20  and  C15_15 
REMARK    7  A    between atoms: C19_19  and  C22_22 
REMARK    8  A    between atoms: C20_20  and  C24_24 
REMARK    9  A    between atoms: C23_23  and  N28_28 
ROOT
ATOM      1  C16 EG7 d   1     108.966 -18.158   7.135  0.00  0.00    -0.025 C 
ATOM      2  C17 EG7 d   1     110.224 -17.833   9.246  0.00  0.00    -0.022 C 
ATOM      3  C18 EG7 d   1     110.285 -18.468   6.419  0.00  0.00     0.085 C 
ATOM      4  C19 EG7 d   1     111.538 -18.238   8.547  0.00  0.00     0.102 C 
ATOM      5  C20 EG7 d   1     109.118 -17.231   8.355  0.00  0.00     0.057 C 
ATOM      6  N28 EG7 d   1     111.307 -19.047   7.321  0.00  0.00    -0.063 N 
ATOM      7  H7  EG7 d   1     108.525 -19.107   7.475  0.00  0.00     0.037 H 
ATOM      8  H8  EG7 d   1     108.287 -17.675   6.416  0.00  0.00     0.037 H 
ATOM      9  H9  EG7 d   1     110.473 -17.088  10.016  0.00  0.00     0.037 H 
ATOM     10  H10 EG7 d   1     109.811 -18.733   9.726  0.00  0.00     0.037 H 
ATOM     11  H11 EG7 d   1     110.681 -17.535   5.993  0.00  0.00     0.076 H 
ATOM     12  H12 EG7 d   1     110.085 -19.185   5.609  0.00  0.00     0.076 H 
ATOM     13  H13 EG7 d   1     112.080 -17.329   8.247  0.00  0.00     0.084 H 
ATOM     14  H25 EG7 d   1     110.965 -19.947   7.619  0.00  0.00     0.280 HD
ENDROOT
BRANCH   5  15
ATOM     15  C15 EG7 d   1     107.882 -17.240   9.274  0.00  0.00     0.182 C 
ATOM     16  O30 EG7 d   1     107.956 -17.194  10.495  0.00  0.00    -0.647 OA
ATOM     17  O31 EG7 d   1     106.657 -17.315   8.683  0.00  0.00    -0.647 OA
ENDBRANCH   5  15
BRANCH   5  18
ATOM     18  C24 EG7 d   1     109.458 -15.783   7.944  0.00  0.00    -0.005 C 
ATOM     19  H22 EG7 d   1     109.530 -15.169   8.854  0.00  0.00     0.044 H 
ATOM     20  H23 EG7 d   1     110.428 -15.785   7.425  0.00  0.00     0.044 H 
BRANCH  18  21
ATOM     21  C11 EG7 d   1     108.423 -15.168   7.028  0.00  0.00     0.076 A 
ATOM     22  C8  EG7 d   1     107.427 -14.336   7.554  0.00  0.00     0.141 A 
ATOM     23  C3  EG7 d   1     106.438 -13.837   6.708  0.00  0.00    -0.040 A 
ATOM     24  F32 EG7 d   1     107.370 -14.076   8.855  0.00  0.00    -0.204 F 
ATOM     25  C5  EG7 d   1     106.489 -14.159   5.354  0.00  0.00    -0.036 A 
ATOM     26  H5  EG7 d   1     105.644 -13.210   7.097  0.00  0.00     0.088 H 
ATOM     27  C13 EG7 d   1     107.523 -15.002   4.919  0.00  0.00     0.129 A 
ATOM     28  H3  EG7 d   1     105.754 -13.771   4.659  0.00  0.00     0.089 H 
ATOM     29  N25 EG7 d   1     108.493 -15.507   5.716  0.00  0.00    -0.233 NA
BRANCH  27  30
ATOM     30  N29 EG7 d   1     107.579 -15.281   3.540  0.00  0.00    -0.324 N 
ATOM     31  H26 EG7 d   1     106.690 -15.090   3.056  0.00  0.00     0.169 HD
BRANCH  30  32
ATOM     32  C14 EG7 d   1     108.573 -15.760   2.682  0.00  0.00     0.151 A 
ATOM     33  C6  EG7 d   1     109.819 -16.251   3.005  0.00  0.00    -0.014 A 
ATOM     34  C12 EG7 d   1     110.358 -16.650   1.763  0.00  0.00     0.027 A 
ATOM     35  H1  EG7 d   1     110.281 -16.316   3.989  0.00  0.00     0.092 H 
ATOM     36  N27 EG7 d   1     109.526 -16.419   0.755  0.00  0.00    -0.281 N 
ATOM     37  N26 EG7 d   1     108.459 -15.874   1.344  0.00  0.00    -0.157 NA
ATOM     38  H24 EG7 d   1     109.670 -16.614  -0.246  0.00  0.00     0.189 HD
BRANCH  34  39
ATOM     39  C21 EG7 d   1     111.684 -17.236   1.450  0.00  0.00    -0.036 C 
ATOM     40  H14 EG7 d   1     111.757 -17.422   0.368  0.00  0.00     0.035 H 
ATOM     41  H15 EG7 d   1     111.803 -18.185   1.994  0.00  0.00     0.035 H 
ATOM     42  H16 EG7 d   1     112.476 -16.536   1.756  0.00  0.00     0.035 H 
ENDBRANCH  34  39
ENDBRANCH  30  32
ENDBRANCH  27  30
ENDBRANCH  18  21
ENDBRANCH   5  18
BRANCH   4  43
ATOM     43  C22 EG7 d   1     112.360 -18.979   9.613  0.00  0.00    -0.049 C 
ATOM     44  H17 EG7 d   1     113.319 -19.299   9.179  0.00  0.00     0.030 H 
ATOM     45  H18 EG7 d   1     111.801 -19.861   9.959  0.00  0.00     0.030 H 
ATOM     46  H19 EG7 d   1     112.548 -18.307  10.463  0.00  0.00     0.030 H 
ENDBRANCH   4  43
BRANCH   6  47
ATOM     47  C23 EG7 d   1     112.566 -19.265   6.598  0.00  0.00     0.110 C 
ATOM     48  H20 EG7 d   1     112.938 -18.284   6.269  0.00  0.00     0.083 H 
ATOM     49  H21 EG7 d   1     113.284 -19.711   7.302  0.00  0.00     0.083 H 
BRANCH  47  50
ATOM     50  C7  EG7 d   1     112.494 -20.156   5.391  0.00  0.00     0.008 A 
ATOM     51  C2  EG7 d   1     111.996 -21.474   5.450  0.00  0.00    -0.072 A 
ATOM     52  C1  EG7 d   1     111.995 -22.262   4.291  0.00  0.00    -0.081 A 
ATOM     53  H6  EG7 d   1     111.617 -21.874   6.384  0.00  0.00     0.084 H 
ATOM     54  C4  EG7 d   1     112.489 -21.736   3.092  0.00  0.00    -0.059 A 
ATOM     55  H2  EG7 d   1     111.613 -23.276   4.323  0.00  0.00     0.083 H 
ATOM     56  C10 EG7 d   1     113.004 -20.442   3.058  0.00  0.00     0.073 A 
ATOM     57  H4  EG7 d   1     112.471 -22.336   2.189  0.00  0.00     0.086 H 
ATOM     58  C9  EG7 d   1     113.001 -19.649   4.200  0.00  0.00     0.146 A 
ATOM     59 CL1  EG7 d   1     113.685 -19.817   1.610  0.00  0.00    -0.081 Cl
ATOM     60  F33 EG7 d   1     113.453 -18.377   4.170  0.00  0.00    -0.204 F 
ENDBRANCH  47  50
ENDBRANCH   6  47
TORSDOF 9
