REMARK  9 active torsions:
REMARK  status: ('A' for Active; 'I' for Inactive)
REMARK    1  A    between atoms: C1_1  and  C_15 
REMARK    2  A    between atoms: C3_3  and  C2_2 
REMARK    3  A    between atoms: C4_4  and  O_26 
REMARK    4  A    between atoms: O_26  and  C5_5 
REMARK    5  A    between atoms: C23_11  and  C24_12 
REMARK    6  A    between atoms: C20_20  and  C21_21 
REMARK    7  A    between atoms: N1_27  and  C11_23 
REMARK    8  A    between atoms: N1_27  and  C12_28 
REMARK    9  A    between atoms: N3_32  and  C13_34 
ROOT
ATOM      1  C3  EO1 d   1      16.766  -5.325   7.037  0.00  0.00     0.014 A 
ATOM      2  C4  EO1 d   1      17.060  -5.901   8.297  0.00  0.00     0.080 A 
ATOM      3  C6  EO1 d   1      18.180  -5.511   9.025  0.00  0.00    -0.037 A 
ATOM      4  C22 EO1 d   1      17.653  -4.359   6.531  0.00  0.00    -0.043 A 
ATOM      5  C8  EO1 d   1      18.759  -3.969   7.267  0.00  0.00     0.046 A 
ATOM      6  N   EO1 d   1      19.758  -3.074   6.934  0.00  0.00    -0.339 N 
ATOM      7  C9  EO1 d   1      20.704  -3.041   7.936  0.00  0.00     0.145 A 
ATOM      8  N5  EO1 d   1      21.856  -2.346   7.927  0.00  0.00    -0.215 NA
ATOM      9  C20 EO1 d   1      22.640  -2.553   8.992  0.00  0.00     0.127 A 
ATOM     10  N4  EO1 d   1      22.363  -3.369  10.017  0.00  0.00    -0.215 NA
ATOM     11  C11 EO1 d   1      21.214  -4.067  10.053  0.00  0.00     0.146 A 
ATOM     12  C10 EO1 d   1      20.291  -3.938   8.973  0.00  0.00     0.069 A 
ATOM     13  C7  EO1 d   1      19.039  -4.534   8.526  0.00  0.00     0.011 A 
ATOM     14  H4  EO1 d   1      18.385  -5.970   9.986  0.00  0.00     0.089 H 
ATOM     15  H7  EO1 d   1      17.470  -3.917   5.558  0.00  0.00     0.088 H 
ATOM     16  H14 EO1 d   1      19.791  -2.516   6.069  0.00  0.00     0.167 HD
ENDROOT
BRANCH  11  17
ATOM     17  N1  EO1 d   1      20.974  -4.851  11.188  0.00  0.00    -0.323 N 
ATOM     18  H18 EO1 d   1      21.870  -5.131  11.612  0.00  0.00     0.169 HD
BRANCH  17  19
ATOM     19  C12 EO1 d   1      19.946  -5.361  11.910  0.00  0.00     0.162 A 
ATOM     20  C15 EO1 d   1      18.609  -4.794  12.169  0.00  0.00     0.040 A 
ATOM     21  C16 EO1 d   1      18.085  -3.531  11.901  0.00  0.00    -0.067 A 
ATOM     22  C14 EO1 d   1      17.809  -5.718  12.864  0.00  0.00     0.066 A 
ATOM     23  C17 EO1 d   1      16.816  -3.194  12.351  0.00  0.00    -0.082 A 
ATOM     24  H19 EO1 d   1      18.669  -2.811  11.340  0.00  0.00     0.085 H 
ATOM     25  C18 EO1 d   1      16.050  -4.111  13.054  0.00  0.00    -0.081 A 
ATOM     26  H5  EO1 d   1      16.420  -2.205  12.151  0.00  0.00     0.083 H 
ATOM     27  C19 EO1 d   1      16.532  -5.386  13.310  0.00  0.00    -0.055 A 
ATOM     28  H6  EO1 d   1      15.065  -3.829  13.407  0.00  0.00     0.083 H 
ATOM     29  H20 EO1 d   1      15.928  -6.109  13.846  0.00  0.00     0.087 H 
ATOM     30  N3  EO1 d   1      18.642  -6.833  12.987  0.00  0.00    -0.271 N 
ATOM     31  N2  EO1 d   1      19.906  -6.626  12.447  0.00  0.00    -0.153 NA
BRANCH  30  32
ATOM     32  C13 EO1 d   1      18.268  -8.116  13.570  0.00  0.00     0.003 C 
ATOM     33  H21 EO1 d   1      19.128  -8.801  13.530  0.00  0.00     0.059 H 
ATOM     34  H22 EO1 d   1      17.430  -8.546  13.002  0.00  0.00     0.059 H 
ATOM     35  H23 EO1 d   1      17.965  -7.968  14.617  0.00  0.00     0.059 H 
ENDBRANCH  30  32
ENDBRANCH  17  19
ENDBRANCH  11  17
BRANCH   9  36
ATOM     36  C21 EO1 d   1      23.935  -1.807   9.043  0.00  0.00    -0.019 C 
ATOM     37  H15 EO1 d   1      24.032  -1.179   8.145  0.00  0.00     0.037 H 
ATOM     38  H16 EO1 d   1      24.769  -2.523   9.082  0.00  0.00     0.037 H 
ATOM     39  H17 EO1 d   1      23.956  -1.170   9.940  0.00  0.00     0.037 H 
ENDBRANCH   9  36
BRANCH   2  40
ATOM     40  O   EO1 d   1      16.180  -6.851   8.742  0.00  0.00    -0.355 OA
BRANCH  40  41
ATOM     41  C5  EO1 d   1      16.584  -7.687   9.827  0.00  0.00     0.010 C 
ATOM     42  H1  EO1 d   1      15.775  -8.393  10.067  0.00  0.00     0.066 H 
ATOM     43  H2  EO1 d   1      16.801  -7.065  10.708  0.00  0.00     0.066 H 
ATOM     44  H3  EO1 d   1      17.487  -8.247   9.542  0.00  0.00     0.066 H 
ENDBRANCH  40  41
ENDBRANCH   2  40
BRANCH   1  45
ATOM     45  C2  EO1 d   1      15.545  -5.692   6.262  0.00  0.00     0.035 A 
ATOM     46  C1  EO1 d   1      14.579  -4.845   5.820  0.00  0.00     0.088 A 
ATOM     47  O1  EO1 d   1      13.581  -5.550   5.248  0.00  0.00    -0.217 OA
ATOM     48  N6  EO1 d   1      13.920  -6.925   5.291  0.00  0.00    -0.133 NA
ATOM     49  C23 EO1 d   1      15.086  -6.990   5.859  0.00  0.00     0.072 A 
BRANCH  46  50
ATOM     50  C   EO1 d   1      14.445  -3.371   5.789  0.00  0.00    -0.028 C 
ATOM     51  H11 EO1 d   1      13.480  -3.100   5.335  0.00  0.00     0.036 H 
ATOM     52  H12 EO1 d   1      15.264  -2.941   5.194  0.00  0.00     0.036 H 
ATOM     53  H13 EO1 d   1      14.491  -2.977   6.815  0.00  0.00     0.036 H 
ENDBRANCH  46  50
BRANCH  49  54
ATOM     54  C24 EO1 d   1      15.816  -8.291   5.917  0.00  0.00    -0.033 C 
ATOM     55  H8  EO1 d   1      15.170  -9.092   5.528  0.00  0.00     0.035 H 
ATOM     56  H9  EO1 d   1      16.087  -8.513   6.960  0.00  0.00     0.035 H 
ATOM     57  H10 EO1 d   1      16.729  -8.227   5.306  0.00  0.00     0.035 H 
ENDBRANCH  49  54
ENDBRANCH   1  45
TORSDOF 9
