REMARK  8 active torsions:
REMARK  status: ('A' for Active; 'I' for Inactive)
REMARK    1  A    between atoms: C1'_23  and  N9_1 
REMARK    2  A    between atoms: C6_5  and  N6_6 
REMARK    3  A    between atoms: S_12  and  N_11 
REMARK    4  A    between atoms: O5'_15  and  S_12 
REMARK    5  A    between atoms: C5'_16  and  O5'_15 
REMARK    6  A    between atoms: C4'_17  and  C5'_16 
REMARK    7  A    between atoms: C3'_19  and  O3'_20 
REMARK    8  A    between atoms: C2'_21  and  O2'_22 
ROOT
ATOM      1  C4' LMS d   1      -4.758   3.716  14.564  0.00  0.00     0.090 C 
ATOM      2  O4' LMS d   1      -3.863   4.736  14.967  0.00  0.00    -0.353 OA
ATOM      3  C3' LMS d   1      -4.853   3.894  13.079  0.00  0.00     0.091 C 
ATOM      4  C2' LMS d   1      -4.963   5.395  12.964  0.00  0.00     0.105 C 
ATOM      5  C1' LMS d   1      -4.042   5.854  14.102  0.00  0.00     0.139 C 
ATOM      6  H9  LMS d   1      -5.747   3.844  15.027  0.00  0.00     0.090 H 
ATOM      7  H10 LMS d   1      -3.944   3.524  12.582  0.00  0.00     0.091 H 
ATOM      8  H12 LMS d   1      -4.615   5.758  11.986  0.00  0.00     0.093 H 
ATOM      9  H14 LMS d   1      -4.548   6.664  14.648  0.00  0.00     0.122 H 
ENDROOT
BRANCH   5  10
ATOM     10  N9  LMS d   1      -2.723   6.349  13.685  0.00  0.00    -0.294 N 
ATOM     11  C8  LMS d   1      -1.866   5.757  12.810  0.00  0.00     0.071 A 
ATOM     12  N7  LMS d   1      -0.782   6.444  12.598  0.00  0.00    -0.236 NA
ATOM     13  H1  LMS d   1      -2.068   4.799  12.333  0.00  0.00     0.144 H 
ATOM     14  C5  LMS d   1      -0.925   7.560  13.411  0.00  0.00     0.149 A 
ATOM     15  C6  LMS d   1      -0.129   8.668  13.685  0.00  0.00     0.155 A 
ATOM     16  C4  LMS d   1      -2.119   7.510  14.089  0.00  0.00     0.167 A 
ATOM     17  N1  LMS d   1      -0.537   9.571  14.556  0.00  0.00    -0.222 NA
ATOM     18  C2  LMS d   1      -1.724   9.385  15.136  0.00  0.00     0.091 A 
ATOM     19  N3  LMS d   1      -2.588   8.386  14.979  0.00  0.00    -0.222 NA
ATOM     20  H4  LMS d   1      -2.027  10.157  15.834  0.00  0.00     0.146 H 
BRANCH  15  21
ATOM     21  N6  LMS d   1       1.092   8.841  13.081  0.00  0.00    -0.382 N 
ATOM     22  H2  LMS d   1       1.663   9.670  13.301  0.00  0.00     0.157 HD
ATOM     23  H3  LMS d   1       1.437   8.142  12.408  0.00  0.00     0.157 HD
ENDBRANCH  15  21
ENDBRANCH   5  10
BRANCH   4  24
ATOM     24  O2' LMS d   1      -6.304   5.818  13.191  0.00  0.00    -0.388 OA
ATOM     25  H13 LMS d   1      -6.354   6.764  13.115  0.00  0.00     0.210 HD
ENDBRANCH   4  24
BRANCH   1  26
ATOM     26  C5' LMS d   1      -4.176   2.376  14.981  0.00  0.00     0.066 C 
ATOM     27  H7  LMS d   1      -4.692   1.576  14.430  0.00  0.00     0.080 H 
ATOM     28  H8  LMS d   1      -3.104   2.360  14.734  0.00  0.00     0.080 H 
BRANCH  26  29
ATOM     29  O5' LMS d   1      -4.333   2.148  16.391  0.00  0.00    -0.257 OA
BRANCH  29  30
ATOM     30  S   LMS d   1      -5.544   1.218  16.877  0.00  0.00     0.355 S 
ATOM     31  O1P LMS d   1      -5.328   1.263  18.276  0.00  0.00    -0.176 OA
ATOM     32  O2P LMS d   1      -6.748   1.737  16.349  0.00  0.00    -0.176 OA
BRANCH  30  33
ATOM     33  N   LMS d   1      -5.267  -0.197  16.261  0.00  0.00    -0.306 N 
ATOM     34  H5  LMS d   1      -5.902  -0.950  16.433  0.00  0.00     0.171 HD
ATOM     35  H6  LMS d   1      -4.456  -0.346  15.696  0.00  0.00     0.171 HD
ENDBRANCH  30  33
ENDBRANCH  29  30
ENDBRANCH  26  29
ENDBRANCH   1  26
BRANCH   3  36
ATOM     36  O3' LMS d   1      -5.997   3.237  12.505  0.00  0.00    -0.390 OA
ATOM     37  H11 LMS d   1      -6.006   3.383  11.566  0.00  0.00     0.210 HD
ENDBRANCH   3  36
TORSDOF 8
