REMARK  8 active torsions:
REMARK  status: ('A' for Active; 'I' for Inactive)
REMARK    1  A    between atoms: C6_5  and  C19_14 
REMARK    2  A    between atoms: C20_7  and  C21_8 
REMARK    3  A    between atoms: C24_10  and  C27_19 
REMARK    4  A    between atoms: C1'_13  and  N9_28 
REMARK    5  A    between atoms: C2'_16  and  O2'_29 
REMARK    6  A    between atoms: C3'_21  and  O3'_30 
REMARK    7  A    between atoms: C4'_25  and  C5'_26 
REMARK    8  A    between atoms: C5'_26  and  O5'_32 
ROOT
ATOM      1  N1  ERP d   1       1.854   3.891  11.208  0.00  0.00    -0.230 NA
ATOM      2  N3  ERP d   1       1.686   5.665   9.788  0.00  0.00    -0.222 NA
ATOM      3  C4  ERP d   1       2.944   6.016  10.010  0.00  0.00     0.166 A 
ATOM      4  C5  ERP d   1       3.693   5.279  10.843  0.00  0.00     0.141 A 
ATOM      5  C6  ERP d   1       3.092   4.151  11.456  0.00  0.00     0.144 A 
ATOM      6  C8  ERP d   1       4.863   6.869  10.091  0.00  0.00     0.070 A 
ATOM      7  C2  ERP d   1       1.156   4.629  10.398  0.00  0.00     0.090 A 
ATOM      8  N7  ERP d   1       4.867   5.834  10.863  0.00  0.00    -0.237 NA
ATOM      9  N9  ERP d   1       3.697   7.008   9.578  0.00  0.00    -0.294 N 
ATOM     10  H1  ERP d   1       5.715   7.521   9.905  0.00  0.00     0.144 H 
ATOM     11  H6  ERP d   1       0.115   4.385  10.222  0.00  0.00     0.146 H 
ENDROOT
BRANCH   5  12
ATOM     12  C19 ERP d   1       3.937   3.256  12.438  0.00  0.00    -0.039 C 
ATOM     13  C20 ERP d   1       4.555   2.604  13.154  0.00  0.00    -0.060 C 
BRANCH  13  14
ATOM     14  C21 ERP d   1       5.392   1.721  14.122  0.00  0.00     0.018 A 
ATOM     15  C22 ERP d   1       4.860   0.524  14.614  0.00  0.00    -0.064 A 
ATOM     16  C23 ERP d   1       5.617  -0.274  15.490  0.00  0.00    -0.071 A 
ATOM     17  H2  ERP d   1       3.864   0.212  14.320  0.00  0.00     0.085 H 
ATOM     18  C24 ERP d   1       6.876   0.122  15.863  0.00  0.00    -0.026 A 
ATOM     19  H8  ERP d   1       5.206  -1.202  15.870  0.00  0.00     0.084 H 
ATOM     20  C25 ERP d   1       7.407   1.314  15.375  0.00  0.00    -0.071 A 
ATOM     21  C26 ERP d   1       6.648   2.116  14.494  0.00  0.00    -0.064 A 
ATOM     22  H9  ERP d   1       8.402   1.626  15.671  0.00  0.00     0.084 H 
ATOM     23  H3  ERP d   1       7.060   3.043  14.113  0.00  0.00     0.085 H 
BRANCH  18  24
ATOM     24  C27 ERP d   1       7.705  -0.755  16.826  0.00  0.00    -0.026 A 
ATOM     25  C28 ERP d   1       7.669  -0.513  18.180  0.00  0.00    -0.072 A 
ATOM     26  C29 ERP d   1       8.404  -1.289  19.033  0.00  0.00    -0.082 A 
ATOM     27  H4  ERP d   1       7.058   0.293  18.570  0.00  0.00     0.084 H 
ATOM     28  C30 ERP d   1       9.198  -2.340  18.524  0.00  0.00    -0.083 A 
ATOM     29  H10 ERP d   1       8.377  -1.097  20.100  0.00  0.00     0.083 H 
ATOM     30  C31 ERP d   1       9.233  -2.583  17.167  0.00  0.00    -0.082 A 
ATOM     31  H12 ERP d   1       9.780  -2.956  19.200  0.00  0.00     0.083 H 
ATOM     32  C32 ERP d   1       8.501  -1.807  16.316  0.00  0.00    -0.072 A 
ATOM     33  H13 ERP d   1       9.842  -3.390  16.776  0.00  0.00     0.083 H 
ATOM     34  H14 ERP d   1       8.530  -1.997  15.249  0.00  0.00     0.084 H 
ENDBRANCH  18  24
ENDBRANCH  13  14
ENDBRANCH   5  12
BRANCH   9  35
ATOM     35  C1' ERP d   1       3.322   7.934   8.597  0.00  0.00     0.139 C 
ATOM     36  C2' ERP d   1       3.952   9.418   8.617  0.00  0.00     0.105 C 
ATOM     37  C3' ERP d   1       4.374   9.669   7.447  0.00  0.00     0.091 C 
ATOM     38  H7  ERP d   1       4.792   9.505   9.322  0.00  0.00     0.093 H 
ATOM     39  C4' ERP d   1       4.060   8.439   6.586  0.00  0.00     0.088 C 
ATOM     40  H11 ERP d   1       5.461   9.820   7.521  0.00  0.00     0.091 H 
ATOM     41  O4' ERP d   1       3.906   7.416   7.628  0.00  0.00    -0.353 OA
ATOM     42  H15 ERP d   1       3.135   8.563   6.003  0.00  0.00     0.090 H 
ATOM     43  H5  ERP d   1       2.227   7.986   8.502  0.00  0.00     0.122 H 
BRANCH  36  44
ATOM     44  O2' ERP d   1       2.847  10.151   9.089  0.00  0.00    -0.388 OA
ATOM     45  H18 ERP d   1       3.062  11.076   9.095  0.00  0.00     0.210 HD
ENDBRANCH  36  44
BRANCH  37  46
ATOM     46  O3' ERP d   1       3.823  10.786   6.679  0.00  0.00    -0.390 OA
ATOM     47  H19 ERP d   1       3.977  11.598   7.148  0.00  0.00     0.210 HD
ENDBRANCH  37  46
BRANCH  39  48
ATOM     48  C5' ERP d   1       5.127   8.188   5.728  0.00  0.00     0.043 C 
ATOM     49  H16 ERP d   1       5.957   7.750   6.301  0.00  0.00     0.078 H 
ATOM     50  H17 ERP d   1       5.455   9.134   5.272  0.00  0.00     0.078 H 
BRANCH  48  51
ATOM     51  O5' ERP d   1       4.745   7.298   4.719  0.00  0.00    -0.398 OA
ATOM     52  H20 ERP d   1       4.029   7.675   4.221  0.00  0.00     0.209 HD
ENDBRANCH  48  51
ENDBRANCH  39  48
ENDBRANCH   9  35
TORSDOF 8
