REMARK  7 active torsions:
REMARK  status: ('A' for Active; 'I' for Inactive)
REMARK    1  A    between atoms: N19_23  and  C6_5 
REMARK    2  A    between atoms: N9_26  and  C1'_12 
REMARK    3  A    between atoms: C2'_14  and  O2'_27 
REMARK    4  A    between atoms: C25_16  and  N22_24 
REMARK    5  A    between atoms: C3'_19  and  O3'_28 
REMARK    6  A    between atoms: C4'_21  and  C5'_22 
REMARK    7  A    between atoms: C5'_22  and  O5'_30 
ROOT
ATOM      1  N1  ERS d   1       2.942  -2.488  11.339  0.00  0.00    -0.222 NA
ATOM      2  N3  ERS d   1       4.727  -2.329   9.837  0.00  0.00    -0.222 NA
ATOM      3  C4  ERS d   1       5.100  -3.618  10.085  0.00  0.00     0.167 A 
ATOM      4  C5  ERS d   1       4.412  -4.369  10.988  0.00  0.00     0.149 A 
ATOM      5  C6  ERS d   1       3.271  -3.751  11.629  0.00  0.00     0.160 A 
ATOM      6  C8  ERS d   1       6.022  -5.607  10.178  0.00  0.00     0.071 A 
ATOM      7  C2  ERS d   1       3.656  -1.813  10.446  0.00  0.00     0.091 A 
ATOM      8  N7  ERS d   1       5.001  -5.615  11.028  0.00  0.00    -0.236 NA
ATOM      9  N9  ERS d   1       6.120  -4.371   9.613  0.00  0.00    -0.294 N 
ATOM     10  H1  ERS d   1       6.675  -6.452   9.967  0.00  0.00     0.144 H 
ATOM     11  H11 ERS d   1       3.357  -0.800  10.201  0.00  0.00     0.146 H 
ENDROOT
BRANCH   5  12
ATOM     12  N19 ERS d   1       2.463  -4.461  12.585  0.00  0.00    -0.361 N 
ATOM     13  C20 ERS d   1       2.773  -5.803  13.032  0.00  0.00     0.011 C 
ATOM     14  C21 ERS d   1       2.323  -5.968  14.490  0.00  0.00     0.010 C 
ATOM     15  H2  ERS d   1       2.245  -6.532  12.400  0.00  0.00     0.066 H 
ATOM     16  H3  ERS d   1       3.857  -5.973  12.961  0.00  0.00     0.066 H 
ATOM     17  N22 ERS d   1       0.918  -5.584  14.709  0.00  0.00    -0.378 N 
ATOM     18  H4  ERS d   1       2.961  -5.338  15.127  0.00  0.00     0.066 H 
ATOM     19  H5  ERS d   1       2.446  -7.023  14.777  0.00  0.00     0.066 H 
ATOM     20  C23 ERS d   1       0.680  -4.229  14.237  0.00  0.00     0.010 C 
ATOM     21  C24 ERS d   1       1.054  -4.100  12.761  0.00  0.00     0.011 C 
ATOM     22  H13 ERS d   1      -0.385  -3.984  14.363  0.00  0.00     0.066 H 
ATOM     23  H14 ERS d   1       1.289  -3.529  14.827  0.00  0.00     0.066 H 
ATOM     24  H6  ERS d   1       0.897  -3.062  12.431  0.00  0.00     0.066 H 
ATOM     25  H7  ERS d   1       0.424  -4.774  12.162  0.00  0.00     0.066 H 
BRANCH  17  26
ATOM     26  C25 ERS d   1      -0.136  -6.590  14.545  0.00  0.00     0.030 A 
ATOM     27  C26 ERS d   1      -1.337  -6.239  13.941  0.00  0.00    -0.057 A 
ATOM     28  C27 ERS d   1      -2.316  -7.198  13.782  0.00  0.00    -0.081 A 
ATOM     29  H8  ERS d   1      -1.503  -5.224  13.599  0.00  0.00     0.086 H 
ATOM     30  C28 ERS d   1      -2.083  -8.508  14.248  0.00  0.00    -0.083 A 
ATOM     31  H15 ERS d   1      -3.256  -6.947  13.303  0.00  0.00     0.083 H 
ATOM     32  C29 ERS d   1      -0.879  -8.848  14.858  0.00  0.00    -0.081 A 
ATOM     33  H9  ERS d   1      -2.853  -9.262  14.130  0.00  0.00     0.083 H 
ATOM     34  C30 ERS d   1       0.102  -7.900  15.019  0.00  0.00    -0.057 A 
ATOM     35  H16 ERS d   1      -0.715  -9.861  15.206  0.00  0.00     0.083 H 
ATOM     36  H18 ERS d   1       1.040  -8.152  15.500  0.00  0.00     0.086 H 
ENDBRANCH  17  26
ENDBRANCH   5  12
BRANCH   9  37
ATOM     37  C1' ERS d   1       7.030  -3.957   8.553  0.00  0.00     0.139 C 
ATOM     38  C2' ERS d   1       8.480  -4.448   8.676  0.00  0.00     0.105 C 
ATOM     39  C3' ERS d   1       8.845  -4.897   7.231  0.00  0.00     0.091 C 
ATOM     40  H12 ERS d   1       8.524  -5.319   9.346  0.00  0.00     0.093 H 
ATOM     41  C4' ERS d   1       7.588  -4.609   6.419  0.00  0.00     0.088 C 
ATOM     42  H17 ERS d   1       9.087  -5.970   7.215  0.00  0.00     0.091 H 
ATOM     43  O4' ERS d   1       6.528  -4.566   7.372  0.00  0.00    -0.353 OA
ATOM     44  H19 ERS d   1       7.693  -3.641   5.908  0.00  0.00     0.090 H 
ATOM     45  H10 ERS d   1       7.023  -2.860   8.476  0.00  0.00     0.122 H 
BRANCH  38  46
ATOM     46  O2' ERS d   1       9.313  -3.453   9.213  0.00  0.00    -0.388 OA
ATOM     47  H22 ERS d   1      10.207  -3.772   9.243  0.00  0.00     0.210 HD
ENDBRANCH  38  46
BRANCH  39  48
ATOM     48  O3' ERS d   1       9.948  -4.153   6.683  0.00  0.00    -0.390 OA
ATOM     49  H23 ERS d   1      10.732  -4.332   7.189  0.00  0.00     0.210 HD
ENDBRANCH  39  48
BRANCH  41  50
ATOM     50  C5' ERS d   1       7.257  -5.674   5.396  0.00  0.00     0.043 C 
ATOM     51  H20 ERS d   1       7.018  -6.612   5.918  0.00  0.00     0.078 H 
ATOM     52  H21 ERS d   1       8.129  -5.829   4.743  0.00  0.00     0.078 H 
BRANCH  50  53
ATOM     53  O5' ERS d   1       6.137  -5.284   4.597  0.00  0.00    -0.398 OA
ATOM     54  H24 ERS d   1       6.340  -4.475   4.142  0.00  0.00     0.209 HD
ENDBRANCH  50  53
ENDBRANCH  41  50
ENDBRANCH   9  37
TORSDOF 7
