REMARK  4 active torsions:
REMARK  status: ('A' for Active; 'I' for Inactive)
REMARK    1  A    between atoms: C14_1  and  C20_7 
REMARK    2  A    between atoms: C17_4  and  O28_15 
REMARK    3  A    between atoms: C18_5  and  C25_12 
REMARK    4  A    between atoms: O28_15  and  C29_16 
ROOT
ATOM      1  C14 EWD d   1      12.970   9.770   2.904  0.00  0.00    -0.022 A 
ATOM      2  C15 EWD d   1      12.894  10.155   1.567  0.00  0.00    -0.069 A 
ATOM      3  C16 EWD d   1      11.682  10.109   0.872  0.00  0.00    -0.048 A 
ATOM      4  C17 EWD d   1      10.523   9.679   1.516  0.00  0.00     0.093 A 
ATOM      5  C18 EWD d   1      10.619   9.282   2.849  0.00  0.00     0.075 A 
ATOM      6  C19 EWD d   1      11.824   9.329   3.540  0.00  0.00    -0.053 A 
ATOM      7  H1  EWD d   1      13.789  10.495   1.058  0.00  0.00     0.085 H 
ATOM      8  H2  EWD d   1      11.643  10.408  -0.169  0.00  0.00     0.087 H 
ATOM      9  H3  EWD d   1      11.866   9.020   4.578  0.00  0.00     0.086 H 
ENDROOT
BRANCH   4  10
ATOM     10  O28 EWD d   1       9.315   9.595   0.841  0.00  0.00    -0.310 OA
BRANCH  10  11
ATOM     11  C29 EWD d   1       8.518  10.623   0.367  0.00  0.00     0.076 A 
ATOM     12  C30 EWD d   1       8.485  11.891   0.965  0.00  0.00    -0.050 A 
ATOM     13  C31 EWD d   1       7.653  12.883   0.442  0.00  0.00    -0.080 A 
ATOM     14  H7  EWD d   1       9.103  12.100   1.830  0.00  0.00     0.087 H 
ATOM     15  C32 EWD d   1       6.851  12.614  -0.670  0.00  0.00    -0.083 A 
ATOM     16  H8  EWD d   1       7.629  13.865   0.900  0.00  0.00     0.083 H 
ATOM     17  C33 EWD d   1       6.873  11.354  -1.262  0.00  0.00    -0.080 A 
ATOM     18  H9  EWD d   1       6.209  13.389  -1.073  0.00  0.00     0.083 H 
ATOM     19  C34 EWD d   1       7.699  10.361  -0.739  0.00  0.00    -0.050 A 
ATOM     20  H10 EWD d   1       6.251  11.147  -2.125  0.00  0.00     0.083 H 
ATOM     21  H11 EWD d   1       7.708   9.376  -1.192  0.00  0.00     0.087 H 
ENDBRANCH  10  11
ENDBRANCH   4  10
BRANCH   5  22
ATOM     22  C25 EWD d   1       9.426   8.814   3.617  0.00  0.00     0.212 C 
ATOM     23  O26 EWD d   1       9.115   7.607   3.572  0.00  0.00    -0.644 OA
ATOM     24  O27 EWD d   1       8.802   9.657   4.299  0.00  0.00    -0.644 OA
ENDBRANCH   5  22
BRANCH   1  25
ATOM     25  C20 EWD d   1      14.263   9.815   3.638  0.00  0.00     0.010 A 
ATOM     26  C21 EWD d   1      14.439  10.011   5.001  0.00  0.00     0.008 A 
ATOM     27  N22 EWD d   1      15.761   9.984   5.275  0.00  0.00    -0.289 N 
ATOM     28  H4  EWD d   1      13.643  10.162   5.729  0.00  0.00     0.115 H 
ATOM     29  N23 EWD d   1      16.404   9.761   4.060  0.00  0.00    -0.187 NA
ATOM     30  H5  EWD d   1      16.204  10.104   6.197  0.00  0.00     0.188 HD
ATOM     31  C24 EWD d   1      15.512   9.656   3.068  0.00  0.00     0.034 A 
ATOM     32  H6  EWD d   1      15.728   9.479   2.015  0.00  0.00     0.118 H 
ENDBRANCH   1  25
TORSDOF 4
