REMARK  2 active torsions:
REMARK  status: ('A' for Active; 'I' for Inactive)
REMARK    1  A    between atoms: C2_1  and  C13_6 
REMARK    2  A    between atoms: C15_8  and  C19_12 
ROOT
ATOM      1  C13 EWG d   1     -35.132 -13.257   6.699  0.00  0.00    -0.022 A 
ATOM      2  C14 EWG d   1     -36.400 -12.687   6.688  0.00  0.00    -0.056 A 
ATOM      3  C15 EWG d   1     -37.514 -13.503   6.482  0.00  0.00     0.041 A 
ATOM      4  C16 EWG d   1     -37.391 -14.884   6.293  0.00  0.00    -0.066 A 
ATOM      5  C17 EWG d   1     -36.119 -15.436   6.306  0.00  0.00    -0.081 A 
ATOM      6  C18 EWG d   1     -35.003 -14.621   6.489  0.00  0.00    -0.072 A 
ATOM      7  H4  EWG d   1     -36.522 -11.620   6.838  0.00  0.00     0.086 H 
ATOM      8  H5  EWG d   1     -38.266 -15.505   6.141  0.00  0.00     0.085 H 
ATOM      9  H6  EWG d   1     -35.992 -16.504   6.173  0.00  0.00     0.083 H 
ATOM     10  H7  EWG d   1     -34.014 -15.063   6.467  0.00  0.00     0.084 H 
ENDROOT
BRANCH   1  11
ATOM     11  C2  EWG d   1     -33.916 -12.421   6.862  0.00  0.00     0.010 A 
ATOM     12  C3  EWG d   1     -32.611 -12.871   6.862  0.00  0.00     0.034 A 
ATOM     13  N4  EWG d   1     -31.827 -11.809   6.974  0.00  0.00    -0.187 NA
ATOM     14  H1  EWG d   1     -32.286 -13.908   6.784  0.00  0.00     0.118 H 
ATOM     15  N5  EWG d   1     -32.574 -10.654   7.017  0.00  0.00    -0.289 N 
ATOM     16  C6  EWG d   1     -33.869 -11.038   6.942  0.00  0.00     0.008 A 
ATOM     17  H3  EWG d   1     -32.218  -9.690   7.091  0.00  0.00     0.188 HD
ATOM     18  H2  EWG d   1     -34.730 -10.372   6.944  0.00  0.00     0.115 H 
ENDBRANCH   1  11
BRANCH   3  19
ATOM     19  C19 EWG d   1     -38.866 -12.925   6.498  0.00  0.00     0.209 C 
ATOM     20  O20 EWG d   1     -39.803 -13.501   5.928  0.00  0.00    -0.644 OA
ATOM     21  O21 EWG d   1     -39.021 -11.804   7.193  0.00  0.00    -0.644 OA
ENDBRANCH   3  19
TORSDOF 2
