REMARK  17 active torsions:
REMARK  status: ('A' for Active; 'I' for Inactive)
REMARK    1  A    between atoms: C53_3  and  N54_4 
REMARK    2  A    between atoms: N54_4  and  C55_5 
REMARK    3  A    between atoms: S8_14  and  C5_11 
REMARK    4  A    between atoms: N11_17  and  S8_14 
REMARK    5  A    between atoms: N11_17  and  C12_18 
REMARK    6  A    between atoms: C16_22  and  N11_17 
REMARK    7  A    between atoms: C12_18  and  C13_19 
REMARK    8  A    between atoms: C13_19  and  C14_20 
REMARK    9  A    between atoms: C13_19  and  C15_21 
REMARK   10  A    between atoms: C17_23  and  C16_22 
REMARK   11  A    between atoms: C17_23  and  O18_24 
REMARK   12  A    between atoms: C19_25  and  C17_23 
REMARK   13  A    between atoms: C19_25  and  N20_26 
REMARK   14  A    between atoms: C32_41  and  C19_25 
REMARK       I    between atoms: N20_26  and  C21_27 
REMARK   15  A    between atoms: C21_27  and  O23_29 
REMARK   16  A    between atoms: O23_29  and  C24_30 
REMARK   17  A    between atoms: C38_47  and  C32_41 
ROOT
ATOM      1  C17 GR8 d   1      15.939  24.132  18.407  0.00  0.00     0.071 C 
ATOM      2  H21 GR8 d   1      15.846  24.306  17.325  0.00  0.00     0.088 H 
ENDROOT
BRANCH   1   3
ATOM      3  C16 GR8 d   1      15.028  22.950  18.751  0.00  0.00     0.031 C 
ATOM      4  H19 GR8 d   1      15.220  22.643  19.790  0.00  0.00     0.069 H 
ATOM      5  H20 GR8 d   1      13.980  23.267  18.651  0.00  0.00     0.069 H 
BRANCH   3   6
ATOM      6  N11 GR8 d   1      15.262  21.816  17.874  0.00  0.00    -0.304 N 
BRANCH   6   7
ATOM      7  S8  GR8 d   1      15.841  20.456  18.590  0.00  0.00     0.261 S 
ATOM      8  O9  GR8 d   1      16.703  20.895  19.674  0.00  0.00    -0.200 OA
ATOM      9  O10 GR8 d   1      16.459  19.652  17.515  0.00  0.00    -0.200 OA
BRANCH   7  10
ATOM     10  C5  GR8 d   1      14.512  19.532  19.262  0.00  0.00     0.081 A 
ATOM     11  C4  GR8 d   1      13.865  18.597  18.461  0.00  0.00    -0.041 A 
ATOM     12  C3  GR8 d   1      12.780  17.970  18.948  0.00  0.00     0.038 A 
ATOM     13  H7  GR8 d   1      14.229  18.378  17.463  0.00  0.00     0.088 H 
ATOM     14  S51 GR8 d   1      11.724  16.809  18.167  0.00  0.00    -0.050 SA
ATOM     15  C2  GR8 d   1      12.290  18.184  20.231  0.00  0.00     0.077 A 
ATOM     16  C53 GR8 d   1      10.779  16.664  19.643  0.00  0.00     0.168 A 
ATOM     17  N52 GR8 d   1      11.237  17.457  20.566  0.00  0.00    -0.224 NA
ATOM     18  C7  GR8 d   1      12.988  19.030  21.028  0.00  0.00    -0.052 A 
ATOM     19  C6  GR8 d   1      14.072  19.770  20.560  0.00  0.00    -0.058 A 
ATOM     20  H9  GR8 d   1      12.692  19.134  22.066  0.00  0.00     0.087 H 
ATOM     21  H8  GR8 d   1      14.557  20.508  21.188  0.00  0.00     0.086 H 
BRANCH  16  22
ATOM     22  N54 GR8 d   1       9.755  15.870  19.761  0.00  0.00    -0.364 N 
ATOM     23  H1  GR8 d   1       9.205  15.882  20.632  0.00  0.00     0.162 HD
BRANCH  22  24
ATOM     24  C55 GR8 d   1       9.371  14.964  18.686  0.00  0.00     0.011 A 
ATOM     25  C56 GR8 d   1       7.854  14.921  18.550  0.00  0.00    -0.044 A 
ATOM     26  C57 GR8 d   1       8.684  15.609  17.501  0.00  0.00    -0.044 A 
ATOM     27  H3  GR8 d   1       7.224  15.514  19.229  0.00  0.00     0.036 H 
ATOM     28  H4  GR8 d   1       7.349  13.972  18.317  0.00  0.00     0.036 H 
ATOM     29  H5  GR8 d   1       8.783  15.163  16.500  0.00  0.00     0.036 H 
ATOM     30  H6  GR8 d   1       8.657  16.705  17.413  0.00  0.00     0.036 H 
ATOM     31  H2  GR8 d   1      10.030  14.089  18.587  0.00  0.00     0.072 H 
ENDBRANCH  22  24
ENDBRANCH  16  22
ENDBRANCH   7  10
ENDBRANCH   6   7
BRANCH   6  32
ATOM     32  C12 GR8 d   1      14.301  21.627  16.804  0.00  0.00     0.008 C 
ATOM     33  H10 GR8 d   1      13.287  21.717  17.221  0.00  0.00     0.066 H 
ATOM     34  H11 GR8 d   1      14.436  20.620  16.383  0.00  0.00     0.066 H 
BRANCH  32  35
ATOM     35  C13 GR8 d   1      14.463  22.662  15.671  0.00  0.00    -0.045 C 
ATOM     36  H12 GR8 d   1      14.334  23.682  16.061  0.00  0.00     0.041 H 
BRANCH  35  37
ATOM     37  C14 GR8 d   1      15.875  22.499  15.092  0.00  0.00    -0.072 C 
ATOM     38  H13 GR8 d   1      16.024  23.225  14.279  0.00  0.00     0.028 H 
ATOM     39  H14 GR8 d   1      15.995  21.479  14.699  0.00  0.00     0.028 H 
ATOM     40  H15 GR8 d   1      16.619  22.677  15.883  0.00  0.00     0.028 H 
ENDBRANCH  35  37
BRANCH  35  41
ATOM     41  C15 GR8 d   1      13.400  22.375  14.609  0.00  0.00    -0.072 C 
ATOM     42  H16 GR8 d   1      12.399  22.499  15.049  0.00  0.00     0.028 H 
ATOM     43  H17 GR8 d   1      13.515  21.344  14.244  0.00  0.00     0.028 H 
ATOM     44  H18 GR8 d   1      13.521  23.076  13.770  0.00  0.00     0.028 H 
ENDBRANCH  35  41
ENDBRANCH  32  35
ENDBRANCH   6  32
ENDBRANCH   3   6
ENDBRANCH   1   3
BRANCH   1  45
ATOM     45  O18 GR8 d   1      15.496  25.317  19.071  0.00  0.00    -0.392 OA
ATOM     46  H22 GR8 d   1      15.513  25.177  20.011  0.00  0.00     0.210 HD
ENDBRANCH   1  45
BRANCH   1  47
ATOM     47  C19 GR8 d   1      17.402  23.865  18.686  0.00  0.00     0.044 C 
ATOM     48  H23 GR8 d   1      17.626  22.850  18.326  0.00  0.00     0.077 H 
BRANCH  47  49
ATOM     49  N20 GR8 d   1      18.240  24.809  17.921  0.00  0.00    -0.329 N 
ATOM     50  C21 GR8 d   1      19.235  24.379  17.145  0.00  0.00     0.361 C 
ATOM     51  O22 GR8 d   1      19.354  23.197  16.774  0.00  0.00    -0.238 OA
ATOM     52  H24 GR8 d   1      18.058  25.790  17.986  0.00  0.00     0.165 HD
BRANCH  50  53
ATOM     53  O23 GR8 d   1      20.033  25.343  16.664  0.00  0.00    -0.298 OA
BRANCH  53  54
ATOM     54  C24 GR8 d   1      21.248  24.898  16.063  0.00  0.00     0.054 C 
ATOM     55  C25 GR8 d   1      21.823  25.937  15.138  0.00  0.00    -0.018 C 
ATOM     56  C26 GR8 d   1      22.618  26.899  15.977  0.00  0.00     0.005 C 
ATOM     57  C41 GR8 d   1      20.845  26.622  14.186  0.00  0.00    -0.039 C 
ATOM     58  H26 GR8 d   1      22.538  25.411  14.488  0.00  0.00     0.044 H 
ATOM     59  C27 GR8 d   1      22.011  28.227  16.281  0.00  0.00     0.135 C 
ATOM     60  C30 GR8 d   1      22.758  26.237  17.336  0.00  0.00    -0.023 C 
ATOM     61  H27 GR8 d   1      23.598  27.055  15.501  0.00  0.00     0.048 H 
ATOM     62  O28 GR8 d   1      21.273  28.038  17.506  0.00  0.00    -0.360 OA
ATOM     63  O43 GR8 d   1      21.142  28.752  15.272  0.00  0.00    -0.361 OA
ATOM     64  H28 GR8 d   1      22.820  28.955  16.441  0.00  0.00     0.129 H 
ATOM     65  C29 GR8 d   1      21.952  27.076  18.303  0.00  0.00     0.026 C 
ATOM     66  H29 GR8 d   1      21.229  26.448  18.845  0.00  0.00     0.075 H 
ATOM     67  H30 GR8 d   1      22.617  27.575  19.023  0.00  0.00     0.075 H 
ATOM     68  C42 GR8 d   1      20.146  27.761  14.900  0.00  0.00     0.023 C 
ATOM     69  H36 GR8 d   1      19.645  27.381  15.803  0.00  0.00     0.074 H 
ATOM     70  H37 GR8 d   1      19.401  28.217  14.231  0.00  0.00     0.074 H 
ATOM     71  C31 GR8 d   1      22.329  24.797  17.134  0.00  0.00    -0.034 C 
ATOM     72  H31 GR8 d   1      23.808  26.244  17.666  0.00  0.00     0.044 H 
ATOM     73  H32 GR8 d   1      23.171  24.180  16.787  0.00  0.00     0.037 H 
ATOM     74  H33 GR8 d   1      21.923  24.373  18.064  0.00  0.00     0.037 H 
ATOM     75  H34 GR8 d   1      20.097  25.892  13.844  0.00  0.00     0.036 H 
ATOM     76  H35 GR8 d   1      21.395  27.017  13.319  0.00  0.00     0.036 H 
ATOM     77  H25 GR8 d   1      21.087  23.941  15.546  0.00  0.00     0.085 H 
ENDBRANCH  53  54
ENDBRANCH  50  53
ENDBRANCH  47  49
BRANCH  47  78
ATOM     78  C32 GR8 d   1      17.743  23.901  20.165  0.00  0.00    -0.019 C 
ATOM     79  H38 GR8 d   1      17.147  23.133  20.679  0.00  0.00     0.043 H 
ATOM     80  H39 GR8 d   1      17.480  24.894  20.559  0.00  0.00     0.043 H 
BRANCH  78  81
ATOM     81  C38 GR8 d   1      19.201  23.644  20.450  0.00  0.00    -0.050 C 
ATOM     82  C33 GR8 d   1      20.088  24.631  20.811  0.00  0.00    -0.039 C 
ATOM     83  C34 GR8 d   1      21.460  24.379  20.882  0.00  0.00     0.119 C 
ATOM     84  H40 GR8 d   1      19.716  25.622  21.045  0.00  0.00     0.089 H 
ATOM     85  C35 GR8 d   1      21.966  23.090  20.765  0.00  0.00    -0.009 C 
ATOM     86  F61 GR8 d   1      22.329  25.366  21.210  0.00  0.00    -0.206 F 
ATOM     87  C36 GR8 d   1      21.045  22.130  20.388  0.00  0.00     0.119 C 
ATOM     88  H41 GR8 d   1      23.007  22.854  20.955  0.00  0.00     0.092 H 
ATOM     89  C37 GR8 d   1      19.699  22.377  20.251  0.00  0.00    -0.039 C 
ATOM     90  F62 GR8 d   1      21.519  20.886  20.153  0.00  0.00    -0.206 F 
ATOM     91  H42 GR8 d   1      19.027  21.569  19.985  0.00  0.00     0.089 H 
ENDBRANCH  78  81
ENDBRANCH  47  78
ENDBRANCH   1  47
TORSDOF 17
