REMARK  17 active torsions:
REMARK  status: ('A' for Active; 'I' for Inactive)
REMARK    1  A    between atoms: C53_3  and  N54_4 
REMARK    2  A    between atoms: N54_4  and  C55_5 
REMARK    3  A    between atoms: S8_14  and  C5_11 
REMARK    4  A    between atoms: N11_17  and  S8_14 
REMARK    5  A    between atoms: N11_17  and  C12_18 
REMARK    6  A    between atoms: C16_22  and  N11_17 
REMARK    7  A    between atoms: C12_18  and  C13_19 
REMARK    8  A    between atoms: C13_19  and  C14_20 
REMARK    9  A    between atoms: C13_19  and  C15_21 
REMARK   10  A    between atoms: C17_23  and  C16_22 
REMARK   11  A    between atoms: C17_23  and  O18_24 
REMARK   12  A    between atoms: C19_25  and  C17_23 
REMARK   13  A    between atoms: C19_25  and  N20_26 
REMARK   14  A    between atoms: C32_30  and  C19_25 
REMARK       I    between atoms: N20_26  and  C21_27 
REMARK   15  A    between atoms: C21_27  and  O23_29 
REMARK   16  A    between atoms: O23_29  and  C24_39 
REMARK   17  A    between atoms: C38_36  and  C32_30 
ROOT
ATOM      1  C17 GR5 d   1      15.397  23.915  18.081  0.00  0.00     0.071 C 
ATOM      2  H21 GR5 d   1      15.724  23.452  19.024  0.00  0.00     0.088 H 
ENDROOT
BRANCH   1   3
ATOM      3  C16 GR5 d   1      16.545  24.802  17.596  0.00  0.00     0.031 C 
ATOM      4  H19 GR5 d   1      16.307  25.188  16.594  0.00  0.00     0.069 H 
ATOM      5  H20 GR5 d   1      16.673  25.644  18.292  0.00  0.00     0.069 H 
BRANCH   3   6
ATOM      6  N11 GR5 d   1      17.773  24.042  17.536  0.00  0.00    -0.304 N 
BRANCH   6   7
ATOM      7  S8  GR5 d   1      18.417  23.846  16.048  0.00  0.00     0.261 S 
ATOM      8  O9  GR5 d   1      17.328  23.674  15.104  0.00  0.00    -0.200 OA
ATOM      9  O10 GR5 d   1      19.352  22.691  16.196  0.00  0.00    -0.200 OA
BRANCH   7  10
ATOM     10  C5  GR5 d   1      19.352  25.257  15.639  0.00  0.00     0.081 C 
ATOM     11  C4  GR5 d   1      20.722  25.287  15.918  0.00  0.00    -0.041 C 
ATOM     12  C3  GR5 d   1      21.371  26.408  15.651  0.00  0.00     0.038 A 
ATOM     13  H7  GR5 d   1      21.231  24.426  16.336  0.00  0.00     0.088 H 
ATOM     14  S51 GR5 d   1      23.043  26.784  15.907  0.00  0.00    -0.050 SA
ATOM     15  C2  GR5 d   1      20.833  27.507  15.073  0.00  0.00     0.077 A 
ATOM     16  C53 GR5 d   1      22.913  28.393  15.288  0.00  0.00     0.168 A 
ATOM     17  N52 GR5 d   1      21.660  28.559  14.899  0.00  0.00    -0.224 NA
ATOM     18  C7  GR5 d   1      19.555  27.412  14.632  0.00  0.00    -0.052 C 
ATOM     19  C6  GR5 d   1      18.772  26.310  14.944  0.00  0.00    -0.058 C 
ATOM     20  H9  GR5 d   1      19.138  28.209  14.027  0.00  0.00     0.087 H 
ATOM     21  H8  GR5 d   1      17.729  26.272  14.651  0.00  0.00     0.086 H 
BRANCH  16  22
ATOM     22  N54 GR5 d   1      23.749  29.376  15.163  0.00  0.00    -0.364 N 
ATOM     23  H1  GR5 d   1      23.411  30.214  14.669  0.00  0.00     0.162 HD
BRANCH  22  24
ATOM     24  C55 GR5 d   1      25.103  29.408  15.648  0.00  0.00     0.011 A 
ATOM     25  C56 GR5 d   1      25.430  28.593  16.885  0.00  0.00    -0.044 A 
ATOM     26  C57 GR5 d   1      25.818  28.102  15.494  0.00  0.00    -0.044 A 
ATOM     27  H3  GR5 d   1      24.627  28.091  17.445  0.00  0.00     0.036 H 
ATOM     28  H4  GR5 d   1      26.205  28.938  17.586  0.00  0.00     0.036 H 
ATOM     29  H5  GR5 d   1      26.876  28.087  15.192  0.00  0.00     0.036 H 
ATOM     30  H6  GR5 d   1      25.298  27.240  15.051  0.00  0.00     0.036 H 
ATOM     31  H2  GR5 d   1      25.588  30.377  15.458  0.00  0.00     0.072 H 
ENDBRANCH  22  24
ENDBRANCH  16  22
ENDBRANCH   7  10
ENDBRANCH   6   7
BRANCH   6  32
ATOM     32  C12 GR5 d   1      18.740  24.312  18.590  0.00  0.00     0.008 C 
ATOM     33  H10 GR5 d   1      18.773  25.396  18.773  0.00  0.00     0.066 H 
ATOM     34  H11 GR5 d   1      19.731  23.965  18.261  0.00  0.00     0.066 H 
BRANCH  32  35
ATOM     35  C13 GR5 d   1      18.372  23.595  19.907  0.00  0.00    -0.045 C 
ATOM     36  H12 GR5 d   1      17.390  23.942  20.260  0.00  0.00     0.041 H 
BRANCH  35  37
ATOM     37  C14 GR5 d   1      18.356  22.081  19.711  0.00  0.00    -0.072 C 
ATOM     38  H13 GR5 d   1      18.092  21.591  20.660  0.00  0.00     0.028 H 
ATOM     39  H14 GR5 d   1      19.352  21.742  19.388  0.00  0.00     0.028 H 
ATOM     40  H15 GR5 d   1      17.613  21.818  18.944  0.00  0.00     0.028 H 
ENDBRANCH  35  37
BRANCH  35  41
ATOM     41  C15 GR5 d   1      19.472  23.905  20.960  0.00  0.00    -0.072 C 
ATOM     42  H16 GR5 d   1      19.519  24.990  21.133  0.00  0.00     0.028 H 
ATOM     43  H17 GR5 d   1      20.445  23.551  20.589  0.00  0.00     0.028 H 
ATOM     44  H18 GR5 d   1      19.231  23.393  21.904  0.00  0.00     0.028 H 
ENDBRANCH  35  41
ENDBRANCH  32  35
ENDBRANCH   6  32
ENDBRANCH   3   6
ENDBRANCH   1   3
BRANCH   1  45
ATOM     45  O18 GR5 d   1      14.252  24.719  18.374  0.00  0.00    -0.392 OA
ATOM     46  H22 GR5 d   1      13.982  25.181  17.589  0.00  0.00     0.210 HD
ENDBRANCH   1  45
BRANCH   1  47
ATOM     47  C19 GR5 d   1      15.060  22.772  17.125  0.00  0.00     0.044 C 
ATOM     48  H23 GR5 d   1      15.989  22.311  16.759  0.00  0.00     0.077 H 
BRANCH  47  49
ATOM     49  N20 GR5 d   1      14.259  21.761  17.841  0.00  0.00    -0.329 N 
ATOM     50  C21 GR5 d   1      14.584  20.459  17.800  0.00  0.00     0.361 C 
ATOM     51  O22 GR5 d   1      15.714  20.076  17.479  0.00  0.00    -0.238 OA
ATOM     52  H24 GR5 d   1      13.459  22.051  18.367  0.00  0.00     0.165 HD
BRANCH  50  53
ATOM     53  O23 GR5 d   1      13.564  19.629  18.113  0.00  0.00    -0.298 OA
BRANCH  53  54
ATOM     54  C24 GR5 d   1      13.890  18.241  17.961  0.00  0.00     0.057 C 
ATOM     55  C25 GR5 d   1      12.646  17.431  17.701  0.00  0.00    -0.002 C 
ATOM     56  C26 GR5 d   1      12.079  17.006  19.015  0.00  0.00     0.009 C 
ATOM     57  C41 GR5 d   1      11.692  18.015  16.735  0.00  0.00    -0.075 C 
ATOM     58  H31 GR5 d   1      12.989  16.506  17.215  0.00  0.00     0.051 H 
ATOM     59  C27 GR5 d   1      10.819  17.753  19.394  0.00  0.00     0.140 C 
ATOM     60  C30 GR5 d   1      13.105  17.340  20.083  0.00  0.00    -0.022 C 
ATOM     61  H32 GR5 d   1      11.875  15.925  18.992  0.00  0.00     0.049 H 
ATOM     62  O28 GR5 d   1      11.054  18.164  20.750  0.00  0.00    -0.360 OA
ATOM     63  O43 GR5 d   1      10.689  18.997  18.694  0.00  0.00    -0.332 OA
ATOM     64  H33 GR5 d   1       9.925  17.124  19.275  0.00  0.00     0.130 H 
ATOM     65  C29 GR5 d   1      12.444  18.534  20.763  0.00  0.00     0.026 C 
ATOM     66  H34 GR5 d   1      12.813  18.661  21.791  0.00  0.00     0.075 H 
ATOM     67  H35 GR5 d   1      12.615  19.460  20.195  0.00  0.00     0.075 H 
ATOM     68  C42 GR5 d   1      10.605  18.853  17.293  0.00  0.00     0.012 C 
ATOM     69  H40 GR5 d   1       9.824  19.309  16.686  0.00  0.00     0.122 H 
ATOM     70  C31 GR5 d   1      14.361  17.712  19.314  0.00  0.00    -0.034 C 
ATOM     71  H36 GR5 d   1      13.296  16.517  20.788  0.00  0.00     0.044 H 
ATOM     72  H37 GR5 d   1      14.922  18.489  19.853  0.00  0.00     0.037 H 
ATOM     73  H38 GR5 d   1      15.000  16.827  19.176  0.00  0.00     0.037 H 
ATOM     74  H39 GR5 d   1      11.784  17.838  15.664  0.00  0.00     0.080 H 
ATOM     75  H30 GR5 d   1      14.643  18.101  17.171  0.00  0.00     0.085 H 
ENDBRANCH  53  54
ENDBRANCH  50  53
ENDBRANCH  47  49
BRANCH  47  76
ATOM     76  C32 GR5 d   1      14.253  23.330  15.924  0.00  0.00    -0.019 C 
ATOM     77  H25 GR5 d   1      14.857  24.069  15.377  0.00  0.00     0.043 H 
ATOM     78  H26 GR5 d   1      13.328  23.805  16.282  0.00  0.00     0.043 H 
BRANCH  76  79
ATOM     79  C38 GR5 d   1      13.913  22.154  15.007  0.00  0.00    -0.050 A 
ATOM     80  C33 GR5 d   1      12.591  21.704  14.972  0.00  0.00    -0.039 A 
ATOM     81  C34 GR5 d   1      12.249  20.634  14.183  0.00  0.00     0.119 A 
ATOM     82  H27 GR5 d   1      11.834  22.200  15.569  0.00  0.00     0.089 H 
ATOM     83  C35 GR5 d   1      13.219  19.992  13.411  0.00  0.00    -0.009 A 
ATOM     84  F61 GR5 d   1      10.977  20.180  14.108  0.00  0.00    -0.206 F 
ATOM     85  C36 GR5 d   1      14.512  20.460  13.472  0.00  0.00     0.119 A 
ATOM     86  H28 GR5 d   1      12.961  19.148  12.781  0.00  0.00     0.092 H 
ATOM     87  C37 GR5 d   1      14.914  21.535  14.255  0.00  0.00    -0.039 A 
ATOM     88  F62 GR5 d   1      15.438  19.819  12.734  0.00  0.00    -0.206 F 
ATOM     89  H29 GR5 d   1      15.944  21.873  14.281  0.00  0.00     0.089 H 
ENDBRANCH  76  79
ENDBRANCH  47  76
ENDBRANCH   1  47
TORSDOF 17
