REMARK  30 active torsions:
REMARK  status: ('A' for Active; 'I' for Inactive)
REMARK    1  A    between atoms: N_1  and  CA_2 
REMARK    2  A    between atoms: CA_2  and  C_3 
REMARK    3  A    between atoms: CA_2  and  CB_5 
REMARK       I    between atoms: C_3  and  N_6 
REMARK    4  A    between atoms: N_6  and  CA_7 
REMARK    5  A    between atoms: CA_7  and  C_8 
REMARK    6  A    between atoms: CA_7  and  CB_10 
REMARK       I    between atoms: C_8  and  N_13 
REMARK    7  A    between atoms: CB_10  and  CG1_11 
REMARK    8  A    between atoms: CB_10  and  CG2_12 
REMARK    9  A    between atoms: N_13  and  CA_14 
REMARK   10  A    between atoms: CA_14  and  C_15 
REMARK       I    between atoms: C_15  and  N_17 
REMARK   11  A    between atoms: N_17  and  CA_18 
REMARK   12  A    between atoms: CA_18  and  C_19 
REMARK   13  A    between atoms: CA_18  and  CB_21 
REMARK       I    between atoms: C_19  and  N_25 
REMARK   14  A    between atoms: CB_21  and  CG1_22 
REMARK   15  A    between atoms: CB_21  and  CG2_23 
REMARK   16  A    between atoms: CG1_22  and  CD1_24 
REMARK   17  A    between atoms: N_25  and  CA_26 
REMARK   18  A    between atoms: CA_26  and  C_27 
REMARK       I    between atoms: C_27  and  N_29 
REMARK   19  A    between atoms: N_29  and  CA_30 
REMARK   20  A    between atoms: CA_30  and  C_31 
REMARK   21  A    between atoms: CA_30  and  CB_33 
REMARK       I    between atoms: C_31  and  N_34 
REMARK   22  A    between atoms: N_34  and  CA_35 
REMARK   23  A    between atoms: CA_35  and  C_36 
REMARK   24  A    between atoms: CA_35  and  CB_38 
REMARK       I    between atoms: C_36  and  N_41 
REMARK   25  A    between atoms: CB_38  and  CG1_39 
REMARK   26  A    between atoms: CB_38  and  CG2_40 
REMARK   27  A    between atoms: N_41  and  CA_42 
REMARK   28  A    between atoms: CA_42  and  C_43 
REMARK   29  A    between atoms: CA_42  and  CB_45 
REMARK   30  A    between atoms: CB_45  and  CG_46 
ROOT
ATOM      1  N   GLY d   1      30.389  21.782  19.418  0.00  0.00    -0.351 N 
ATOM      2  H31 GLY d   1      29.442  21.489  19.285  0.00  0.00     0.163 HD
ATOM      3  C   ILE d   1      30.665  23.082  19.457  0.00  0.00     0.241 C 
ATOM      4  O   ILE d   1      31.819  23.502  19.626  0.00  0.00    -0.271 OA
ENDROOT
BRANCH   3   5
ATOM      5  CA  ILE d   1      29.517  24.072  19.280  0.00  0.00     0.092 C 
ATOM      6  H21 ILE d   1      29.842  24.846  18.569  0.00  0.00     0.088 H 
BRANCH   5   7
ATOM      7  N   ILE d   1      28.333  23.429  18.720  0.00  0.00    -0.346 N 
ATOM      8  C   GLY d   1      28.344  23.037  17.442  0.00  0.00     0.236 C 
ATOM      9  O   GLY d   1      29.316  23.209  16.700  0.00  0.00    -0.272 OA
ATOM     10  H20 ILE d   1      27.522  23.283  19.286  0.00  0.00     0.163 HD
BRANCH   8  11
ATOM     11  CA  GLY d   1      27.073  22.406  16.914  0.00  0.00     0.069 C 
ATOM     12  H18 GLY d   1      27.182  21.312  16.876  0.00  0.00     0.078 H 
ATOM     13  H19 GLY d   1      26.224  22.668  17.562  0.00  0.00     0.078 H 
BRANCH  11  14
ATOM     14  N   GLY d   1      26.862  22.934  15.575  0.00  0.00    -0.351 N 
ATOM     15  C   VAL d   1      26.905  22.226  14.457  0.00  0.00     0.241 C 
ATOM     16  O   VAL d   1      27.007  20.994  14.466  0.00  0.00    -0.271 OA
ATOM     17  H17 GLY d   1      26.669  23.912  15.492  0.00  0.00     0.163 HD
BRANCH  15  18
ATOM     18  CA  VAL d   1      26.735  22.999  13.155  0.00  0.00     0.092 C 
ATOM     19  H9  VAL d   1      26.692  22.275  12.328  0.00  0.00     0.088 H 
BRANCH  18  20
ATOM     20  N   VAL d   1      25.476  23.757  13.176  0.00  0.00    -0.346 N 
ATOM     21  C   ALA d   1      24.299  23.131  13.259  0.00  0.00     0.248 C 
ATOM     22  O   ALA d   1      24.193  21.918  13.252  0.00  0.00    -0.271 OA
ATOM     23  H8  VAL d   1      25.501  24.756  13.127  0.00  0.00     0.163 HD
BRANCH  21  24
ATOM     24  CA  ALA d   1      23.046  24.014  13.376  0.00  0.00     0.172 C 
ATOM     25  H4  ALA d   1      23.067  24.756  12.565  0.00  0.00     0.098 H 
BRANCH  24  26
ATOM     26  N   ALA d   1      21.843  23.215  13.238  0.00  0.00    -0.067 N 
ATOM     27  H1  ALA d   1      21.033  23.810  13.317  0.00  0.00     0.275 HD
ATOM     28  H2  ALA d   1      21.819  22.516  13.964  0.00  0.00     0.275 HD
ATOM     29  H3  ALA d   1      21.841  22.764  12.337  0.00  0.00     0.275 HD
ENDBRANCH  24  26
BRANCH  24  30
ATOM     30  CB  ALA d   1      23.038  24.749  14.700  0.00  0.00    -0.042 C 
ATOM     31  H5  ALA d   1      23.955  25.350  14.791  0.00  0.00     0.030 H 
ATOM     32  H6  ALA d   1      22.994  24.021  15.523  0.00  0.00     0.030 H 
ATOM     33  H7  ALA d   1      22.160  25.410  14.747  0.00  0.00     0.030 H 
ENDBRANCH  24  30
ENDBRANCH  21  24
ENDBRANCH  18  20
BRANCH  18  34
ATOM     34  CB  VAL d   1      27.925  23.943  12.906  0.00  0.00    -0.033 C 
ATOM     35  H10 VAL d   1      27.902  24.733  13.671  0.00  0.00     0.042 H 
BRANCH  34  36
ATOM     36  CG1 VAL d   1      29.268  23.173  13.048  0.00  0.00    -0.071 C 
ATOM     37  H11 VAL d   1      30.106  23.862  12.867  0.00  0.00     0.028 H 
ATOM     38  H12 VAL d   1      29.301  22.355  12.314  0.00  0.00     0.028 H 
ATOM     39  H13 VAL d   1      29.347  22.758  14.064  0.00  0.00     0.028 H 
ENDBRANCH  34  36
BRANCH  34  40
ATOM     40  CG2 VAL d   1      27.809  24.605  11.542  0.00  0.00    -0.071 C 
ATOM     41  H14 VAL d   1      26.850  25.140  11.474  0.00  0.00     0.028 H 
ATOM     42  H15 VAL d   1      27.856  23.837  10.756  0.00  0.00     0.028 H 
ATOM     43  H16 VAL d   1      28.636  25.317  11.409  0.00  0.00     0.028 H 
ENDBRANCH  34  40
ENDBRANCH  18  34
ENDBRANCH  15  18
ENDBRANCH  11  14
ENDBRANCH   8  11
ENDBRANCH   5   7
BRANCH   5  44
ATOM     44  CB  ILE d   1      29.212  24.760  20.626  0.00  0.00    -0.030 C 
ATOM     45  H22 ILE d   1      30.116  25.295  20.953  0.00  0.00     0.043 H 
BRANCH  44  46
ATOM     46  CG1 ILE d   1      28.871  23.700  21.672  0.00  0.00    -0.063 C 
ATOM     47  H23 ILE d   1      29.578  22.864  21.566  0.00  0.00     0.033 H 
ATOM     48  H24 ILE d   1      27.848  23.341  21.485  0.00  0.00     0.033 H 
BRANCH  46  49
ATOM     49  CD1 ILE d   1      28.946  24.209  23.073  0.00  0.00    -0.076 C 
ATOM     50  H28 ILE d   1      28.690  23.399  23.772  0.00  0.00     0.027 H 
ATOM     51  H29 ILE d   1      28.237  25.040  23.200  0.00  0.00     0.027 H 
ATOM     52  H30 ILE d   1      29.967  24.563  23.280  0.00  0.00     0.027 H 
ENDBRANCH  46  49
ENDBRANCH  44  46
BRANCH  44  53
ATOM     53  CG2 ILE d   1      28.066  25.792  20.495  0.00  0.00    -0.071 C 
ATOM     54  H25 ILE d   1      28.334  26.543  19.738  0.00  0.00     0.028 H 
ATOM     55  H26 ILE d   1      27.907  26.288  21.464  0.00  0.00     0.028 H 
ATOM     56  H27 ILE d   1      27.142  25.278  20.190  0.00  0.00     0.028 H 
ENDBRANCH  44  53
ENDBRANCH   5  44
ENDBRANCH   3   5
BRANCH   1  57
ATOM     57  CA  GLY d   1      31.425  20.779  19.563  0.00  0.00     0.069 C 
ATOM     58  H32 GLY d   1      31.049  20.003  20.246  0.00  0.00     0.078 H 
ATOM     59  H33 GLY d   1      32.304  21.266  20.009  0.00  0.00     0.078 H 
BRANCH  57  60
ATOM     60  C   GLY d   1      31.872  20.095  18.287  0.00  0.00     0.236 C 
ATOM     61  O   GLY d   1      32.791  19.271  18.335  0.00  0.00    -0.272 OA
ATOM     62  N   ALA d   1      31.292  20.459  17.142  0.00  0.00    -0.347 N 
ATOM     63  H34 ALA d   1      30.710  21.272  17.130  0.00  0.00     0.163 HD
BRANCH  62  64
ATOM     64  CA  ALA d   1      31.481  19.706  15.905  0.00  0.00     0.086 C 
ATOM     65  H35 ALA d   1      31.241  18.652  16.111  0.00  0.00     0.086 H 
BRANCH  64  66
ATOM     66  C   ALA d   1      32.915  19.768  15.389  0.00  0.00     0.240 C 
ATOM     67  O   ALA d   1      33.355  18.846  14.696  0.00  0.00    -0.271 OA
ATOM     68  N   VAL d   1      33.654  20.840  15.697  0.00  0.00    -0.346 N 
ATOM     69  H39 VAL d   1      33.266  21.551  16.283  0.00  0.00     0.163 HD
BRANCH  68  70
ATOM     70  CA  VAL d   1      35.019  20.991  15.192  0.00  0.00     0.092 C 
ATOM     71  H40 VAL d   1      35.049  20.553  14.183  0.00  0.00     0.088 H 
BRANCH  70  72
ATOM     72  C   VAL d   1      36.053  20.285  16.050  0.00  0.00     0.241 C 
ATOM     73  O   VAL d   1      37.253  20.447  15.804  0.00  0.00    -0.271 OA
ATOM     74  N   PHE d   1      35.637  19.537  17.065  0.00  0.00    -0.344 N 
ATOM     75  H48 PHE d   1      34.656  19.451  17.241  0.00  0.00     0.163 HD
BRANCH  74  76
ATOM     76  CA  PHE d   1      36.581  18.838  17.928  0.00  0.00     0.100 C 
ATOM     77  H49 PHE d   1      37.597  19.172  17.672  0.00  0.00     0.090 H 
BRANCH  76  78
ATOM     78  C   PHE d   1      36.492  17.336  17.694  0.00  0.00     0.197 C 
ATOM     79  O   PHE d   1      37.204  16.566  18.334  0.00  0.00    -0.646 OA
ATOM     80  OXT PHE d   1      35.708  16.884  16.864  0.00  0.00    -0.646 OA
ENDBRANCH  76  78
BRANCH  76  81
ATOM     81  CB  PHE d   1      36.325  19.162  19.406  0.00  0.00    -0.013 C 
ATOM     82  H50 PHE d   1      37.148  18.738  20.001  0.00  0.00     0.043 H 
ATOM     83  H51 PHE d   1      35.377  18.692  19.704  0.00  0.00     0.043 H 
BRANCH  81  84
ATOM     84  CG  PHE d   1      36.236  20.645  19.703  0.00  0.00    -0.056 A 
ATOM     85  CD1 PHE d   1      37.322  21.481  19.475  0.00  0.00    -0.077 A 
ATOM     86  CE1 PHE d   1      37.250  22.845  19.739  0.00  0.00    -0.082 A 
ATOM     87  H52 PHE d   1      38.242  21.063  19.084  0.00  0.00     0.084 H 
ATOM     88  CZ  PHE d   1      36.077  23.392  20.251  0.00  0.00    -0.083 A 
ATOM     89  H54 PHE d   1      38.106  23.481  19.546  0.00  0.00     0.083 H 
ATOM     90  CE2 PHE d   1      34.986  22.565  20.494  0.00  0.00    -0.082 A 
ATOM     91  H56 PHE d   1      36.014  24.454  20.459  0.00  0.00     0.083 H 
ATOM     92  CD2 PHE d   1      35.075  21.194  20.221  0.00  0.00    -0.077 A 
ATOM     93  H55 PHE d   1      34.068  22.980  20.894  0.00  0.00     0.083 H 
ATOM     94  H53 PHE d   1      34.223  20.554  20.418  0.00  0.00     0.084 H 
ENDBRANCH  81  84
ENDBRANCH  76  81
ENDBRANCH  74  76
ENDBRANCH  70  72
BRANCH  70  95
ATOM     95  CB  VAL d   1      35.432  22.471  15.098  0.00  0.00    -0.033 C 
ATOM     96  H41 VAL d   1      36.468  22.521  14.730  0.00  0.00     0.042 H 
BRANCH  95  97
ATOM     97  CG1 VAL d   1      34.535  23.229  14.116  0.00  0.00    -0.071 C 
ATOM     98  H42 VAL d   1      34.851  24.282  14.068  0.00  0.00     0.028 H 
ATOM     99  H43 VAL d   1      33.490  23.175  14.457  0.00  0.00     0.028 H 
ATOM    100  H44 VAL d   1      34.619  22.775  13.117  0.00  0.00     0.028 H 
ENDBRANCH  95  97
BRANCH  95 101
ATOM    101  CG2 VAL d   1      35.376  23.113  16.478  0.00  0.00    -0.071 C 
ATOM    102  H45 VAL d   1      36.026  22.555  17.169  0.00  0.00     0.028 H 
ATOM    103  H46 VAL d   1      34.341  23.092  16.851  0.00  0.00     0.028 H 
ATOM    104  H47 VAL d   1      35.721  24.155  16.412  0.00  0.00     0.028 H 
ENDBRANCH  95 101
ENDBRANCH  70  95
ENDBRANCH  68  70
ENDBRANCH  64  66
BRANCH  64 105
ATOM    105  CB  ALA d   1      30.519  20.221  14.829  0.00  0.00    -0.049 C 
ATOM    106  H36 ALA d   1      30.667  19.649  13.901  0.00  0.00     0.030 H 
ATOM    107  H37 ALA d   1      30.717  21.286  14.639  0.00  0.00     0.030 H 
ATOM    108  H38 ALA d   1      29.482  20.097  15.174  0.00  0.00     0.030 H 
ENDBRANCH  64 105
ENDBRANCH  62  64
ENDBRANCH  57  60
ENDBRANCH   1  57
TORSDOF 30
