REMARK  30 active torsions:
REMARK  status: ('A' for Active; 'I' for Inactive)
REMARK    1  A    between atoms: N_1  and  CA_2 
REMARK    2  A    between atoms: CA_2  and  C_3 
REMARK    3  A    between atoms: CA_2  and  CB_5 
REMARK       I    between atoms: C_3  and  N_6 
REMARK    4  A    between atoms: N_6  and  CA_7 
REMARK    5  A    between atoms: CA_7  and  C_8 
REMARK    6  A    between atoms: CA_7  and  CB_10 
REMARK       I    between atoms: C_8  and  N_13 
REMARK    7  A    between atoms: CB_10  and  CG1_11 
REMARK    8  A    between atoms: CB_10  and  CG2_12 
REMARK    9  A    between atoms: N_13  and  CA_14 
REMARK   10  A    between atoms: CA_14  and  C_15 
REMARK       I    between atoms: C_15  and  N_17 
REMARK   11  A    between atoms: N_17  and  CA_18 
REMARK   12  A    between atoms: CA_18  and  C_19 
REMARK   13  A    between atoms: CA_18  and  CB_21 
REMARK       I    between atoms: C_19  and  N_25 
REMARK   14  A    between atoms: CB_21  and  CG1_22 
REMARK   15  A    between atoms: CB_21  and  CG2_23 
REMARK   16  A    between atoms: CG1_22  and  CD1_24 
REMARK   17  A    between atoms: N_25  and  CA_26 
REMARK   18  A    between atoms: CA_26  and  C_27 
REMARK       I    between atoms: C_27  and  N_29 
REMARK   19  A    between atoms: N_29  and  CA_30 
REMARK   20  A    between atoms: CA_30  and  C_31 
REMARK   21  A    between atoms: CA_30  and  CB_33 
REMARK       I    between atoms: C_31  and  N_34 
REMARK   22  A    between atoms: N_34  and  CA_35 
REMARK   23  A    between atoms: CA_35  and  C_36 
REMARK   24  A    between atoms: CA_35  and  CB_38 
REMARK       I    between atoms: C_36  and  N_41 
REMARK   25  A    between atoms: CB_38  and  CG1_39 
REMARK   26  A    between atoms: CB_38  and  CG2_40 
REMARK   27  A    between atoms: N_41  and  CA_42 
REMARK   28  A    between atoms: CA_42  and  C_43 
REMARK   29  A    between atoms: CA_42  and  CB_45 
REMARK   30  A    between atoms: CB_45  and  CG_46 
ROOT
ATOM      1  N   GLY d   1     -65.763 -90.906 -38.650  0.00  0.00    -0.351 N 
ATOM      2  H31 GLY d   1     -66.401 -90.289 -39.111  0.00  0.00     0.163 HD
ATOM      3  C   ILE d   1     -64.453 -90.738 -38.835  0.00  0.00     0.241 C 
ATOM      4  O   ILE d   1     -63.618 -91.514 -38.347  0.00  0.00    -0.271 OA
ENDROOT
BRANCH   3   5
ATOM      5  CA  ILE d   1     -63.967 -89.566 -39.673  0.00  0.00     0.092 C 
ATOM      6  H21 ILE d   1     -63.229 -89.958 -40.388  0.00  0.00     0.088 H 
BRANCH   5   7
ATOM      7  N   ILE d   1     -65.028 -88.942 -40.456  0.00  0.00    -0.346 N 
ATOM      8  C   GLY d   1     -64.957 -88.851 -41.782  0.00  0.00     0.236 C 
ATOM      9  O   GLY d   1     -63.999 -89.283 -42.430  0.00  0.00    -0.272 OA
ATOM     10  H20 ILE d   1     -65.829 -88.573 -39.984  0.00  0.00     0.163 HD
BRANCH   8  11
ATOM     11  CA  GLY d   1     -66.142 -88.174 -42.441  0.00  0.00     0.069 C 
ATOM     12  H18 GLY d   1     -67.046 -88.773 -42.257  0.00  0.00     0.078 H 
ATOM     13  H19 GLY d   1     -66.271 -87.172 -42.006  0.00  0.00     0.078 H 
BRANCH  11  14
ATOM     14  N   GLY d   1     -65.941 -88.047 -43.870  0.00  0.00    -0.351 N 
ATOM     15  C   VAL d   1     -66.555 -88.827 -44.751  0.00  0.00     0.241 C 
ATOM     16  O   VAL d   1     -67.463 -89.601 -44.418  0.00  0.00    -0.271 OA
ATOM     17  H17 GLY d   1     -65.315 -87.344 -44.206  0.00  0.00     0.163 HD
BRANCH  15  18
ATOM     18  CA  VAL d   1     -66.125 -88.712 -46.207  0.00  0.00     0.092 C 
ATOM     19  H9  VAL d   1     -66.978 -89.003 -46.838  0.00  0.00     0.088 H 
BRANCH  18  20
ATOM     20  N   VAL d   1     -65.761 -87.336 -46.531  0.00  0.00    -0.346 N 
ATOM     21  C   ALA d   1     -66.651 -86.346 -46.430  0.00  0.00     0.248 C 
ATOM     22  O   ALA d   1     -67.836 -86.529 -46.155  0.00  0.00    -0.271 OA
ATOM     23  H8  VAL d   1     -64.830 -87.132 -46.834  0.00  0.00     0.163 HD
BRANCH  21  24
ATOM     24  CA  ALA d   1     -66.117 -84.940 -46.683  0.00  0.00     0.172 C 
ATOM     25  H4  ALA d   1     -65.183 -85.024 -47.258  0.00  0.00     0.098 H 
BRANCH  24  26
ATOM     26  N   ALA d   1     -67.061 -84.149 -47.462  0.00  0.00    -0.067 N 
ATOM     27  H1  ALA d   1     -66.682 -83.227 -47.613  0.00  0.00     0.275 HD
ATOM     28  H2  ALA d   1     -67.932 -84.076 -46.961  0.00  0.00     0.275 HD
ATOM     29  H3  ALA d   1     -67.221 -84.597 -48.351  0.00  0.00     0.275 HD
ENDBRANCH  24  26
BRANCH  24  30
ATOM     30  CB  ALA d   1     -65.809 -84.250 -45.363  0.00  0.00    -0.042 C 
ATOM     31  H5  ALA d   1     -65.096 -84.859 -44.788  0.00  0.00     0.030 H 
ATOM     32  H6  ALA d   1     -66.738 -84.131 -44.786  0.00  0.00     0.030 H 
ATOM     33  H7  ALA d   1     -65.370 -83.261 -45.560  0.00  0.00     0.030 H 
ENDBRANCH  24  30
ENDBRANCH  21  24
ENDBRANCH  18  20
BRANCH  18  34
ATOM     34  CB  VAL d   1     -64.945 -89.655 -46.526  0.00  0.00    -0.033 C 
ATOM     35  H10 VAL d   1     -64.030 -89.212 -46.107  0.00  0.00     0.042 H 
BRANCH  34  36
ATOM     36  CG1 VAL d   1     -65.145 -91.019 -45.884  0.00  0.00    -0.071 C 
ATOM     37  H11 VAL d   1     -64.291 -91.668 -46.128  0.00  0.00     0.028 H 
ATOM     38  H12 VAL d   1     -66.071 -91.472 -46.267  0.00  0.00     0.028 H 
ATOM     39  H13 VAL d   1     -65.218 -90.903 -44.792  0.00  0.00     0.028 H 
ENDBRANCH  34  36
BRANCH  34  40
ATOM     40  CG2 VAL d   1     -64.762 -89.788 -48.030  0.00  0.00    -0.071 C 
ATOM     41  H14 VAL d   1     -64.619 -88.791 -48.472  0.00  0.00     0.028 H 
ATOM     42  H15 VAL d   1     -65.655 -90.259 -48.468  0.00  0.00     0.028 H 
ATOM     43  H16 VAL d   1     -63.880 -90.411 -48.238  0.00  0.00     0.028 H 
ENDBRANCH  34  40
ENDBRANCH  18  34
ENDBRANCH  15  18
ENDBRANCH  11  14
ENDBRANCH   8  11
ENDBRANCH   5   7
BRANCH   5  44
ATOM     44  CB  ILE d   1     -63.245 -88.540 -38.771  0.00  0.00    -0.030 C 
ATOM     45  H22 ILE d   1     -62.293 -88.983 -38.444  0.00  0.00     0.043 H 
BRANCH  44  46
ATOM     46  CG1 ILE d   1     -64.079 -88.235 -37.525  0.00  0.00    -0.063 C 
ATOM     47  H23 ILE d   1     -64.678 -89.125 -37.281  0.00  0.00     0.033 H 
ATOM     48  H24 ILE d   1     -64.749 -87.393 -37.752  0.00  0.00     0.033 H 
BRANCH  46  49
ATOM     49  CD1 ILE d   1     -63.247 -87.871 -36.313  0.00  0.00    -0.076 C 
ATOM     50  H28 ILE d   1     -63.911 -87.666 -35.460  0.00  0.00     0.027 H 
ATOM     51  H29 ILE d   1     -62.648 -86.975 -36.535  0.00  0.00     0.027 H 
ATOM     52  H30 ILE d   1     -62.577 -88.707 -36.063  0.00  0.00     0.027 H 
ENDBRANCH  46  49
ENDBRANCH  44  46
BRANCH  44  53
ATOM     53  CG2 ILE d   1     -62.931 -87.265 -39.542  0.00  0.00    -0.071 C 
ATOM     54  H25 ILE d   1     -62.332 -87.512 -40.431  0.00  0.00     0.028 H 
ATOM     55  H26 ILE d   1     -62.364 -86.577 -38.898  0.00  0.00     0.028 H 
ATOM     56  H27 ILE d   1     -63.870 -86.785 -39.855  0.00  0.00     0.028 H 
ENDBRANCH  44  53
ENDBRANCH   5  44
ENDBRANCH   3   5
BRANCH   1  57
ATOM     57  CA  GLY d   1     -66.289 -91.952 -37.804  0.00  0.00     0.069 C 
ATOM     58  H32 GLY d   1     -67.102 -91.532 -37.194  0.00  0.00     0.078 H 
ATOM     59  H33 GLY d   1     -65.482 -92.308 -37.146  0.00  0.00     0.078 H 
BRANCH  57  60
ATOM     60  C   GLY d   1     -66.835 -93.139 -38.584  0.00  0.00     0.236 C 
ATOM     61  O   GLY d   1     -66.858 -93.174 -39.812  0.00  0.00    -0.272 OA
ATOM     62  N   ALA d   1     -67.275 -94.139 -37.821  0.00  0.00    -0.347 N 
ATOM     63  H34 ALA d   1     -67.144 -94.076 -36.831  0.00  0.00     0.163 HD
BRANCH  62  64
ATOM     64  CA  ALA d   1     -67.937 -95.319 -38.360  0.00  0.00     0.086 C 
ATOM     65  H35 ALA d   1     -67.571 -95.485 -39.384  0.00  0.00     0.086 H 
BRANCH  64  66
ATOM     66  C   ALA d   1     -69.445 -95.139 -38.411  0.00  0.00     0.240 C 
ATOM     67  O   ALA d   1     -70.099 -95.596 -39.355  0.00  0.00    -0.271 OA
ATOM     68  N   VAL d   1     -69.992 -94.468 -37.403  0.00  0.00    -0.346 N 
ATOM     69  H39 VAL d   1     -69.388 -94.154 -36.670  0.00  0.00     0.163 HD
BRANCH  68  70
ATOM     70  CA  VAL d   1     -71.412 -94.158 -37.292  0.00  0.00     0.092 C 
ATOM     71  H40 VAL d   1     -71.847 -94.082 -38.300  0.00  0.00     0.088 H 
BRANCH  70  72
ATOM     72  C   VAL d   1     -71.506 -92.804 -36.603  0.00  0.00     0.241 C 
ATOM     73  O   VAL d   1     -70.723 -92.510 -35.694  0.00  0.00    -0.271 OA
ATOM     74  N   PHE d   1     -72.441 -91.972 -37.060  0.00  0.00    -0.344 N 
ATOM     75  H48 PHE d   1     -73.121 -92.328 -37.701  0.00  0.00     0.163 HD
BRANCH  74  76
ATOM     76  CA  PHE d   1     -72.523 -90.560 -36.671  0.00  0.00     0.100 C 
ATOM     77  H49 PHE d   1     -73.405 -90.123 -37.162  0.00  0.00     0.090 H 
BRANCH  76  78
ATOM     78  C   PHE d   1     -71.282 -89.807 -37.143  0.00  0.00     0.197 C 
ATOM     79  O   PHE d   1     -70.946 -89.817 -38.328  0.00  0.00    -0.646 OA
ATOM     80  OXT PHE d   1     -70.586 -89.171 -36.351  0.00  0.00    -0.646 OA
ENDBRANCH  76  78
BRANCH  76  81
ATOM     81  CB  PHE d   1     -72.685 -90.385 -35.153  0.00  0.00    -0.013 C 
ATOM     82  H50 PHE d   1     -73.008 -89.352 -34.958  0.00  0.00     0.043 H 
ATOM     83  H51 PHE d   1     -71.707 -90.559 -34.680  0.00  0.00     0.043 H 
BRANCH  81  84
ATOM     84  CG  PHE d   1     -73.683 -91.316 -34.526  0.00  0.00    -0.056 A 
ATOM     85  CD1 PHE d   1     -73.266 -92.326 -33.673  0.00  0.00    -0.077 A 
ATOM     86  CE1 PHE d   1     -74.182 -93.181 -33.087  0.00  0.00    -0.082 A 
ATOM     87  H52 PHE d   1     -72.210 -92.447 -33.463  0.00  0.00     0.084 H 
ATOM     88  CZ  PHE d   1     -75.530 -93.029 -33.345  0.00  0.00    -0.083 A 
ATOM     89  H54 PHE d   1     -73.842 -93.970 -32.426  0.00  0.00     0.083 H 
ATOM     90  CE2 PHE d   1     -75.960 -92.022 -34.187  0.00  0.00    -0.082 A 
ATOM     91  H56 PHE d   1     -76.249 -93.699 -32.888  0.00  0.00     0.083 H 
ATOM     92  CD2 PHE d   1     -75.039 -91.171 -34.772  0.00  0.00    -0.077 A 
ATOM     93  H55 PHE d   1     -77.018 -91.898 -34.389  0.00  0.00     0.083 H 
ATOM     94  H53 PHE d   1     -75.382 -90.381 -35.431  0.00  0.00     0.084 H 
ENDBRANCH  81  84
ENDBRANCH  76  81
ENDBRANCH  74  76
ENDBRANCH  70  72
BRANCH  70  95
ATOM     95  CB  VAL d   1     -72.177 -95.258 -36.518  0.00  0.00    -0.033 C 
ATOM     96  H41 VAL d   1     -71.607 -95.493 -35.607  0.00  0.00     0.042 H 
BRANCH  95  97
ATOM     97  CG1 VAL d   1     -73.556 -94.776 -36.105  0.00  0.00    -0.071 C 
ATOM     98  H42 VAL d   1     -74.076 -95.576 -35.558  0.00  0.00     0.028 H 
ATOM     99  H43 VAL d   1     -74.135 -94.509 -37.002  0.00  0.00     0.028 H 
ATOM    100  H44 VAL d   1     -73.457 -93.893 -35.456  0.00  0.00     0.028 H 
ENDBRANCH  95  97
BRANCH  95 101
ATOM    101  CG2 VAL d   1     -72.295 -96.530 -37.348  0.00  0.00    -0.071 C 
ATOM    102  H45 VAL d   1     -71.291 -96.871 -37.642  0.00  0.00     0.028 H 
ATOM    103  H46 VAL d   1     -72.891 -96.326 -38.249  0.00  0.00     0.028 H 
ATOM    104  H47 VAL d   1     -72.788 -97.312 -36.752  0.00  0.00     0.028 H 
ENDBRANCH  95 101
ENDBRANCH  70  95
ENDBRANCH  68  70
ENDBRANCH  64  66
BRANCH  64 105
ATOM    105  CB  ALA d   1     -67.597 -96.543 -37.511  0.00  0.00    -0.049 C 
ATOM    106  H36 ALA d   1     -68.101 -97.428 -37.926  0.00  0.00     0.030 H 
ATOM    107  H37 ALA d   1     -67.936 -96.378 -36.478  0.00  0.00     0.030 H 
ATOM    108  H38 ALA d   1     -66.509 -96.704 -37.519  0.00  0.00     0.030 H 
ENDBRANCH  64 105
ENDBRANCH  62  64
ENDBRANCH  57  60
ENDBRANCH   1  57
TORSDOF 30
