REMARK  6 active torsions:
REMARK  status: ('A' for Active; 'I' for Inactive)
REMARK    1  A    between atoms: C2_3  and  C1_2 
REMARK    2  A    between atoms: C1_2  and  C_21 
REMARK    3  A    between atoms: C3_4  and  C2_3 
REMARK    4  A    between atoms: C7_8  and  C8_9 
REMARK    5  A    between atoms: C8_9  and  C9_10 
REMARK    6  A    between atoms: C9_10  and  C10_11 
ROOT
ATOM      1  C3  EYP d   1      -5.453   3.727   6.333  0.00  0.00     0.077 A 
ATOM      2  C4  EYP d   1      -3.307   3.451   6.793  0.00  0.00     0.077 A 
ATOM      3  C5  EYP d   1      -1.941   3.527   6.576  0.00  0.00    -0.025 A 
ATOM      4  C6  EYP d   1      -1.093   2.652   7.254  0.00  0.00     0.077 A 
ATOM      5  C7  EYP d   1       0.797   1.612   7.718  0.00  0.00     0.077 A 
ATOM      6  N1  EYP d   1       0.270   2.570   7.026  0.00  0.00    -0.245 NA
ATOM      7  S   EYP d   1      -0.290   0.703   8.740  0.00  0.00    -0.073 SA
ATOM      8  C11 EYP d   1      -1.610   1.728   8.172  0.00  0.00     0.037 A 
ATOM      9  C12 EYP d   1      -2.982   1.691   8.472  0.00  0.00    -0.045 A 
ATOM     10  C13 EYP d   1      -3.820   2.551   7.738  0.00  0.00     0.037 A 
ATOM     11  N   EYP d   1      -4.263   4.117   6.020  0.00  0.00    -0.245 NA
ATOM     12  S1  EYP d   1      -5.570   2.564   7.630  0.00  0.00    -0.073 SA
ATOM     13  H5  EYP d   1      -1.536   4.259   5.887  0.00  0.00     0.090 H 
ATOM     14  H10 EYP d   1      -3.377   1.030   9.235  0.00  0.00     0.087 H 
ENDROOT
BRANCH   1  15
ATOM     15  C2  EYP d   1      -6.649   4.076   5.503  0.00  0.00    -0.009 C 
ATOM     16  H3  EYP d   1      -6.303   4.308   4.485  0.00  0.00     0.043 H 
ATOM     17  H4  EYP d   1      -7.312   3.199   5.474  0.00  0.00     0.043 H 
BRANCH  15  18
ATOM     18  C1  EYP d   1      -7.453   5.257   6.007  0.00  0.00     0.021 C 
ATOM     19  H1  EYP d   1      -8.137   4.888   6.785  0.00  0.00     0.049 H 
ATOM     20  H2  EYP d   1      -8.037   5.649   5.161  0.00  0.00     0.049 H 
BRANCH  18  21
ATOM     21  C   EYP d   1      -6.675   6.398   6.590  0.00  0.00     0.172 C 
ATOM     22  O1  EYP d   1      -6.260   6.392   7.746  0.00  0.00    -0.648 OA
ATOM     23  O   EYP d   1      -6.553   7.416   5.756  0.00  0.00    -0.648 OA
ENDBRANCH  18  21
ENDBRANCH  15  18
ENDBRANCH   1  15
BRANCH   5  24
ATOM     24  C8  EYP d   1       2.248   1.283   7.594  0.00  0.00    -0.009 C 
ATOM     25  H6  EYP d   1       2.589   1.566   6.587  0.00  0.00     0.043 H 
ATOM     26  H7  EYP d   1       2.377   0.200   7.734  0.00  0.00     0.043 H 
BRANCH  24  27
ATOM     27  C9  EYP d   1       3.092   2.006   8.611  0.00  0.00     0.021 C 
ATOM     28  H8  EYP d   1       4.097   1.560   8.614  0.00  0.00     0.049 H 
ATOM     29  H9  EYP d   1       2.632   1.880   9.602  0.00  0.00     0.049 H 
BRANCH  27  30
ATOM     30  C10 EYP d   1       3.221   3.476   8.326  0.00  0.00     0.172 C 
ATOM     31  O2  EYP d   1       2.644   4.228   9.223  0.00  0.00    -0.648 OA
ATOM     32  O3  EYP d   1       3.806   3.916   7.364  0.00  0.00    -0.648 OA
ENDBRANCH  27  30
ENDBRANCH  24  27
ENDBRANCH   5  24
TORSDOF 6
