REMARK  4 active torsions:
REMARK  status: ('A' for Active; 'I' for Inactive)
REMARK    1  A    between atoms: C1_1  and  C2_2 
REMARK    2  A    between atoms: C2_2  and  C3_3 
REMARK    3  A    between atoms: C3_3  and  C4_4 
REMARK    4  A    between atoms: N_11  and  C_12 
ROOT
ATOM      1  C1  EYA d   1       0.444   2.514   7.520  0.00  0.00     0.109 A 
ATOM      2  C5  EYA d   1       0.060   4.113   5.906  0.00  0.00     0.074 A 
ATOM      3  C6  EYA d   1       0.591   4.975   4.944  0.00  0.00    -0.054 A 
ATOM      4  C7  EYA d   1      -0.255   5.771   4.189  0.00  0.00    -0.081 A 
ATOM      5  C8  EYA d   1      -1.620   5.714   4.381  0.00  0.00    -0.082 A 
ATOM      6  N1  EYA d   1       0.937   3.330   6.656  0.00  0.00    -0.234 NA
ATOM      7  N   EYA d   1      -0.922   2.379   7.762  0.00  0.00    -0.306 N 
ATOM      8  O2  EYA d   1      -3.034   3.093   7.341  0.00  0.00    -0.267 OA
ATOM      9  C11 EYA d   1      -1.857   3.163   7.077  0.00  0.00     0.261 A 
ATOM     10  C10 EYA d   1      -1.321   4.062   6.097  0.00  0.00     0.061 A 
ATOM     11  C9  EYA d   1      -2.163   4.873   5.331  0.00  0.00    -0.065 A 
ATOM     12  H5  EYA d   1       1.663   5.021   4.788  0.00  0.00     0.087 H 
ATOM     13  H6  EYA d   1       0.158   6.442   3.444  0.00  0.00     0.083 H 
ATOM     14  H7  EYA d   1      -2.273   6.336   3.780  0.00  0.00     0.083 H 
ATOM     15  H11 EYA d   1      -3.236   4.842   5.482  0.00  0.00     0.085 H 
ENDROOT
BRANCH   1  16
ATOM     16  C2  EYA d   1       1.393   1.686   8.320  0.00  0.00    -0.001 C 
ATOM     17  H1  EYA d   1       1.184   0.624   8.124  0.00  0.00     0.045 H 
ATOM     18  H2  EYA d   1       1.233   1.901   9.387  0.00  0.00     0.045 H 
BRANCH  16  19
ATOM     19  C3  EYA d   1       2.853   1.966   7.980  0.00  0.00     0.022 C 
ATOM     20  H3  EYA d   1       2.989   1.750   6.910  0.00  0.00     0.049 H 
ATOM     21  H4  EYA d   1       3.468   1.274   8.575  0.00  0.00     0.049 H 
BRANCH  19  22
ATOM     22  C4  EYA d   1       3.376   3.367   8.230  0.00  0.00     0.172 C 
ATOM     23  O1  EYA d   1       4.255   3.845   7.508  0.00  0.00    -0.648 OA
ATOM     24  O   EYA d   1       2.862   3.956   9.310  0.00  0.00    -0.648 OA
ENDBRANCH  19  22
ENDBRANCH  16  19
ENDBRANCH   1  16
BRANCH   7  25
ATOM     25  C   EYA d   1      -1.411   1.419   8.737  0.00  0.00    -0.010 C 
ATOM     26  H8  EYA d   1      -0.560   0.886   9.185  0.00  0.00     0.057 H 
ATOM     27  H9  EYA d   1      -2.075   0.697   8.239  0.00  0.00     0.057 H 
ATOM     28  H10 EYA d   1      -1.968   1.948   9.524  0.00  0.00     0.057 H 
ENDBRANCH   7  25
TORSDOF 4
