REMARK  15 active torsions:
REMARK  status: ('A' for Active; 'I' for Inactive)
REMARK    1  A    between atoms: C1_1  and  O1_7 
REMARK    2  A    between atoms: C2_2  and  N2_8 
REMARK    3  A    between atoms: C3_3  and  O3_12 
REMARK    4  A    between atoms: C4_4  and  O4_13 
REMARK    5  A    between atoms: C5_5  and  C6_18 
REMARK    6  A    between atoms: O1_7  and  CB_21 
REMARK       I    between atoms: N2_8  and  C7_9 
REMARK    7  A    between atoms: C7_9  and  C8_11 
REMARK    8  A    between atoms: O4_13  and  S4_14 
REMARK    9  A    between atoms: C6_18  and  O6_19 
REMARK   10  A    between atoms: CA_20  and  C9_25 
REMARK   11  A    between atoms: CD_23  and  C10_27 
REMARK   12  A    between atoms: C9_25  and  O9_26 
REMARK       I    between atoms: C10_27  and  N3_29 
REMARK   13  A    between atoms: N3_29  and  C11_30 
REMARK   14  A    between atoms: C11_30  and  C12_31 
REMARK   15  A    between atoms: C12_31  and  S_32 
ROOT
ATOM      1  O1  BLG d   1     -41.382  24.452  -3.701  0.00  0.00    -0.352 OA
ENDROOT
BRANCH   1   2
ATOM      2  C1  BLG d   1     -42.215  24.261  -4.854  0.00  0.00     0.154 C 
ATOM      3  C2  BLG d   1     -43.421  23.530  -4.495  0.00  0.00     0.087 C 
ATOM      4  C3  BLG d   1     -44.287  23.395  -5.760  0.00  0.00     0.088 C 
ATOM      5  H2  BLG d   1     -43.981  24.060  -3.710  0.00  0.00     0.084 H 
ATOM      6  C4  BLG d   1     -44.580  24.780  -6.328  0.00  0.00     0.113 C 
ATOM      7  H3  BLG d   1     -43.748  22.802  -6.514  0.00  0.00     0.090 H 
ATOM      8  C5  BLG d   1     -43.265  25.516  -6.556  0.00  0.00     0.090 C 
ATOM      9  H4  BLG d   1     -45.216  25.354  -5.638  0.00  0.00     0.093 H 
ATOM     10  O5  BLG d   1     -42.571  25.554  -5.288  0.00  0.00    -0.349 OA
ATOM     11  H5  BLG d   1     -42.671  24.933  -7.275  0.00  0.00     0.090 H 
ATOM     12  H1  BLG d   1     -41.669  23.720  -5.641  0.00  0.00     0.132 H 
BRANCH   3  13
ATOM     13  N2  BLG d   1     -42.987  22.196  -4.005  0.00  0.00    -0.349 N 
ATOM     14  C7  BLG d   1     -43.177  21.837  -2.732  0.00  0.00     0.214 C 
ATOM     15  O7  BLG d   1     -43.740  22.528  -1.877  0.00  0.00    -0.274 OA
ATOM     16  H6  BLG d   1     -42.547  21.558  -4.637  0.00  0.00     0.163 HD
BRANCH  14  17
ATOM     17  C8  BLG d   1     -42.620  20.474  -2.378  0.00  0.00    -0.003 C 
ATOM     18  H7  BLG d   1     -42.820  20.261  -1.317  0.00  0.00     0.040 H 
ATOM     19  H8  BLG d   1     -41.535  20.464  -2.556  0.00  0.00     0.040 H 
ATOM     20  H9  BLG d   1     -43.101  19.707  -3.003  0.00  0.00     0.040 H 
ENDBRANCH  14  17
ENDBRANCH   3  13
BRANCH   4  21
ATOM     21  O3  BLG d   1     -45.499  22.729  -5.413  0.00  0.00    -0.391 OA
ATOM     22  H10 BLG d   1     -46.041  22.636  -6.188  0.00  0.00     0.210 HD
ENDBRANCH   4  21
BRANCH   6  23
ATOM     23  O4  BLG d   1     -45.240  24.585  -7.559  0.00  0.00    -0.246 OA
BRANCH  23  24
ATOM     24  S4  BLG d   1     -46.742  24.942  -7.697  0.00  0.00     0.252 S 
ATOM     25  O41 BLG d   1     -47.031  26.181  -6.894  0.00  0.00    -0.572 OA
ATOM     26  O42 BLG d   1     -47.574  23.822  -7.156  0.00  0.00    -0.572 OA
ATOM     27  O43 BLG d   1     -47.072  25.190  -9.161  0.00  0.00    -0.572 OA
ENDBRANCH  23  24
ENDBRANCH   6  23
BRANCH   8  28
ATOM     28  C6  BLG d   1     -43.391  26.944  -7.112  0.00  0.00     0.043 C 
ATOM     29  H11 BLG d   1     -43.922  26.941  -8.075  0.00  0.00     0.078 H 
ATOM     30  H12 BLG d   1     -42.398  27.400  -7.242  0.00  0.00     0.078 H 
BRANCH  28  31
ATOM     31  O6  BLG d   1     -44.139  27.643  -6.129  0.00  0.00    -0.398 OA
ATOM     32  H13 BLG d   1     -43.670  27.624  -5.303  0.00  0.00     0.209 HD
ENDBRANCH  28  31
ENDBRANCH   8  28
ENDBRANCH   1   2
BRANCH   1  33
ATOM     33  CB  BLG d   1     -39.992  24.526  -4.014  0.00  0.00     0.073 C 
ATOM     34  CA  BLG d   1     -39.187  23.789  -2.949  0.00  0.00     0.147 C 
ATOM     35  N   BLG d   1     -37.854  24.425  -3.058  0.00  0.00    -0.053 N 
ATOM     36  H14 BLG d   1     -39.609  23.949  -1.946  0.00  0.00     0.091 H 
ATOM     37  CD  BLG d   1     -38.005  25.722  -3.803  0.00  0.00     0.180 C 
ATOM     38  H19 BLG d   1     -37.226  23.816  -3.559  0.00  0.00     0.278 HD
ATOM     39  H20 BLG d   1     -37.486  24.603  -2.137  0.00  0.00     0.278 HD
ATOM     40  CG  BLG d   1     -39.485  25.942  -3.913  0.00  0.00    -0.004 C 
ATOM     41  H18 BLG d   1     -37.568  25.628  -4.808  0.00  0.00     0.099 H 
ATOM     42  H16 BLG d   1     -39.883  26.449  -3.022  0.00  0.00     0.040 H 
ATOM     43  H17 BLG d   1     -39.739  26.525  -4.811  0.00  0.00     0.040 H 
ATOM     44  H15 BLG d   1     -39.811  24.110  -5.016  0.00  0.00     0.086 H 
BRANCH  34  45
ATOM     45  C9  BLG d   1     -39.177  22.297  -3.253  0.00  0.00     0.046 C 
ATOM     46  H21 BLG d   1     -40.183  21.958  -3.539  0.00  0.00     0.077 H 
ATOM     47  H22 BLG d   1     -38.835  21.730  -2.375  0.00  0.00     0.077 H 
BRANCH  45  48
ATOM     48  O9  BLG d   1     -38.248  22.124  -4.363  0.00  0.00    -0.399 OA
ATOM     49  H23 BLG d   1     -38.203  21.204  -4.596  0.00  0.00     0.209 HD
ENDBRANCH  45  48
ENDBRANCH  34  45
BRANCH  37  50
ATOM     50  C10 BLG d   1     -37.290  26.898  -3.061  0.00  0.00     0.248 C 
ATOM     51  O10 BLG d   1     -37.536  27.150  -1.872  0.00  0.00    -0.271 OA
ATOM     52  N3  BLG d   1     -36.388  27.549  -3.799  0.00  0.00    -0.358 N 
ATOM     53  H24 BLG d   1     -36.330  27.325  -4.772  0.00  0.00     0.162 HD
BRANCH  52  54
ATOM     54  C11 BLG d   1     -35.480  28.568  -3.277  0.00  0.00     0.010 C 
ATOM     55  H25 BLG d   1     -35.933  29.111  -2.434  0.00  0.00     0.065 H 
ATOM     56  H26 BLG d   1     -35.191  29.283  -4.061  0.00  0.00     0.065 H 
BRANCH  54  57
ATOM     57  C12 BLG d   1     -34.275  27.728  -2.816  0.00  0.00     0.060 C 
ATOM     58  H27 BLG d   1     -33.873  27.197  -3.692  0.00  0.00     0.062 H 
ATOM     59  H28 BLG d   1     -34.631  26.997  -2.075  0.00  0.00     0.062 H 
BRANCH  57  60
ATOM     60  S   BLG d   1     -32.915  28.687  -2.060  0.00  0.00     0.103 S 
ATOM     61  OS1 BLG d   1     -31.729  27.764  -1.810  0.00  0.00    -0.595 OA
ATOM     62  OS2 BLG d   1     -33.346  29.232  -0.692  0.00  0.00    -0.595 OA
ATOM     63  OS3 BLG d   1     -32.519  29.788  -3.061  0.00  0.00    -0.595 OA
ENDBRANCH  57  60
ENDBRANCH  54  57
ENDBRANCH  52  54
ENDBRANCH  37  50
ENDBRANCH   1  33
TORSDOF 15
