REMARK  9 active torsions:
REMARK  status: ('A' for Active; 'I' for Inactive)
REMARK       I    between atoms: N_30  and  C1_1 
REMARK    1  A    between atoms: C1_1  and  O_31 
REMARK    2  A    between atoms: C12_6  and  C13_7 
REMARK    3  A    between atoms: C12_6  and  N2_19 
REMARK    4  A    between atoms: C10_23  and  C12_6 
REMARK    5  A    between atoms: N2_19  and  C15_9 
REMARK    6  A    between atoms: C19_13  and  C20_14 
REMARK    7  A    between atoms: C5_28  and  C6_27 
REMARK    8  A    between atoms: C5_28  and  C4_29 
REMARK    9  A    between atoms: O_31  and  C_32 
ROOT
ATOM      1  C13 F0Y d   1       6.231 159.142  31.689  0.00  0.00     0.038 C 
ATOM      2  C14 F0Y d   1       6.295 157.799  31.111  0.00  0.00     0.061 C 
ATOM      3  N1  F0Y d   1       6.346 156.751  30.702  0.00  0.00    -0.197 NA
ATOM      4  H7  F0Y d   1       5.257 159.586  31.438  0.00  0.00     0.058 H 
ATOM      5  H8  F0Y d   1       6.325 159.059  32.782  0.00  0.00     0.058 H 
ENDROOT
BRANCH   1   6
ATOM      6  C12 F0Y d   1       7.355 160.080  31.164  0.00  0.00     0.063 C 
ATOM      7  H6  F0Y d   1       7.263 160.161  30.071  0.00  0.00     0.082 H 
BRANCH   6   8
ATOM      8  N2  F0Y d   1       7.121 161.409  31.740  0.00  0.00    -0.215 N 
ATOM      9  H18 F0Y d   1       6.265 161.525  32.301  0.00  0.00     0.178 HD
BRANCH   8  10
ATOM     10  C15 F0Y d   1       7.912 162.495  31.611  0.00  0.00     0.703 A 
ATOM     11  N5  F0Y d   1       7.820 163.589  32.342  0.00  0.00    -0.043 NA
ATOM     12  C21 F0Y d   1       8.845 164.419  31.965  0.00  0.00     0.196 A 
ATOM     13  C16 F0Y d   1       9.574 163.794  30.966  0.00  0.00     0.097 A 
ATOM     14  N4  F0Y d   1       9.146 165.648  32.432  0.00  0.00    -0.232 NA
ATOM     15  C17 F0Y d   1      10.672 164.435  30.404  0.00  0.00    -0.051 A 
ATOM     16  N3  F0Y d   1       8.954 162.576  30.748  0.00  0.00    -0.186 N 
ATOM     17  C18 F0Y d   1      10.994 165.693  30.890  0.00  0.00    -0.057 A 
ATOM     18  H9  F0Y d   1      11.254 163.970  29.617  0.00  0.00     0.087 H 
ATOM     19  C19 F0Y d   1      10.222 166.273  31.912  0.00  0.00     0.033 A 
ATOM     20  H10 F0Y d   1      11.842 166.230  30.481  0.00  0.00     0.086 H 
ATOM     21  H19 F0Y d   1       9.233 161.864  30.058  0.00  0.00     0.184 HD
BRANCH  19  22
ATOM     22  C20 F0Y d   1      10.589 167.597  32.515  0.00  0.00    -0.035 C 
ATOM     23  H11 F0Y d   1       9.856 167.862  33.291  0.00  0.00     0.035 H 
ATOM     24  H12 F0Y d   1      10.589 168.369  31.732  0.00  0.00     0.035 H 
ATOM     25  H13 F0Y d   1      11.591 167.530  32.964  0.00  0.00     0.035 H 
ENDBRANCH  19  22
ENDBRANCH   8  10
ENDBRANCH   6   8
BRANCH   6  26
ATOM     26  C10 F0Y d   1       8.735 159.508  31.460  0.00  0.00    -0.034 A 
ATOM     27  C11 F0Y d   1       9.335 159.697  32.701  0.00  0.00    -0.069 A 
ATOM     28  C6  F0Y d   1      10.596 159.179  32.998  0.00  0.00    -0.057 A 
ATOM     29  H5  F0Y d   1       8.807 160.263  33.460  0.00  0.00     0.085 H 
ATOM     30  C7  F0Y d   1      11.252 158.438  32.024  0.00  0.00    -0.077 A 
ATOM     31  C8  F0Y d   1      10.668 158.232  30.780  0.00  0.00    -0.082 A 
ATOM     32  H22 F0Y d   1      12.228 158.017  32.236  0.00  0.00     0.084 H 
ATOM     33  C9  F0Y d   1       9.416 158.769  30.499  0.00  0.00    -0.075 A 
ATOM     34  H21 F0Y d   1      11.189 157.652  30.027  0.00  0.00     0.083 H 
ATOM     35  H20 F0Y d   1       8.968 158.610  29.525  0.00  0.00     0.084 H 
BRANCH  28  36
ATOM     36  C5  F0Y d   1      11.247 159.470  34.329  0.00  0.00    -0.037 C 
ATOM     37  H23 F0Y d   1      11.930 158.642  34.569  0.00  0.00     0.040 H 
ATOM     38  H24 F0Y d   1      10.459 159.530  35.094  0.00  0.00     0.040 H 
BRANCH  36  39
ATOM     39  C4  F0Y d   1      12.048 160.780  34.357  0.00  0.00    -0.047 C 
ATOM     40  C3  F0Y d   1      11.152 161.996  34.108  0.00  0.00    -0.046 C 
ATOM     41  C2  F0Y d   1      11.945 163.296  34.128  0.00  0.00     0.000 C 
ATOM     42  H3  F0Y d   1      10.670 161.888  33.125  0.00  0.00     0.035 H 
ATOM     43  H4  F0Y d   1      10.381 162.037  34.892  0.00  0.00     0.035 H 
ATOM     44  N   F0Y d   1      12.671 163.446  35.395  0.00  0.00    -0.328 N 
ATOM     45  H1  F0Y d   1      11.253 164.142  34.007  0.00  0.00     0.064 H 
ATOM     46  H2  F0Y d   1      12.666 163.291  33.298  0.00  0.00     0.064 H 
ATOM     47  C1  F0Y d   1      12.596 164.585  36.115  0.00  0.00     0.362 C 
ATOM     48  C23 F0Y d   1      13.546 162.307  35.717  0.00  0.00     0.000 C 
ATOM     49  O1  F0Y d   1      11.951 165.553  35.789  0.00  0.00    -0.238 OA
ATOM     50  C22 F0Y d   1      12.789 160.972  35.679  0.00  0.00    -0.046 C 
ATOM     51  H16 F0Y d   1      14.366 162.271  34.985  0.00  0.00     0.064 H 
ATOM     52  H17 F0Y d   1      13.961 162.452  36.725  0.00  0.00     0.064 H 
ATOM     53  H14 F0Y d   1      12.060 160.952  36.502  0.00  0.00     0.035 H 
ATOM     54  H15 F0Y d   1      13.509 160.150  35.807  0.00  0.00     0.035 H 
ATOM     55  H25 F0Y d   1      12.794 160.731  33.550  0.00  0.00     0.040 H 
BRANCH  47  56
ATOM     56  O   F0Y d   1      13.347 164.511  37.226  0.00  0.00    -0.309 OA
BRANCH  56  57
ATOM     57  C   F0Y d   1      13.583 165.769  37.903  0.00  0.00     0.015 C 
ATOM     58  H26 F0Y d   1      14.205 165.595  38.794  0.00  0.00     0.067 H 
ATOM     59  H27 F0Y d   1      12.621 166.208  38.207  0.00  0.00     0.067 H 
ATOM     60  H28 F0Y d   1      14.102 166.460  37.223  0.00  0.00     0.067 H 
ENDBRANCH  56  57
ENDBRANCH  47  56
ENDBRANCH  36  39
ENDBRANCH  28  36
ENDBRANCH   6  26
ENDBRANCH   1   6
TORSDOF 9
