REMARK  8 active torsions:
REMARK  status: ('A' for Active; 'I' for Inactive)
REMARK    1  A    between atoms: N2_7  and  C8_1 
REMARK    2  A    between atoms: C5_2  and  N2_7 
REMARK    3  A    between atoms: C6_3  and  C7_27 
REMARK       I    between atoms: C7_27  and  N1_4 
REMARK    4  A    between atoms: N3_8  and  C3_9 
REMARK    5  A    between atoms: C11_13  and  O3_26 
REMARK    6  A    between atoms: C14_16  and  C23_33 
REMARK    7  A    between atoms: C18_30  and  C21_20 
REMARK    8  A    between atoms: C18_30  and  C22_32 
ROOT
ATOM      1  C5  E0G d   1      20.562 107.673 -99.750  0.00  0.00     0.046 A 
ATOM      2  C6  E0G d   1      19.491 107.170-100.452  0.00  0.00     0.058 A 
ATOM      3  C2  E0G d   1      20.307 107.866-102.578  0.00  0.00    -0.054 A 
ATOM      4  C3  E0G d   1      21.423 108.398-101.913  0.00  0.00     0.060 A 
ATOM      5  C4  E0G d   1      21.542 108.313-100.501  0.00  0.00    -0.029 A 
ATOM      6  C1  E0G d   1      19.321 107.230-101.822  0.00  0.00    -0.063 A 
ATOM      7  H4  E0G d   1      20.213 107.947-103.655  0.00  0.00     0.087 H 
ATOM      8  H6  E0G d   1      22.402 108.749-100.005  0.00  0.00     0.090 H 
ATOM      9  H19 E0G d   1      18.448 106.796-102.296  0.00  0.00     0.085 H 
ENDROOT
BRANCH   4  10
ATOM     10  N3  E0G d   1      22.395 109.112-102.580  0.00  0.00    -0.236 N 
ATOM     11  N4  E0G d   1      23.804 108.987-102.472  0.00  0.00    -0.162 NA
ATOM     12  C14 E0G d   1      24.408 109.947-103.253  0.00  0.00     0.176 A 
ATOM     13  C15 E0G d   1      23.405 110.741-103.823  0.00  0.00     0.070 A 
ATOM     14  C16 E0G d   1      22.163 110.203-103.385  0.00  0.00     0.053 A 
ATOM     15  C20 E0G d   1      23.402 111.994-104.813  0.00  0.00     0.164 C 
ATOM     16  C17 E0G d   1      20.853 110.948-103.900  0.00  0.00    -0.017 C 
ATOM     17  C18 E0G d   1      20.988 112.357-104.370  0.00  0.00    -0.036 C 
ATOM     18  H23 E0G d   1      20.129 110.948-103.072  0.00  0.00     0.043 H 
ATOM     19  H24 E0G d   1      20.451 110.361-104.739  0.00  0.00     0.043 H 
ATOM     20  C19 E0G d   1      22.118 112.548-105.342  0.00  0.00     0.002 C 
ATOM     21  H14 E0G d   1      22.246 113.624-105.533  0.00  0.00     0.046 H 
ATOM     22  H15 E0G d   1      21.869 112.035-106.283  0.00  0.00     0.046 H 
ATOM     23  O1  E0G d   1      24.435 112.488-105.157  0.00  0.00    -0.292 OA
BRANCH  12  24
ATOM     24  C23 E0G d   1      25.952 110.102-103.381  0.00  0.00     0.437 C 
ATOM     25  F1  E0G d   1      26.505 109.267-102.457  0.00  0.00    -0.164 F 
ATOM     26  F2  E0G d   1      26.472 109.882-104.631  0.00  0.00    -0.164 F 
ATOM     27  F3  E0G d   1      26.280 111.352-102.962  0.00  0.00    -0.164 F 
ENDBRANCH  12  24
BRANCH  17  28
ATOM     28  C21 E0G d   1      19.698 112.624-105.094  0.00  0.00    -0.069 C 
ATOM     29  H16 E0G d   1      18.854 112.490-104.401  0.00  0.00     0.028 H 
ATOM     30  H17 E0G d   1      19.597 111.922-105.935  0.00  0.00     0.028 H 
ATOM     31  H18 E0G d   1      19.699 113.656-105.476  0.00  0.00     0.028 H 
ENDBRANCH  17  28
BRANCH  17  32
ATOM     32  C22 E0G d   1      21.220 113.267-103.175  0.00  0.00    -0.069 C 
ATOM     33  H25 E0G d   1      21.320 114.307-103.520  0.00  0.00     0.028 H 
ATOM     34  H26 E0G d   1      22.141 112.963-102.656  0.00  0.00     0.028 H 
ATOM     35  H27 E0G d   1      20.367 113.190-102.484  0.00  0.00     0.028 H 
ENDBRANCH  17  32
ENDBRANCH   4  10
BRANCH   1  36
ATOM     36  N2  E0G d   1      20.559 107.491 -98.277  0.00  0.00    -0.384 N 
ATOM     37  H5  E0G d   1      19.816 106.915 -97.856  0.00  0.00     0.160 HD
BRANCH  36  38
ATOM     38  C8  E0G d   1      21.564 108.092 -97.389  0.00  0.00     0.010 C 
ATOM     39  C13 E0G d   1      21.541 107.362 -96.040  0.00  0.00    -0.044 C 
ATOM     40  C12 E0G d   1      22.572 107.975 -95.069  0.00  0.00    -0.039 C 
ATOM     41  H12 E0G d   1      21.782 106.301 -96.200  0.00  0.00     0.036 H 
ATOM     42  H13 E0G d   1      20.536 107.447 -95.600  0.00  0.00     0.036 H 
ATOM     43  C11 E0G d   1      22.522 109.518 -94.930  0.00  0.00     0.035 C 
ATOM     44  H10 E0G d   1      22.401 107.539 -94.074  0.00  0.00     0.036 H 
ATOM     45  H11 E0G d   1      23.576 107.699 -95.422  0.00  0.00     0.036 H 
ATOM     46  C10 E0G d   1      22.250 110.276 -96.241  0.00  0.00    -0.039 C 
ATOM     47  H9  E0G d   1      21.716 109.760 -94.221  0.00  0.00     0.082 H 
ATOM     48  C9  E0G d   1      21.243 109.571 -97.169  0.00  0.00    -0.044 C 
ATOM     49  H7  E0G d   1      23.201 110.386 -96.782  0.00  0.00     0.036 H 
ATOM     50  H8  E0G d   1      21.853 111.271 -95.990  0.00  0.00     0.036 H 
ATOM     51  H21 E0G d   1      20.241 109.649 -96.722  0.00  0.00     0.036 H 
ATOM     52  H22 E0G d   1      21.250 110.080 -98.144  0.00  0.00     0.036 H 
ATOM     53  H1  E0G d   1      22.561 107.997 -97.844  0.00  0.00     0.072 H 
BRANCH  43  54
ATOM     54  O3  E0G d   1      23.756 110.011 -94.416  0.00  0.00    -0.396 OA
ATOM     55  H20 E0G d   1      23.710 110.957 -94.337  0.00  0.00     0.210 HD
ENDBRANCH  43  54
ENDBRANCH  36  38
ENDBRANCH   1  36
BRANCH   2  56
ATOM     56  C7  E0G d   1      18.396 106.463 -99.658  0.00  0.00     0.251 C 
ATOM     57  N1  E0G d   1      17.615 105.464-100.356  0.00  0.00    -0.366 N 
ATOM     58  H2  E0G d   1      16.887 104.974 -99.877  0.00  0.00     0.159 HD
ATOM     59  H3  E0G d   1      17.804 105.263-101.317  0.00  0.00     0.159 HD
ATOM     60  O2  E0G d   1      18.209 106.762 -98.504  0.00  0.00    -0.268 OA
ENDBRANCH   2  56
TORSDOF 8
