REMARK  12 active torsions:
REMARK  status: ('A' for Active; 'I' for Inactive)
REMARK    1  A    between atoms: N24_6  and  C23_7 
REMARK    2  A    between atoms: C23_7  and  C20_8 
REMARK    3  A    between atoms: C7_13  and  C3_14 
REMARK    4  A    between atoms: C2_15  and  C8_16 
REMARK       I    between atoms: C8_16  and  N10_18 
REMARK    5  A    between atoms: N10_18  and  C11_19 
REMARK    6  A    between atoms: C11_19  and  C12_20 
REMARK    7  A    between atoms: C4_23  and  C6_24 
REMARK    8  A    between atoms: C14_26  and  C30_27 
REMARK    9  A    between atoms: C30_27  and  C32_28 
REMARK   10  A    between atoms: C30_27  and  C31_29 
REMARK   11  A    between atoms: C15_30  and  O34_31 
REMARK   12  A    between atoms: C17_33  and  O33_34 
ROOT
ATOM      1  C3  MOL d   1      15.266 -24.814 -21.318  0.00  0.00     0.048 A 
ATOM      2  C2  MOL d   1      15.053 -23.466 -21.480  0.00  0.00     0.165 A 
ATOM      3  N1  MOL d   1      15.124 -22.870 -20.256  0.00  0.00    -0.121 NA
ATOM      4  O5  MOL d   1      15.375 -23.875 -19.281  0.00  0.00    -0.211 OA
ATOM      5  C4  MOL d   1      15.457 -25.042 -19.946  0.00  0.00     0.128 A 
ENDROOT
BRANCH   1   6
ATOM      6  C7  MOL d   1      15.339 -25.766 -22.351  0.00  0.00    -0.021 A 
ATOM      7  C22 MOL d   1      16.499 -26.513 -22.492  0.00  0.00    -0.071 A 
ATOM      8  C21 MOL d   1      16.598 -27.464 -23.507  0.00  0.00    -0.074 A 
ATOM      9  H13 MOL d   1      17.329 -26.358 -21.813  0.00  0.00     0.084 H 
ATOM     10  C20 MOL d   1      15.545 -27.672 -24.383  0.00  0.00    -0.033 A 
ATOM     11  H12 MOL d   1      17.507 -28.046 -23.612  0.00  0.00     0.084 H 
ATOM     12  C19 MOL d   1      14.394 -26.914 -24.245  0.00  0.00    -0.074 A 
ATOM     13  C18 MOL d   1      14.285 -25.959 -23.250  0.00  0.00    -0.071 A 
ATOM     14  H14 MOL d   1      13.566 -27.071 -24.927  0.00  0.00     0.084 H 
ATOM     15  H15 MOL d   1      13.384 -25.361 -23.167  0.00  0.00     0.084 H 
BRANCH  10  16
ATOM     16  C23 MOL d   1      15.662 -28.736 -25.508  0.00  0.00     0.107 C 
ATOM     17  H10 MOL d   1      15.520 -28.241 -26.480  0.00  0.00     0.083 H 
ATOM     18  H11 MOL d   1      16.666 -29.185 -25.468  0.00  0.00     0.083 H 
BRANCH  16  19
ATOM     19  N24 MOL d   1      14.664 -29.799 -25.369  0.00  0.00    -0.063 N 
ATOM     20  C25 MOL d   1      14.678 -30.306 -24.035  0.00  0.00     0.103 C 
ATOM     21  C26 MOL d   1      14.553 -31.823 -23.908  0.00  0.00     0.042 C 
ATOM     22  H1  MOL d   1      15.627 -30.003 -23.567  0.00  0.00     0.079 H 
ATOM     23  H2  MOL d   1      13.838 -29.850 -23.490  0.00  0.00     0.079 H 
ATOM     24  O27 MOL d   1      13.753 -32.460 -24.893  0.00  0.00    -0.388 OA
ATOM     25  H3  MOL d   1      14.116 -32.045 -22.923  0.00  0.00     0.076 H 
ATOM     26  H4  MOL d   1      15.565 -32.251 -23.966  0.00  0.00     0.076 H 
ATOM     27  C28 MOL d   1      13.933 -31.991 -26.222  0.00  0.00     0.042 C 
ATOM     28  C29 MOL d   1      14.910 -30.808 -26.368  0.00  0.00     0.103 C 
ATOM     29  H5  MOL d   1      12.953 -31.674 -26.608  0.00  0.00     0.076 H 
ATOM     30  H6  MOL d   1      14.314 -32.825 -26.830  0.00  0.00     0.076 H 
ATOM     31  H7  MOL d   1      14.786 -30.362 -27.366  0.00  0.00     0.079 H 
ATOM     32  H8  MOL d   1      15.940 -31.178 -26.257  0.00  0.00     0.079 H 
ATOM     33  H9  MOL d   1      13.751 -29.408 -25.540  0.00  0.00     0.280 HD
ENDBRANCH  16  19
ENDBRANCH  10  16
ENDBRANCH   1   6
BRANCH   2  34
ATOM     34  C8  MOL d   1      14.803 -22.763 -22.811  0.00  0.00     0.273 C 
ATOM     35  O9  MOL d   1      15.305 -23.130 -23.826  0.00  0.00    -0.266 OA
ATOM     36  N10 MOL d   1      13.912 -21.632 -22.842  0.00  0.00    -0.356 N 
ATOM     37  H16 MOL d   1      13.467 -21.307 -22.008  0.00  0.00     0.162 HD
BRANCH  36  38
ATOM     38  C11 MOL d   1      13.677 -20.979 -24.110  0.00  0.00    -0.008 C 
ATOM     39  H17 MOL d   1      13.599 -21.736 -24.905  0.00  0.00     0.063 H 
ATOM     40  H18 MOL d   1      14.511 -20.297 -24.333  0.00  0.00     0.063 H 
BRANCH  38  41
ATOM     41  C12 MOL d   1      12.373 -20.183 -24.033  0.00  0.00    -0.061 C 
ATOM     42  H19 MOL d   1      12.190 -19.684 -24.996  0.00  0.00     0.029 H 
ATOM     43  H20 MOL d   1      12.451 -19.427 -23.238  0.00  0.00     0.029 H 
ATOM     44  H21 MOL d   1      11.540 -20.865 -23.810  0.00  0.00     0.029 H 
ENDBRANCH  38  41
ENDBRANCH  36  38
ENDBRANCH   2  34
BRANCH   5  45
ATOM     45  C6  MOL d   1      15.697 -26.285 -19.368  0.00  0.00     0.035 A 
ATOM     46  C13 MOL d   1      14.801 -27.336 -19.582  0.00  0.00    -0.058 A 
ATOM     47  C14 MOL d   1      15.049 -28.563 -18.991  0.00  0.00    -0.021 A 
ATOM     48  H22 MOL d   1      13.924 -27.192 -20.202  0.00  0.00     0.086 H 
ATOM     49  C15 MOL d   1      16.188 -28.718 -18.214  0.00  0.00     0.075 A 
ATOM     50  C16 MOL d   1      17.072 -27.684 -17.996  0.00  0.00    -0.018 A 
ATOM     51  C17 MOL d   1      16.820 -26.451 -18.567  0.00  0.00     0.081 A 
ATOM     52  H31 MOL d   1      17.954 -27.836 -17.384  0.00  0.00     0.092 H 
BRANCH  47  53
ATOM     53  C30 MOL d   1      14.103 -29.742 -19.179  0.00  0.00    -0.033 C 
ATOM     54  H23 MOL d   1      14.449 -30.578 -18.553  0.00  0.00     0.046 H 
BRANCH  53  55
ATOM     55  C32 MOL d   1      12.665 -29.323 -18.754  0.00  0.00    -0.069 C 
ATOM     56  H24 MOL d   1      11.980 -30.173 -18.889  0.00  0.00     0.028 H 
ATOM     57  H25 MOL d   1      12.330 -28.480 -19.376  0.00  0.00     0.028 H 
ATOM     58  H26 MOL d   1      12.669 -29.020 -17.697  0.00  0.00     0.028 H 
ENDBRANCH  53  55
BRANCH  53  59
ATOM     59  C31 MOL d   1      14.028 -30.199 -20.627  0.00  0.00    -0.069 C 
ATOM     60  H27 MOL d   1      15.028 -30.505 -20.967  0.00  0.00     0.028 H 
ATOM     61  H28 MOL d   1      13.665 -29.372 -21.254  0.00  0.00     0.028 H 
ATOM     62  H29 MOL d   1      13.337 -31.051 -20.707  0.00  0.00     0.028 H 
ENDBRANCH  53  59
ENDBRANCH  47  53
BRANCH  49  63
ATOM     63  O34 MOL d   1      16.471 -29.948 -17.674  0.00  0.00    -0.360 OA
ATOM     64  H30 MOL d   1      17.276 -29.895 -17.172  0.00  0.00     0.217 HD
ENDBRANCH  49  63
BRANCH  51  65
ATOM     65  O33 MOL d   1      17.682 -25.356 -18.381  0.00  0.00    -0.360 OA
ATOM     66  H32 MOL d   1      17.741 -25.154 -17.454  0.00  0.00     0.217 HD
ENDBRANCH  51  65
ENDBRANCH   5  45
TORSDOF 12
