REMARK  7 active torsions:
REMARK  status: ('A' for Active; 'I' for Inactive)
REMARK    1  A    between atoms: C16_1  and  N14_2 
REMARK    2  A    between atoms: C11_6  and  C6_7 
REMARK    3  A    between atoms: N8_15  and  C18_16 
REMARK    4  A    between atoms: C10_18  and  C19_19 
REMARK    5  A    between atoms: C23_24  and  N25_25 
REMARK    6  A    between atoms: N25_25  and  S26_26 
REMARK    7  A    between atoms: S26_26  and  C27_29 
ROOT
ATOM      1  C6  F5V d   1       9.399 -10.377  -9.265  0.00  0.00    -0.022 A 
ATOM      2  C1  F5V d   1       8.026 -10.076  -9.131  0.00  0.00    -0.060 A 
ATOM      3  C2  F5V d   1       7.529  -9.152  -8.164  0.00  0.00    -0.007 A 
ATOM      4  C5  F5V d   1      10.272  -9.708  -8.386  0.00  0.00    -0.071 A 
ATOM      5  C4  F5V d   1       9.859  -8.827  -7.370  0.00  0.00    -0.066 A 
ATOM      6  C3  F5V d   1       8.464  -8.521  -7.267  0.00  0.00     0.043 A 
ATOM      7  C7  F5V d   1       7.978  -7.620  -6.261  0.00  0.00     0.258 A 
ATOM      8  O17 F5V d   1       8.724  -7.023  -5.481  0.00  0.00    -0.267 OA
ATOM      9  N8  F5V d   1       6.636  -7.347  -6.151  0.00  0.00    -0.327 N 
ATOM     10  C9  F5V d   1       5.730  -8.003  -7.013  0.00  0.00    -0.006 A 
ATOM     11  C10 F5V d   1       6.134  -8.868  -8.005  0.00  0.00     0.001 A 
ATOM     12  H6  F5V d   1       7.320 -10.568  -9.790  0.00  0.00     0.086 H 
ATOM     13  H7  F5V d   1      11.335  -9.884  -8.500  0.00  0.00     0.084 H 
ATOM     14  H8  F5V d   1      10.577  -8.392  -6.684  0.00  0.00     0.085 H 
ATOM     15  H12 F5V d   1       4.665  -7.816  -6.888  0.00  0.00     0.113 H 
ENDROOT
BRANCH  11  16
ATOM     16  C19 F5V d   1       5.088  -9.429  -8.845  0.00  0.00    -0.021 A 
ATOM     17  C24 F5V d   1       3.982 -10.090  -8.278  0.00  0.00    -0.046 A 
ATOM     18  C23 F5V d   1       2.929 -10.623  -9.152  0.00  0.00     0.043 A 
ATOM     19  H13 F5V d   1       3.908 -10.205  -7.203  0.00  0.00     0.088 H 
ATOM     20  C22 F5V d   1       3.043 -10.502 -10.574  0.00  0.00    -0.057 A 
ATOM     21  C21 F5V d   1       4.172  -9.831 -11.119  0.00  0.00    -0.080 A 
ATOM     22  H16 F5V d   1       2.281 -10.915 -11.225  0.00  0.00     0.086 H 
ATOM     23  C20 F5V d   1       5.188  -9.297 -10.272  0.00  0.00    -0.072 A 
ATOM     24  H15 F5V d   1       4.262  -9.724 -12.194  0.00  0.00     0.083 H 
ATOM     25  H14 F5V d   1       6.040  -8.789 -10.708  0.00  0.00     0.084 H 
BRANCH  18  26
ATOM     26  N25 F5V d   1       1.818 -11.287  -8.726  0.00  0.00    -0.285 N 
ATOM     27  H17 F5V d   1       1.183 -11.666  -9.399  0.00  0.00     0.178 HD
BRANCH  26  28
ATOM     28  S26 F5V d   1       1.511 -11.472  -7.145  0.00  0.00     0.227 S 
ATOM     29  O29 F5V d   1       0.364 -12.468  -7.105  0.00  0.00    -0.206 OA
ATOM     30  O28 F5V d   1       2.676 -12.022  -6.428  0.00  0.00    -0.206 OA
BRANCH  28  31
ATOM     31  C27 F5V d   1       1.035  -9.871  -6.507  0.00  0.00     0.033 C 
ATOM     32  H18 F5V d   1       0.817  -9.955  -5.432  0.00  0.00     0.051 H 
ATOM     33  H19 F5V d   1       0.138  -9.517  -7.036  0.00  0.00     0.051 H 
ATOM     34  H20 F5V d   1       1.857  -9.156  -6.660  0.00  0.00     0.051 H 
ENDBRANCH  28  31
ENDBRANCH  26  28
ENDBRANCH  18  26
ENDBRANCH  11  16
BRANCH   9  35
ATOM     35  C18 F5V d   1       6.124  -6.462  -5.133  0.00  0.00    -0.011 C 
ATOM     36  H9  F5V d   1       5.031  -6.387  -5.228  0.00  0.00     0.057 H 
ATOM     37  H10 F5V d   1       6.572  -5.465  -5.255  0.00  0.00     0.057 H 
ATOM     38  H11 F5V d   1       6.379  -6.859  -4.139  0.00  0.00     0.057 H 
ENDBRANCH   9  35
BRANCH   1  39
ATOM     39  C11 F5V d   1       9.849 -11.272 -10.227  0.00  0.00     0.010 A 
ATOM     40  C15 F5V d   1      11.107 -11.696 -10.438  0.00  0.00     0.010 A 
ATOM     41  N14 F5V d   1      11.063 -12.579 -11.450  0.00  0.00    -0.285 N 
ATOM     42  H4  F5V d   1      11.995 -11.383  -9.891  0.00  0.00     0.115 H 
ATOM     43  N13 F5V d   1       9.802 -12.693 -11.929  0.00  0.00    -0.185 NA
ATOM     44  C12 F5V d   1       9.068 -11.890 -11.148  0.00  0.00     0.034 A 
ATOM     45  H5  F5V d   1       7.992 -11.752 -11.240  0.00  0.00     0.118 H 
BRANCH  41  46
ATOM     46  C16 F5V d   1      12.208 -13.329 -12.092  0.00  0.00     0.002 C 
ATOM     47  H1  F5V d   1      13.142 -13.101 -11.556  0.00  0.00     0.059 H 
ATOM     48  H2  F5V d   1      12.304 -13.021 -13.144  0.00  0.00     0.059 H 
ATOM     49  H3  F5V d   1      12.011 -14.410 -12.043  0.00  0.00     0.059 H 
ENDBRANCH  41  46
ENDBRANCH   1  39
TORSDOF 7
