REMARK  9 active torsions:
REMARK  status: ('A' for Active; 'I' for Inactive)
REMARK    1  A    between atoms: C29_1  and  C28_2 
REMARK    2  A    between atoms: C28_2  and  S27_3 
REMARK    3  A    between atoms: S27_3  and  C21_6 
REMARK    4  A    between atoms: C24_10  and  O25_11 
REMARK    5  A    between atoms: O25_11  and  C26_12 
REMARK    6  A    between atoms: C19_13  and  C10_14 
REMARK    7  A    between atoms: N8_18  and  C18_19 
REMARK    8  A    between atoms: C6_25  and  C11_26 
REMARK    9  A    between atoms: N13_30  and  C16_31 
ROOT
ATOM      1  C10 F5Y d   1      15.009  10.859   6.677  0.00  0.00     0.004 A 
ATOM      2  C2  F5Y d   1      15.430  12.060   6.074  0.00  0.00    -0.007 A 
ATOM      3  C1  F5Y d   1      16.451  12.068   5.112  0.00  0.00    -0.060 A 
ATOM      4  C9  F5Y d   1      13.982  10.954   7.598  0.00  0.00    -0.006 A 
ATOM      5  N8  F5Y d   1      13.376  12.200   7.891  0.00  0.00    -0.327 N 
ATOM      6  C7  F5Y d   1      13.769  13.376   7.349  0.00  0.00     0.258 A 
ATOM      7  O17 F5Y d   1      13.170  14.434   7.665  0.00  0.00    -0.267 OA
ATOM      8  C3  F5Y d   1      14.811  13.314   6.436  0.00  0.00     0.043 A 
ATOM      9  C4  F5Y d   1      15.269  14.490   5.782  0.00  0.00    -0.066 A 
ATOM     10  C5  F5Y d   1      16.288  14.461   4.839  0.00  0.00    -0.071 A 
ATOM     11  C6  F5Y d   1      16.917  13.259   4.450  0.00  0.00    -0.022 A 
ATOM     12  H12 F5Y d   1      16.916  11.124   4.852  0.00  0.00     0.086 H 
ATOM     13  H13 F5Y d   1      13.633  10.056   8.106  0.00  0.00     0.113 H 
ATOM     14  H17 F5Y d   1      14.808  15.440   6.027  0.00  0.00     0.085 H 
ATOM     15  H18 F5Y d   1      16.611  15.392   4.387  0.00  0.00     0.084 H 
ENDROOT
BRANCH   1  16
ATOM     16  C19 F5Y d   1      15.570   9.584   6.378  0.00  0.00     0.011 A 
ATOM     17  C20 F5Y d   1      16.262   8.869   7.370  0.00  0.00    -0.049 A 
ATOM     18  C21 F5Y d   1      16.803   7.634   7.168  0.00  0.00     0.060 A 
ATOM     19  H6  F5Y d   1      16.372   9.323   8.348  0.00  0.00     0.087 H 
ATOM     20  C22 F5Y d   1      16.701   7.001   5.934  0.00  0.00    -0.059 A 
ATOM     21  C23 F5Y d   1      15.960   7.676   4.940  0.00  0.00    -0.049 A 
ATOM     22  H7  F5Y d   1      17.166   6.040   5.745  0.00  0.00     0.085 H 
ATOM     23  C24 F5Y d   1      15.376   8.955   5.149  0.00  0.00     0.079 A 
ATOM     24  H8  F5Y d   1      15.831   7.198   3.976  0.00  0.00     0.087 H 
BRANCH  18  25
ATOM     25  S27 F5Y d   1      17.702   6.906   8.439  0.00  0.00     0.175 S 
ATOM     26  O31 F5Y d   1      18.874   6.230   7.750  0.00  0.00    -0.223 OA
ATOM     27  O30 F5Y d   1      18.191   7.908   9.408  0.00  0.00    -0.223 OA
BRANCH  25  28
ATOM     28  C28 F5Y d   1      16.476   5.933   9.383  0.00  0.00     0.030 C 
ATOM     29  H4  F5Y d   1      15.924   5.256   8.715  0.00  0.00     0.056 H 
ATOM     30  H5  F5Y d   1      16.973   5.347  10.171  0.00  0.00     0.056 H 
BRANCH  28  31
ATOM     31  C29 F5Y d   1      15.515   6.984  10.009  0.00  0.00    -0.064 C 
ATOM     32  H1  F5Y d   1      14.742   6.469  10.598  0.00  0.00     0.028 H 
ATOM     33  H2  F5Y d   1      15.038   7.567   9.208  0.00  0.00     0.028 H 
ATOM     34  H3  F5Y d   1      16.086   7.659  10.664  0.00  0.00     0.028 H 
ENDBRANCH  28  31
ENDBRANCH  25  28
ENDBRANCH  18  25
BRANCH  23  35
ATOM     35  O25 F5Y d   1      14.650   9.668   4.194  0.00  0.00    -0.355 OA
BRANCH  35  36
ATOM     36  C26 F5Y d   1      14.576   9.091   2.853  0.00  0.00     0.010 C 
ATOM     37  H9  F5Y d   1      13.979   9.748   2.204  0.00  0.00     0.066 H 
ATOM     38  H10 F5Y d   1      14.102   8.100   2.906  0.00  0.00     0.066 H 
ATOM     39  H11 F5Y d   1      15.591   8.991   2.440  0.00  0.00     0.066 H 
ENDBRANCH  35  36
ENDBRANCH  23  35
ENDBRANCH   1  16
BRANCH   5  40
ATOM     40  C18 F5Y d   1      12.274  12.151   8.906  0.00  0.00    -0.011 C 
ATOM     41  H14 F5Y d   1      12.109  11.109   9.218  0.00  0.00     0.057 H 
ATOM     42  H15 F5Y d   1      11.350  12.552   8.464  0.00  0.00     0.057 H 
ATOM     43  H16 F5Y d   1      12.554  12.756   9.781  0.00  0.00     0.057 H 
ENDBRANCH   5  40
BRANCH  11  44
ATOM     44  C11 F5Y d   1      17.955  13.236   3.563  0.00  0.00     0.010 A 
ATOM     45  C12 F5Y d   1      18.559  14.329   2.979  0.00  0.00     0.010 A 
ATOM     46  N13 F5Y d   1      19.607  13.903   2.252  0.00  0.00    -0.285 N 
ATOM     47  H19 F5Y d   1      18.241  15.365   3.088  0.00  0.00     0.115 H 
ATOM     48  N14 F5Y d   1      19.696  12.563   2.371  0.00  0.00    -0.185 NA
ATOM     49  C15 F5Y d   1      18.668  12.146   3.163  0.00  0.00     0.034 A 
ATOM     50  H20 F5Y d   1      18.452  11.113   3.432  0.00  0.00     0.118 H 
BRANCH  46  51
ATOM     51  C16 F5Y d   1      20.546  14.762   1.433  0.00  0.00     0.002 C 
ATOM     52  H21 F5Y d   1      21.302  14.124   0.953  0.00  0.00     0.059 H 
ATOM     53  H22 F5Y d   1      21.044  15.490   2.090  0.00  0.00     0.059 H 
ATOM     54  H23 F5Y d   1      19.974  15.297   0.660  0.00  0.00     0.059 H 
ENDBRANCH  46  51
ENDBRANCH  11  44
TORSDOF 9
