REMARK  12 active torsions:
REMARK  status: ('A' for Active; 'I' for Inactive)
REMARK    1  A    between atoms: C1_1  and  O_31 
REMARK    2  A    between atoms: C11_4  and  C12_5 
REMARK    3  A    between atoms: C14_7  and  N4_19 
REMARK    4  A    between atoms: C15_8  and  C16_9 
REMARK    5  A    between atoms: C15_8  and  C18_11 
REMARK    6  A    between atoms: N4_19  and  C15_8 
REMARK    7  A    between atoms: N1_26  and  C9_25 
REMARK    8  A    between atoms: C8_27  and  N1_26 
REMARK    9  A    between atoms: C7_28  and  C8_27 
REMARK   10  A    between atoms: C7_28  and  N_29 
REMARK   11  A    between atoms: C7_28  and  C6_30 
REMARK   12  A    between atoms: O_31  and  C_32 
ROOT
ATOM      1  C16 F6D d   1      23.181  -6.551  31.970  0.00  0.00     0.038 C 
ATOM      2  C17 F6D d   1      21.910  -6.677  31.270  0.00  0.00     0.061 C 
ATOM      3  N5  F6D d   1      20.934  -6.739  30.715  0.00  0.00    -0.197 NA
ATOM      4  H7  F6D d   1      23.645  -5.598  31.677  0.00  0.00     0.058 H 
ATOM      5  H8  F6D d   1      22.982  -6.544  33.052  0.00  0.00     0.058 H 
ENDROOT
BRANCH   1   6
ATOM      6  C15 F6D d   1      24.175  -7.691  31.665  0.00  0.00     0.064 C 
ATOM      7  H6  F6D d   1      24.320  -7.759  30.577  0.00  0.00     0.082 H 
BRANCH   6   8
ATOM      8  C18 F6D d   1      23.650  -9.032  32.165  0.00  0.00    -0.032 A 
ATOM      9  C19 F6D d   1      22.923  -9.878  31.331  0.00  0.00    -0.075 A 
ATOM     10  C20 F6D d   1      22.453 -11.099  31.794  0.00  0.00    -0.081 A 
ATOM     11  H9  F6D d   1      22.722  -9.579  30.308  0.00  0.00     0.084 H 
ATOM     12  C21 F6D d   1      22.702 -11.495  33.102  0.00  0.00    -0.062 A 
ATOM     13  H10 F6D d   1      21.889 -11.746  31.132  0.00  0.00     0.083 H 
ATOM     14  C22 F6D d   1      23.433 -10.652  33.921  0.00  0.00     0.034 A 
ATOM     15  H11 F6D d   1      22.332 -12.444  33.473  0.00  0.00     0.086 H 
ATOM     16  C23 F6D d   1      23.911  -9.435  33.473  0.00  0.00    -0.054 A 
ATOM     17 CL   F6D d   1      23.715 -11.107  35.579  0.00  0.00    -0.084 Cl
ATOM     18  H12 F6D d   1      24.486  -8.798  34.135  0.00  0.00     0.087 H 
ENDBRANCH   6   8
BRANCH   6  19
ATOM     19  N4  F6D d   1      25.450  -7.358  32.296  0.00  0.00    -0.211 N 
ATOM     20  H13 F6D d   1      25.502  -6.554  32.938  0.00  0.00     0.178 HD
BRANCH  19  21
ATOM     21  C14 F6D d   1      26.589  -8.104  32.046  0.00  0.00     0.756 A 
ATOM     22  N3  F6D d   1      27.727  -7.826  32.737  0.00  0.00     0.133 NA
ATOM     23  C13 F6D d   1      28.581  -8.743  32.284  0.00  0.00     0.767 A 
ATOM     24  N7  F6D d   1      27.952  -9.498  31.321  0.00  0.00    -0.027 N 
ATOM     25  N2  F6D d   1      29.858  -8.968  32.671  0.00  0.00    -0.065 NA
ATOM     26  N6  F6D d   1      26.649  -9.089  31.165  0.00  0.00     0.043 NA
ATOM     27  C9  F6D d   1      28.583 -10.499  30.630  0.00  0.00     0.146 A 
ATOM     28  C10 F6D d   1      29.898 -10.734  31.019  0.00  0.00    -0.014 A 
ATOM     29  C11 F6D d   1      30.489  -9.970  32.057  0.00  0.00     0.053 A 
ATOM     30  H14 F6D d   1      30.478 -11.511  30.522  0.00  0.00     0.092 H 
BRANCH  27  31
ATOM     31  N1  F6D d   1      27.829 -11.124  29.696  0.00  0.00    -0.372 N 
ATOM     32  H15 F6D d   1      26.849 -10.839  29.561  0.00  0.00     0.161 HD
BRANCH  31  33
ATOM     33  C8  F6D d   1      28.384 -12.191  28.882  0.00  0.00     0.024 C 
ATOM     34  H16 F6D d   1      29.467 -12.027  28.786  0.00  0.00     0.067 H 
ATOM     35  H17 F6D d   1      27.917 -12.148  27.887  0.00  0.00     0.067 H 
BRANCH  33  36
ATOM     36  C7  F6D d   1      28.155 -13.597  29.467  0.00  0.00     0.142 C 
ATOM     37  H18 F6D d   1      28.604 -13.690  30.467  0.00  0.00     0.094 H 
BRANCH  36  38
ATOM     38  N   F6D d   1      26.707 -13.834  29.547  0.00  0.00    -0.069 N 
ATOM     39  H19 F6D d   1      26.537 -14.752  29.928  0.00  0.00     0.275 HD
ATOM     40  H20 F6D d   1      26.305 -13.774  28.625  0.00  0.00     0.275 HD
ATOM     41  H21 F6D d   1      26.285 -13.139  30.143  0.00  0.00     0.275 HD
ENDBRANCH  36  38
BRANCH  36  42
ATOM     42  C6  F6D d   1      28.837 -14.551  28.485  0.00  0.00     0.007 A 
ATOM     43  C1  F6D d   1      29.774 -15.473  28.947  0.00  0.00     0.076 A 
ATOM     44  C2  F6D d   1      30.402 -16.358  28.072  0.00  0.00    -0.050 A 
ATOM     45  C3  F6D d   1      30.090 -16.315  26.719  0.00  0.00    -0.080 A 
ATOM     46  H1  F6D d   1      31.127 -17.073  28.444  0.00  0.00     0.087 H 
ATOM     47  C4  F6D d   1      29.167 -15.400  26.245  0.00  0.00    -0.082 A 
ATOM     48  H2  F6D d   1      30.572 -17.001  26.032  0.00  0.00     0.083 H 
ATOM     49  C5  F6D d   1      28.547 -14.527  27.121  0.00  0.00    -0.072 A 
ATOM     50  H26 F6D d   1      28.930 -15.367  25.188  0.00  0.00     0.083 H 
ATOM     51  H25 F6D d   1      27.825 -13.813  26.741  0.00  0.00     0.084 H 
BRANCH  43  52
ATOM     52  O   F6D d   1      30.012 -15.438  30.296  0.00  0.00    -0.355 OA
BRANCH  52  53
ATOM     53  C   F6D d   1      30.919 -16.401  30.829  0.00  0.00     0.010 C 
ATOM     54  H22 F6D d   1      31.012 -16.255  31.915  0.00  0.00     0.066 H 
ATOM     55  H23 F6D d   1      31.904 -16.277  30.356  0.00  0.00     0.066 H 
ATOM     56  H24 F6D d   1      30.540 -17.413  30.627  0.00  0.00     0.066 H 
ENDBRANCH  52  53
ENDBRANCH  43  52
ENDBRANCH  36  42
ENDBRANCH  33  36
ENDBRANCH  31  33
ENDBRANCH  27  31
BRANCH  29  57
ATOM     57  C12 F6D d   1      31.856 -10.314  32.563  0.00  0.00    -0.035 C 
ATOM     58  H3  F6D d   1      32.264 -11.150  31.977  0.00  0.00     0.035 H 
ATOM     59  H4  F6D d   1      31.793 -10.605  33.622  0.00  0.00     0.035 H 
ATOM     60  H5  F6D d   1      32.515  -9.439  32.462  0.00  0.00     0.035 H 
ENDBRANCH  29  57
ENDBRANCH  19  21
ENDBRANCH   6  19
ENDBRANCH   1   6
TORSDOF 12
