REMARK  5 active torsions:
REMARK  status: ('A' for Active; 'I' for Inactive)
REMARK    1  A    between atoms: C10_2  and  C7_4 
REMARK    2  A    between atoms: C2_6  and  C1_7 
REMARK       I    between atoms: N21_21  and  C2_6 
REMARK       I    between atoms: N18_18  and  C4_9 
REMARK    3  A    between atoms: C4_9  and  C22_22 
REMARK    4  A    between atoms: N12_12  and  C35_35 
REMARK    5  A    between atoms: C14_14  and  N18_18 
ROOT
ATOM      1  C22 F7M d   1     -11.756  25.777  -3.445  0.00  0.00     0.125 A 
ATOM      2  N23 F7M d   1     -11.062  25.143  -4.387  0.00  0.00    -0.255 NA
ATOM      3  C24 F7M d   1     -11.591  24.094  -5.046  0.00  0.00     0.004 A 
ATOM      4  C25 F7M d   1     -12.875  23.621  -4.758  0.00  0.00    -0.046 A 
ATOM      5  C26 F7M d   1     -13.620  24.287  -3.734  0.00  0.00     0.048 A 
ATOM      6  C27 F7M d   1     -13.052  25.380  -3.054  0.00  0.00    -0.030 A 
ATOM      7  C28 F7M d   1     -14.908  23.881  -3.262  0.00  0.00     0.099 C 
ATOM      8  N29 F7M d   1     -15.918  23.548  -2.876  0.00  0.00    -0.191 NA
ATOM      9  H16 F7M d   1     -11.008  23.605  -5.818  0.00  0.00     0.114 H 
ATOM     10  H17 F7M d   1     -13.293  22.776  -5.294  0.00  0.00     0.088 H 
ATOM     11  H18 F7M d   1     -13.587  25.895  -2.264  0.00  0.00     0.089 H 
ENDROOT
BRANCH   1  12
ATOM     12  C4  F7M d   1     -11.184  26.932  -2.797  0.00  0.00     0.274 C 
ATOM     13  O5  F7M d   1     -11.950  27.786  -2.373  0.00  0.00    -0.266 OA
ATOM     14  N18 F7M d   1      -9.832  26.995  -2.689  0.00  0.00    -0.322 N 
ATOM     15  H11 F7M d   1      -9.283  26.230  -3.025  0.00  0.00     0.169 HD
BRANCH  14  16
ATOM     16  C14 F7M d   1      -9.188  28.089  -2.126  0.00  0.00     0.036 A 
ATOM     17  C9  F7M d   1      -8.400  28.874  -2.948  0.00  0.00    -0.044 A 
ATOM     18  C6  F7M d   1      -7.702  29.968  -2.430  0.00  0.00     0.001 A 
ATOM     19  H3  F7M d   1      -8.323  28.639  -4.003  0.00  0.00     0.088 H 
ATOM     20  C7  F7M d   1      -6.779  31.010  -2.959  0.00  0.00    -0.026 A 
ATOM     21  C8  F7M d   1      -7.861  30.237  -1.061  0.00  0.00     0.044 A 
ATOM     22  C11 F7M d   1      -6.477  31.831  -1.912  0.00  0.00    -0.013 A 
ATOM     23  N12 F7M d   1      -7.088  31.344  -0.778  0.00  0.00    -0.360 N 
ATOM     24  H1  F7M d   1      -5.856  32.724  -1.964  0.00  0.00     0.112 H 
ATOM     25  C13 F7M d   1      -8.679  29.426  -0.241  0.00  0.00    -0.054 A 
ATOM     26  C17 F7M d   1      -9.322  28.353  -0.752  0.00  0.00    -0.055 A 
ATOM     27  H5  F7M d   1      -8.792  29.668   0.810  0.00  0.00     0.087 H 
ATOM     28  H10 F7M d   1      -9.925  27.713  -0.119  0.00  0.00     0.087 H 
BRANCH  20  29
ATOM     29  C10 F7M d   1      -6.363  31.193  -4.416  0.00  0.00    -0.024 C 
ATOM     30  C15 F7M d   1      -7.658  31.577  -5.211  0.00  0.00    -0.043 C 
ATOM     31  C19 F7M d   1      -7.339  31.923  -6.707  0.00  0.00    -0.002 C 
ATOM     32  H6  F7M d   1      -8.123  32.453  -4.734  0.00  0.00     0.036 H 
ATOM     33  H7  F7M d   1      -8.358  30.729  -5.183  0.00  0.00     0.036 H 
ATOM     34  N21 F7M d   1      -6.296  33.002  -6.687  0.00  0.00    -0.352 N 
ATOM     35  H12 F7M d   1      -8.246  32.282  -7.215  0.00  0.00     0.064 H 
ATOM     36  H13 F7M d   1      -6.955  31.034  -7.228  0.00  0.00     0.064 H 
ATOM     37  C2  F7M d   1      -6.642  34.236  -7.166  0.00  0.00     0.224 C 
ATOM     38  C20 F7M d   1      -5.012  32.645  -6.069  0.00  0.00    -0.002 C 
ATOM     39  O3  F7M d   1      -7.780  34.309  -7.579  0.00  0.00    -0.273 OA
ATOM     40  C16 F7M d   1      -5.265  32.286  -4.593  0.00  0.00    -0.043 C 
ATOM     41  H14 F7M d   1      -4.576  31.781  -6.592  0.00  0.00     0.064 H 
ATOM     42  H15 F7M d   1      -4.321  33.498  -6.130  0.00  0.00     0.064 H 
ATOM     43  H8  F7M d   1      -4.326  31.915  -4.156  0.00  0.00     0.036 H 
ATOM     44  H9  F7M d   1      -5.584  33.194  -4.060  0.00  0.00     0.036 H 
ATOM     45  H2  F7M d   1      -5.967  30.241  -4.799  0.00  0.00     0.047 H 
BRANCH  37  46
ATOM     46  C1  F7M d   1      -5.922  35.602  -7.296  0.00  0.00     0.024 C 
ATOM     47  C30 F7M d   1      -5.069  36.071  -6.146  0.00  0.00    -0.054 C 
ATOM     48  C31 F7M d   1      -4.474  37.482  -6.389  0.00  0.00    -0.064 C 
ATOM     49  H19 F7M d   1      -4.243  35.359  -6.005  0.00  0.00     0.034 H 
ATOM     50  H20 F7M d   1      -5.687  36.100  -5.237  0.00  0.00     0.034 H 
ATOM     51  C32 F7M d   1      -4.232  37.982  -7.844  0.00  0.00    -0.065 C 
ATOM     52  H21 F7M d   1      -3.501  37.509  -5.877  0.00  0.00     0.033 H 
ATOM     53  H22 F7M d   1      -5.158  38.202  -5.915  0.00  0.00     0.033 H 
ATOM     54  C33 F7M d   1      -4.914  37.224  -8.986  0.00  0.00    -0.064 C 
ATOM     55  H23 F7M d   1      -3.148  37.944  -8.027  0.00  0.00     0.033 H 
ATOM     56  H24 F7M d   1      -4.576  39.026  -7.893  0.00  0.00     0.033 H 
ATOM     57  C34 F7M d   1      -5.251  35.783  -8.671  0.00  0.00    -0.054 C 
ATOM     58  H25 F7M d   1      -4.242  37.237  -9.856  0.00  0.00     0.033 H 
ATOM     59  H26 F7M d   1      -5.848  37.748  -9.236  0.00  0.00     0.033 H 
ATOM     60  H27 F7M d   1      -5.935  35.407  -9.446  0.00  0.00     0.034 H 
ATOM     61  H28 F7M d   1      -4.321  35.196  -8.686  0.00  0.00     0.034 H 
ATOM     62  H4  F7M d   1      -6.751  36.325  -7.302  0.00  0.00     0.054 H 
ENDBRANCH  37  46
ENDBRANCH  20  29
BRANCH  23  63
ATOM     63  C35 F7M d   1      -7.024  31.896   0.590  0.00  0.00    -0.014 C 
ATOM     64  H29 F7M d   1      -6.357  32.771   0.602  0.00  0.00     0.057 H 
ATOM     65  H30 F7M d   1      -6.635  31.130   1.277  0.00  0.00     0.057 H 
ATOM     66  H31 F7M d   1      -8.032  32.199   0.911  0.00  0.00     0.057 H 
ENDBRANCH  23  63
ENDBRANCH  14  16
ENDBRANCH   1  12
TORSDOF 5
