REMARK  9 active torsions:
REMARK  status: ('A' for Active; 'I' for Inactive)
REMARK       I    between atoms: C20_2  and  N4_3 
REMARK    1  A    between atoms: C20_2  and  C19_21 
REMARK    2  A    between atoms: N5_6  and  C25_7 
REMARK    3  A    between atoms: C28_10  and  C31_11 
REMARK    4  A    between atoms: C19_21  and  N_22 
REMARK    5  A    between atoms: C3_25  and  S_27 
REMARK    6  A    between atoms: C3_25  and  C4_29 
REMARK    7  A    between atoms: S_27  and  C18_28 
REMARK       I    between atoms: C4_29  and  N1_31 
REMARK    8  A    between atoms: N1_31  and  C5_32 
REMARK    9  A    between atoms: C11_35  and  C12_41 
ROOT
ATOM      1  N   F8V d   1      48.809  18.374   9.387  0.00  0.00    -0.061 N 
ATOM      2  C1  F8V d   1      47.425  18.114   8.921  0.00  0.00     0.086 C 
ATOM      3  C2  F8V d   1      47.350  16.607   8.863  0.00  0.00    -0.017 C 
ATOM      4  C3  F8V d   1      48.277  16.164  10.008  0.00  0.00     0.114 C 
ATOM      5  C   F8V d   1      48.940  17.423  10.578  0.00  0.00     0.108 C 
ATOM      6  H18 F8V d   1      49.453  18.103   8.661  0.00  0.00     0.280 HD
ATOM      7  H19 F8V d   1      47.255  18.555   7.928  0.00  0.00     0.076 H 
ATOM      8  H20 F8V d   1      46.688  18.517   9.632  0.00  0.00     0.076 H 
ATOM      9  H21 F8V d   1      47.712  16.231   7.895  0.00  0.00     0.038 H 
ATOM     10  H22 F8V d   1      46.321  16.257   9.031  0.00  0.00     0.038 H 
ATOM     11  H23 F8V d   1      48.402  17.801  11.460  0.00  0.00     0.079 H 
ATOM     12  H24 F8V d   1      49.993  17.244  10.840  0.00  0.00     0.079 H 
ENDROOT
BRANCH   1  13
ATOM     13  C19 F8V d   1      49.138  19.787   9.761  0.00  0.00     0.156 C 
ATOM     14  H16 F8V d   1      48.326  20.194  10.382  0.00  0.00     0.090 H 
ATOM     15  H17 F8V d   1      50.078  19.799  10.332  0.00  0.00     0.090 H 
BRANCH  13  16
ATOM     16  C20 F8V d   1      49.298  20.654   8.517  0.00  0.00     0.245 C 
ATOM     17  O1  F8V d   1      49.336  20.084   7.428  0.00  0.00    -0.272 OA
ATOM     18  N4  F8V d   1      49.285  21.999   8.613  0.00  0.00    -0.348 N 
ATOM     19  C24 F8V d   1      49.082  22.854   7.449  0.00  0.00     0.013 C 
ATOM     20  C21 F8V d   1      49.089  22.812   9.813  0.00  0.00     0.013 C 
ATOM     21  C23 F8V d   1      47.637  23.268   7.403  0.00  0.00     0.010 C 
ATOM     22  H1  F8V d   1      49.338  22.300   6.534  0.00  0.00     0.066 H 
ATOM     23  H2  F8V d   1      49.721  23.746   7.529  0.00  0.00     0.066 H 
ATOM     24  N5  F8V d   1      47.221  23.927   8.654  0.00  0.00    -0.378 N 
ATOM     25  H3  F8V d   1      47.015  22.375   7.246  0.00  0.00     0.066 H 
ATOM     26  H4  F8V d   1      47.492  23.967   6.566  0.00  0.00     0.066 H 
ATOM     27  C22 F8V d   1      47.633  23.221   9.883  0.00  0.00     0.010 C 
ATOM     28  H12 F8V d   1      47.012  22.321  10.006  0.00  0.00     0.066 H 
ATOM     29  H13 F8V d   1      47.488  23.887  10.746  0.00  0.00     0.066 H 
ATOM     30  H14 F8V d   1      49.724  23.709   9.762  0.00  0.00     0.066 H 
ATOM     31  H15 F8V d   1      49.353  22.226  10.706  0.00  0.00     0.066 H 
BRANCH  24  32
ATOM     32  C25 F8V d   1      45.909  24.496   8.579  0.00  0.00     0.030 A 
ATOM     33  C30 F8V d   1      45.438  25.045   7.376  0.00  0.00    -0.056 A 
ATOM     34  C29 F8V d   1      44.103  25.362   7.214  0.00  0.00    -0.067 A 
ATOM     35  H5  F8V d   1      46.132  25.223   6.562  0.00  0.00     0.086 H 
ATOM     36  C28 F8V d   1      43.195  25.231   8.263  0.00  0.00     0.012 A 
ATOM     37  H6  F8V d   1      43.755  25.720   6.252  0.00  0.00     0.085 H 
ATOM     38  C27 F8V d   1      43.685  24.798   9.494  0.00  0.00    -0.067 A 
ATOM     39  C26 F8V d   1      45.008  24.410   9.649  0.00  0.00    -0.056 A 
ATOM     40  H10 F8V d   1      43.018  24.764  10.348  0.00  0.00     0.085 H 
ATOM     41  H11 F8V d   1      45.348  24.036  10.608  0.00  0.00     0.086 H 
BRANCH  36  42
ATOM     42  C31 F8V d   1      41.743  25.511   8.060  0.00  0.00     0.159 A 
ATOM     43  N7  F8V d   1      41.319  25.640   6.791  0.00  0.00    -0.241 NA
ATOM     44  C34 F8V d   1      39.990  25.722   6.622  0.00  0.00     0.006 A 
ATOM     45  C33 F8V d   1      39.091  25.695   7.664  0.00  0.00    -0.049 A 
ATOM     46  H7  F8V d   1      39.605  25.814   5.613  0.00  0.00     0.114 H 
ATOM     47  C32 F8V d   1      39.636  25.571   8.920  0.00  0.00     0.006 A 
ATOM     48  H8  F8V d   1      38.021  25.767   7.504  0.00  0.00     0.087 H 
ATOM     49  N6  F8V d   1      40.955  25.477   9.148  0.00  0.00    -0.241 NA
ATOM     50  H9  F8V d   1      38.965  25.548   9.771  0.00  0.00     0.114 H 
ENDBRANCH  36  42
ENDBRANCH  24  32
ENDBRANCH  13  16
ENDBRANCH   1  13
BRANCH   4  51
ATOM     51  S   F8V d   1      47.199  15.442  11.322  0.00  0.00    -0.152 SA
BRANCH  51  52
ATOM     52  C18 F8V d   1      48.201  14.975  12.739  0.00  0.00    -0.033 C 
ATOM     53  H25 F8V d   1      47.555  14.546  13.519  0.00  0.00     0.041 H 
ATOM     54  H26 F8V d   1      48.713  15.864  13.135  0.00  0.00     0.041 H 
ATOM     55  H27 F8V d   1      48.948  14.229  12.430  0.00  0.00     0.041 H 
ENDBRANCH  51  52
ENDBRANCH   4  51
BRANCH   4  56
ATOM     56  C4  F8V d   1      49.326  15.154   9.536  0.00  0.00     0.242 C 
ATOM     57  O   F8V d   1      50.478  15.504   9.326  0.00  0.00    -0.271 OA
ATOM     58  N1  F8V d   1      48.859  13.909   9.311  0.00  0.00    -0.326 N 
ATOM     59  H28 F8V d   1      47.900  13.742   9.541  0.00  0.00     0.169 HD
BRANCH  58  60
ATOM     60  C5  F8V d   1      49.583  12.816   8.784  0.00  0.00     0.035 A 
ATOM     61  C10 F8V d   1      49.063  11.536   8.977  0.00  0.00    -0.043 A 
ATOM     62  C9  F8V d   1      49.753  10.428   8.490  0.00  0.00     0.025 A 
ATOM     63  H29 F8V d   1      48.125  11.404   9.504  0.00  0.00     0.088 H 
ATOM     64  C11 F8V d   1      49.558   8.971   8.527  0.00  0.00     0.099 A 
ATOM     65  C8  F8V d   1      50.953  10.636   7.784  0.00  0.00     0.062 A 
ATOM     66  N2  F8V d   1      50.579   8.422   7.873  0.00  0.00    -0.173 NA
ATOM     67  N3  F8V d   1      51.409   9.407   7.438  0.00  0.00    -0.277 N 
ATOM     68  H30 F8V d   1      52.278   9.240   6.910  0.00  0.00     0.189 HD
ATOM     69  C7  F8V d   1      51.469  11.907   7.578  0.00  0.00    -0.053 A 
ATOM     70  C6  F8V d   1      50.780  12.995   8.088  0.00  0.00    -0.055 A 
ATOM     71  H31 F8V d   1      52.393  12.046   7.029  0.00  0.00     0.087 H 
ATOM     72  H32 F8V d   1      51.174  13.995   7.945  0.00  0.00     0.087 H 
BRANCH  64  73
ATOM     73  C12 F8V d   1      48.472   8.185   9.178  0.00  0.00    -0.005 A 
ATOM     74  C17 F8V d   1      48.078   6.951   8.653  0.00  0.00    -0.068 A 
ATOM     75  C16 F8V d   1      47.096   6.197   9.274  0.00  0.00    -0.045 A 
ATOM     76  H33 F8V d   1      48.547   6.580   7.749  0.00  0.00     0.085 H 
ATOM     77  C15 F8V d   1      46.511   6.698  10.410  0.00  0.00     0.116 A 
ATOM     78  H34 F8V d   1      46.797   5.235   8.873  0.00  0.00     0.088 H 
ATOM     79  F   F8V d   1      45.532   5.968  11.016  0.00  0.00    -0.206 F 
ATOM     80  C14 F8V d   1      46.868   7.904  10.964  0.00  0.00    -0.045 A 
ATOM     81  C13 F8V d   1      47.857   8.646  10.339  0.00  0.00    -0.068 A 
ATOM     82  H35 F8V d   1      46.388   8.265  11.867  0.00  0.00     0.088 H 
ATOM     83  H36 F8V d   1      48.156   9.599  10.760  0.00  0.00     0.085 H 
ENDBRANCH  64  73
ENDBRANCH  58  60
ENDBRANCH   4  56
TORSDOF 9
