REMARK  14 active torsions:
REMARK  status: ('A' for Active; 'I' for Inactive)
REMARK    1  A    between atoms: CA_2  and  N_1 
REMARK    2  A    between atoms: C_3  and  CA_2 
REMARK       I    between atoms: NAY_35  and  C_3 
REMARK    3  A    between atoms: CBJ_32  and  CAA_5 
REMARK    4  A    between atoms: CBJ_32  and  CAB_6 
REMARK    5  A    between atoms: NBK_37  and  CAC_7 
REMARK    6  A    between atoms: CAO_17  and  CAP_18 
REMARK    7  A    between atoms: NAW_33  and  CAO_17 
REMARK    8  A    between atoms: CAP_18  and  CBD_26 
REMARK    9  A    between atoms: CBE_27  and  CAV_23 
REMARK   10  A    between atoms: CAV_23  and  NBL_38 
REMARK   11  A    between atoms: CBB_24  and  NAW_33 
REMARK   12  A    between atoms: NAX_34  and  CBB_24 
REMARK   13  A    between atoms: CBC_25  and  NAX_34 
REMARK   14  A    between atoms: CBJ_32  and  NAY_35 
ROOT
ATOM      1  N   F8J d   1      -9.891   3.729  -1.903  0.00  0.00    -0.347 N 
ATOM      2  CAH F8J d   1     -12.665   0.941  -0.944  0.00  0.00    -0.056 A 
ATOM      3  CAK F8J d   1     -12.523   1.545  -2.185  0.00  0.00    -0.068 A 
ATOM      4  CAM F8J d   1     -10.826   2.256  -0.185  0.00  0.00    -0.030 A 
ATOM      5  CAN F8J d   1     -10.201   3.948  -3.180  0.00  0.00    -0.011 A 
ATOM      6  CBC F8J d   1     -11.814   1.314   0.090  0.00  0.00     0.036 A 
ATOM      7  CBE F8J d   1     -11.234   3.166  -3.459  0.00  0.00    -0.004 A 
ATOM      8  CBH F8J d   1     -11.567   2.452  -2.385  0.00  0.00     0.000 A 
ATOM      9  CBI F8J d   1     -10.729   2.809  -1.402  0.00  0.00     0.047 A 
ATOM     10  H14 F8J d   1     -13.429   0.189  -0.783  0.00  0.00     0.086 H 
ATOM     11  H17 F8J d   1     -13.192   1.278  -2.995  0.00  0.00     0.085 H 
ATOM     12  H19 F8J d   1     -10.129   2.545   0.593  0.00  0.00     0.090 H 
ATOM     13  H20 F8J d   1      -9.703   4.636  -3.862  0.00  0.00     0.112 H 
ENDROOT
BRANCH   6  14
ATOM     14  NAX F8J d   1     -11.912   0.738   1.304  0.00  0.00    -0.333 N 
ATOM     15  H37 F8J d   1     -11.118   0.271   1.693  0.00  0.00     0.168 HD
BRANCH  14  16
ATOM     16  CBB F8J d   1     -13.071   0.782   2.006  0.00  0.00     0.172 C 
ATOM     17  SAE F8J d   1     -13.147   0.017   3.520  0.00  0.00    -0.041 SA
BRANCH  16  18
ATOM     18  NAW F8J d   1     -14.147   1.442   1.535  0.00  0.00    -0.367 N 
ATOM     19  H36 F8J d   1     -14.059   1.910   0.656  0.00  0.00     0.161 HD
BRANCH  18  20
ATOM     20  CAO F8J d   1     -15.444   1.521   2.227  0.00  0.00    -0.002 C 
ATOM     21  H21 F8J d   1     -15.817   0.505   2.424  0.00  0.00     0.064 H 
ATOM     22  H22 F8J d   1     -15.319   2.056   3.180  0.00  0.00     0.064 H 
BRANCH  20  23
ATOM     23  CAP F8J d   1     -16.457   2.278   1.341  0.00  0.00    -0.024 C 
ATOM     24  H23 F8J d   1     -16.117   3.317   1.219  0.00  0.00     0.042 H 
ATOM     25  H24 F8J d   1     -17.440   2.269   1.835  0.00  0.00     0.042 H 
BRANCH  23  26
ATOM     26  CBD F8J d   1     -16.592   1.629  -0.051  0.00  0.00    -0.029 A 
ATOM     27  CAL F8J d   1     -15.908   1.996  -1.134  0.00  0.00    -0.015 A 
ATOM     28  NAZ F8J d   1     -16.310   1.204  -2.127  0.00  0.00    -0.365 N 
ATOM     29  H18 F8J d   1     -15.165   2.789  -1.196  0.00  0.00     0.112 H 
ATOM     30  CBF F8J d   1     -17.235   0.361  -1.656  0.00  0.00     0.042 A 
ATOM     31  H39 F8J d   1     -15.965   1.236  -3.097  0.00  0.00     0.165 HD
ATOM     32  CAI F8J d   1     -17.931  -0.608  -2.251  0.00  0.00    -0.056 A 
ATOM     33  CBG F8J d   1     -17.417   0.629  -0.358  0.00  0.00    -0.002 A 
ATOM     34  CAF F8J d   1     -18.859  -1.363  -1.546  0.00  0.00    -0.081 A 
ATOM     35  H15 F8J d   1     -17.770  -0.810  -3.304  0.00  0.00     0.086 H 
ATOM     36  CAG F8J d   1     -19.047  -1.083  -0.200  0.00  0.00    -0.082 A 
ATOM     37  H12 F8J d   1     -19.422  -2.150  -2.034  0.00  0.00     0.083 H 
ATOM     38  CAJ F8J d   1     -18.294  -0.065   0.371  0.00  0.00    -0.070 A 
ATOM     39  H13 F8J d   1     -19.763  -1.644   0.390  0.00  0.00     0.083 H 
ATOM     40  H16 F8J d   1     -18.420   0.169   1.422  0.00  0.00     0.084 H 
ENDBRANCH  23  26
ENDBRANCH  20  23
ENDBRANCH  18  20
ENDBRANCH  16  18
ENDBRANCH  14  16
ENDBRANCH   6  14
BRANCH   1  41
ATOM     41  CA  F8J d   1      -8.789   4.420  -1.197  0.00  0.00     0.073 C 
ATOM     42  H1  F8J d   1      -8.210   5.014  -1.919  0.00  0.00     0.079 H 
ATOM     43  H2  F8J d   1      -8.133   3.673  -0.726  0.00  0.00     0.079 H 
BRANCH  41  44
ATOM     44  C   F8J d   1      -9.361   5.349  -0.115  0.00  0.00     0.236 C 
ATOM     45  O   F8J d   1     -10.556   5.645  -0.099  0.00  0.00    -0.272 OA
ATOM     46  NAY F8J d   1      -8.469   5.804   0.776  0.00  0.00    -0.356 N 
ATOM     47  H38 F8J d   1      -7.514   5.519   0.695  0.00  0.00     0.162 HD
BRANCH  46  48
ATOM     48  CBJ F8J d   1      -8.852   6.711   1.870  0.00  0.00     0.005 C 
ATOM     49  H35 F8J d   1      -9.929   6.611   2.070  0.00  0.00     0.071 H 
BRANCH  48  50
ATOM     50  CAA F8J d   1      -8.540   8.153   1.468  0.00  0.00    -0.058 C 
ATOM     51  H3  F8J d   1      -8.826   8.832   2.285  0.00  0.00     0.030 H 
ATOM     52  H4  F8J d   1      -9.107   8.412   0.561  0.00  0.00     0.030 H 
ATOM     53  H5  F8J d   1      -7.463   8.253   1.268  0.00  0.00     0.030 H 
ENDBRANCH  48  50
BRANCH  48  54
ATOM     54  CAB F8J d   1      -8.062   6.351   3.133  0.00  0.00    -0.058 C 
ATOM     55  H6  F8J d   1      -8.286   5.314   3.422  0.00  0.00     0.030 H 
ATOM     56  H7  F8J d   1      -8.348   7.030   3.950  0.00  0.00     0.030 H 
ATOM     57  H8  F8J d   1      -6.985   6.451   2.933  0.00  0.00     0.030 H 
ENDBRANCH  48  54
ENDBRANCH  46  48
ENDBRANCH  41  44
ENDBRANCH   1  41
BRANCH   7  58
ATOM     58  CAV F8J d   1     -11.922   3.077  -4.834  0.00  0.00     0.109 C 
ATOM     59  H33 F8J d   1     -12.641   2.245  -4.811  0.00  0.00     0.083 H 
ATOM     60  H34 F8J d   1     -11.154   2.877  -5.596  0.00  0.00     0.083 H 
BRANCH  58  61
ATOM     61  NBL F8J d   1     -12.643   4.308  -5.210  0.00  0.00    -0.064 N 
ATOM     62  CAS F8J d   1     -13.769   4.535  -4.287  0.00  0.00     0.106 C 
ATOM     63  CAQ F8J d   1     -14.587   5.748  -4.705  0.00  0.00     0.105 C 
ATOM     64  H29 F8J d   1     -14.418   3.647  -4.288  0.00  0.00     0.078 H 
ATOM     65  H30 F8J d   1     -13.374   4.700  -3.274  0.00  0.00     0.078 H 
ATOM     66  NBK F8J d   1     -15.118   5.560  -6.066  0.00  0.00    -0.072 N 
ATOM     67  H25 F8J d   1     -13.947   6.642  -4.685  0.00  0.00     0.078 H 
ATOM     68  H26 F8J d   1     -15.424   5.881  -4.004  0.00  0.00     0.078 H 
ATOM     69  CAR F8J d   1     -13.997   5.357  -6.997  0.00  0.00     0.105 C 
ATOM     70  H40 F8J d   1     -15.712   4.746  -6.081  0.00  0.00     0.279 HD
ATOM     71  CAT F8J d   1     -13.167   4.148  -6.580  0.00  0.00     0.106 C 
ATOM     72  H27 F8J d   1     -14.393   5.192  -8.010  0.00  0.00     0.078 H 
ATOM     73  H28 F8J d   1     -13.358   6.253  -6.995  0.00  0.00     0.078 H 
ATOM     74  H31 F8J d   1     -12.323   4.035  -7.276  0.00  0.00     0.078 H 
ATOM     75  H32 F8J d   1     -13.798   3.248  -6.620  0.00  0.00     0.078 H 
ATOM     76  H41 F8J d   1     -12.013   5.094  -5.174  0.00  0.00     0.280 HD
BRANCH  66  77
ATOM     77  CAC F8J d   1     -15.906   6.736  -6.469  0.00  0.00     0.066 C 
ATOM     78  H9  F8J d   1     -16.740   6.877  -5.766  0.00  0.00     0.068 H 
ATOM     79  H10 F8J d   1     -16.303   6.581  -7.483  0.00  0.00     0.068 H 
ATOM     80  H11 F8J d   1     -15.264   7.629  -6.459  0.00  0.00     0.068 H 
ENDBRANCH  66  77
ENDBRANCH  58  61
ENDBRANCH   7  58
TORSDOF 14
