REMARK  2 active torsions:
REMARK  status: ('A' for Active; 'I' for Inactive)
REMARK    1  A    between atoms: C05_3  and  C02_2 
REMARK       I    between atoms: C02_2  and  N03_8 
REMARK    2  A    between atoms: N03_8  and  O04_10 
ROOT
ATOM      1  C10 FBM d   1      29.974  -3.173  -7.844  0.00  0.00    -0.036 C 
ATOM      2  C05 FBM d   1      28.567  -3.575  -7.859  0.00  0.00     0.008 C 
ATOM      3  C06 FBM d   1      28.085  -4.474  -8.757  0.00  0.00    -0.091 C 
ATOM      4  C07 FBM d   1      29.008  -5.160  -9.708  0.00  0.00    -0.049 C 
ATOM      5  C08 FBM d   1      30.155  -4.277 -10.143  0.00  0.00    -0.062 C 
ATOM      6  C09 FBM d   1      30.885  -3.705  -8.934  0.00  0.00    -0.061 C 
ATOM      7  H1  FBM d   1      30.395  -3.497  -6.881  0.00  0.00     0.040 H 
ATOM      8  H2  FBM d   1      30.000  -2.075  -7.905  0.00  0.00     0.040 H 
ATOM      9  H3  FBM d   1      27.019  -4.695  -8.783  0.00  0.00     0.077 H 
ATOM     10  H4  FBM d   1      28.437  -5.460 -10.599  0.00  0.00     0.038 H 
ATOM     11  H5  FBM d   1      29.419  -6.055  -9.217  0.00  0.00     0.038 H 
ATOM     12  H6  FBM d   1      29.762  -3.450 -10.752  0.00  0.00     0.033 H 
ATOM     13  H7  FBM d   1      30.860  -4.871 -10.742  0.00  0.00     0.033 H 
ATOM     14  H8  FBM d   1      31.510  -4.500  -8.502  0.00  0.00     0.033 H 
ATOM     15  H9  FBM d   1      31.527  -2.881  -9.278  0.00  0.00     0.033 H 
ENDROOT
BRANCH   2  16
ATOM     16  C02 FBM d   1      27.730  -2.854  -6.855  0.00  0.00     0.270 C 
ATOM     17  N03 FBM d   1      26.415  -2.813  -7.115  0.00  0.00    -0.234 N 
ATOM     18  H10 FBM d   1      26.037  -3.266  -7.922  0.00  0.00     0.197 HD
ATOM     19  O01 FBM d   1      28.157  -2.285  -5.831  0.00  0.00    -0.266 OA
BRANCH  17  20
ATOM     20  O04 FBM d   1      25.596  -2.127  -6.236  0.00  0.00    -0.287 OA
ATOM     21  H11 FBM d   1      24.697  -2.178  -6.538  0.00  0.00     0.244 HD
ENDBRANCH  17  20
ENDBRANCH   2  16
TORSDOF 2
