REMARK  2 active torsions:
REMARK  status: ('A' for Active; 'I' for Inactive)
REMARK    1  A    between atoms: C05_3  and  C02_2 
REMARK       I    between atoms: C02_2  and  N03_8 
REMARK    2  A    between atoms: N03_8  and  O04_10 
ROOT
ATOM      1  C10 F9P d   1     -27.870  -4.496   8.726  0.00  0.00    -0.053 C 
ATOM      2  C05 F9P d   1     -28.662  -3.718   7.676  0.00  0.00     0.025 C 
ATOM      3  C06 F9P d   1     -29.771  -2.889   8.325  0.00  0.00    -0.053 C 
ATOM      4  C07 F9P d   1     -30.662  -3.695   9.256  0.00  0.00    -0.064 C 
ATOM      5  C08 F9P d   1     -29.817  -4.400  10.311  0.00  0.00    -0.065 C 
ATOM      6  C09 F9P d   1     -28.787  -5.300   9.652  0.00  0.00    -0.064 C 
ATOM      7  H1  F9P d   1     -27.288  -3.785   9.331  0.00  0.00     0.034 H 
ATOM      8  H2  F9P d   1     -27.186  -5.189   8.214  0.00  0.00     0.034 H 
ATOM      9  H3  F9P d   1     -29.148  -4.449   7.013  0.00  0.00     0.054 H 
ATOM     10  H4  F9P d   1     -30.397  -2.460   7.529  0.00  0.00     0.034 H 
ATOM     11  H5  F9P d   1     -29.306  -2.077   8.904  0.00  0.00     0.034 H 
ATOM     12  H6  F9P d   1     -31.214  -4.446   8.671  0.00  0.00     0.033 H 
ATOM     13  H7  F9P d   1     -31.375  -3.020   9.752  0.00  0.00     0.033 H 
ATOM     14  H8  F9P d   1     -30.472  -5.008  10.952  0.00  0.00     0.033 H 
ATOM     15  H9  F9P d   1     -29.300  -3.647  10.924  0.00  0.00     0.033 H 
ATOM     16  H10 F9P d   1     -28.179  -5.782  10.432  0.00  0.00     0.033 H 
ATOM     17  H11 F9P d   1     -29.306  -6.071   9.064  0.00  0.00     0.033 H 
ENDROOT
BRANCH   2  18
ATOM     18  C02 F9P d   1     -27.719  -2.885   6.822  0.00  0.00     0.245 C 
ATOM     19  N03 F9P d   1     -26.343  -2.820   7.255  0.00  0.00    -0.237 N 
ATOM     20  H12 F9P d   1     -25.998  -3.283   8.072  0.00  0.00     0.197 HD
ATOM     21  O01 F9P d   1     -28.025  -2.275   5.817  0.00  0.00    -0.271 OA
BRANCH  19  22
ATOM     22  O04 F9P d   1     -25.569  -2.066   6.438  0.00  0.00    -0.287 OA
ATOM     23  H13 F9P d   1     -24.678  -2.057   6.767  0.00  0.00     0.244 HD
ENDBRANCH  19  22
ENDBRANCH   2  18
TORSDOF 2
