REMARK  2 active torsions:
REMARK  status: ('A' for Active; 'I' for Inactive)
REMARK    1  A    between atoms: C02_1  and  C05_2 
REMARK       I    between atoms: C02_1  and  N03_7 
REMARK    2  A    between atoms: N03_7  and  O04_9 
ROOT
ATOM      1  C05 FBJ d   1      28.618  -3.864  -7.812  0.00  0.00     0.008 C 
ATOM      2  C06 FBJ d   1      28.295  -4.864  -8.575  0.00  0.00    -0.091 C 
ATOM      3  C07 FBJ d   1      29.274  -5.161  -9.750  0.00  0.00    -0.049 C 
ATOM      4  C08 FBJ d   1      30.336  -4.046  -9.602  0.00  0.00    -0.058 C 
ATOM      5  C09 FBJ d   1      29.855  -3.149  -8.421  0.00  0.00    -0.036 C 
ATOM      6  H1  FBJ d   1      27.398  -5.457  -8.405  0.00  0.00     0.077 H 
ATOM      7  H2  FBJ d   1      28.761  -5.093 -10.720  0.00  0.00     0.038 H 
ATOM      8  H3  FBJ d   1      29.728  -6.157  -9.645  0.00  0.00     0.038 H 
ATOM      9  H4  FBJ d   1      30.402  -3.456 -10.528  0.00  0.00     0.033 H 
ATOM     10  H5  FBJ d   1      31.320  -4.483  -9.374  0.00  0.00     0.033 H 
ATOM     11  H6  FBJ d   1      30.650  -3.053  -7.667  0.00  0.00     0.040 H 
ATOM     12  H7  FBJ d   1      29.576  -2.151  -8.789  0.00  0.00     0.040 H 
ENDROOT
BRANCH   1  13
ATOM     13  C02 FBJ d   1      27.733  -2.962  -6.719  0.00  0.00     0.270 C 
ATOM     14  N03 FBJ d   1      26.317  -2.791  -6.907  0.00  0.00    -0.234 N 
ATOM     15  H8  FBJ d   1      25.896  -3.229  -7.701  0.00  0.00     0.197 HD
ATOM     16  O01 FBJ d   1      28.276  -2.439  -5.754  0.00  0.00    -0.266 OA
BRANCH  14  17
ATOM     17  O04 FBJ d   1      25.513  -2.074  -6.077  0.00  0.00    -0.287 OA
ATOM     18  H9  FBJ d   1      24.620  -2.102  -6.401  0.00  0.00     0.244 HD
ENDBRANCH  14  17
ENDBRANCH   1  13
TORSDOF 2
