REMARK  9 active torsions:
REMARK  status: ('A' for Active; 'I' for Inactive)
REMARK    1  A    between atoms: PB_2  and  O3A_5 
REMARK    2  A    between atoms: O3A_5  and  PA_6 
REMARK    3  A    between atoms: PA_6  and  O5'_9 
REMARK    4  A    between atoms: O5'_9  and  C5'_10 
REMARK    5  A    between atoms: C5'_10  and  C4'_11 
REMARK    6  A    between atoms: C3'_13  and  O3'_14 
REMARK    7  A    between atoms: C2'_15  and  O2'_16 
REMARK    8  A    between atoms: C1'_17  and  N1_18 
REMARK    9  A    between atoms: C4_22  and  N4_23 
ROOT
ATOM      1  C4' CDP d   1      -9.162 -37.342  24.862  0.00  0.00     0.089 C 
ATOM      2  O4' CDP d   1     -10.567 -37.154  25.482  0.00  0.00    -0.354 OA
ATOM      3  C3' CDP d   1      -9.324 -38.117  23.855  0.00  0.00     0.091 C 
ATOM      4  C2' CDP d   1     -10.892 -37.955  23.367  0.00  0.00     0.104 C 
ATOM      5  C1' CDP d   1     -11.532 -37.844  24.450  0.00  0.00     0.137 C 
ATOM      6  H3  CDP d   1      -8.483 -37.816  25.586  0.00  0.00     0.090 H 
ATOM      7  H4  CDP d   1      -8.600 -37.896  23.057  0.00  0.00     0.091 H 
ATOM      8  H6  CDP d   1     -11.047 -37.084  22.713  0.00  0.00     0.093 H 
ATOM      9  H8  CDP d   1     -11.872 -38.830  24.800  0.00  0.00     0.122 H 
ENDROOT
BRANCH   5  10
ATOM     10  N1  CDP d   1     -12.668 -36.909  24.320  0.00  0.00    -0.305 N 
ATOM     11  C2  CDP d   1     -14.080 -37.430  24.264  0.00  0.00     0.322 A 
ATOM     12  O2  CDP d   1     -14.284 -38.577  24.296  0.00  0.00    -0.247 OA
ATOM     13  N3  CDP d   1     -15.204 -36.468  24.154  0.00  0.00    -0.315 N 
ATOM     14  C4  CDP d   1     -14.953 -35.034  24.106  0.00  0.00     0.169 A 
ATOM     15  H9  CDP d   1     -16.144 -36.808  24.112  0.00  0.00     0.166 HD
ATOM     16  C5  CDP d   1     -13.538 -34.511  24.177  0.00  0.00    -0.007 A 
ATOM     17  H10 CDP d   1     -14.882 -35.081  23.009  0.00  0.00     0.118 H 
ATOM     18  C6  CDP d   1     -12.396 -35.469  24.281  0.00  0.00     0.005 A 
ATOM     19  H14 CDP d   1     -13.485 -33.855  25.059  0.00  0.00     0.041 H 
ATOM     20  H15 CDP d   1     -13.372 -33.916  23.267  0.00  0.00     0.041 H 
ATOM     21  H16 CDP d   1     -11.746 -35.289  23.412  0.00  0.00     0.064 H 
ATOM     22  H17 CDP d   1     -11.852 -35.220  25.204  0.00  0.00     0.064 H 
BRANCH  14  23
ATOM     23  N4  CDP d   1     -16.061 -34.114  23.998  0.00  0.00    -0.058 N 
ATOM     24  H11 CDP d   1     -15.712 -33.169  23.977  0.00  0.00     0.276 HD
ATOM     25  H12 CDP d   1     -16.672 -34.229  24.791  0.00  0.00     0.276 HD
ATOM     26  H13 CDP d   1     -16.572 -34.302  23.150  0.00  0.00     0.276 HD
ENDBRANCH  14  23
ENDBRANCH   5  10
BRANCH   4  27
ATOM     27  O2' CDP d   1     -11.224 -39.197  22.680  0.00  0.00    -0.388 OA
ATOM     28  H7  CDP d   1     -11.123 -39.926  23.280  0.00  0.00     0.210 HD
ENDBRANCH   4  27
BRANCH   1  29
ATOM     29  C5' CDP d   1      -8.589 -35.930  24.472  0.00  0.00     0.058 C 
ATOM     30  H1  CDP d   1      -8.672 -35.258  25.339  0.00  0.00     0.079 H 
ATOM     31  H2  CDP d   1      -7.531 -36.038  24.192  0.00  0.00     0.079 H 
BRANCH  29  32
ATOM     32  O5' CDP d   1      -9.293 -35.375  23.394  0.00  0.00    -0.287 OA
BRANCH  32  33
ATOM     33  PA  CDP d   1      -8.347 -34.944  22.126  0.00  0.00     0.418 P 
ATOM     34  O1A CDP d   1      -9.192 -34.407  20.999  0.00  0.00    -0.624 OA
ATOM     35  O2A CDP d   1      -7.456 -36.066  21.657  0.00  0.00    -0.624 OA
BRANCH  33  36
ATOM     36  O3A CDP d   1      -7.450 -33.719  22.789  0.00  0.00    -0.173 OA
BRANCH  36  37
ATOM     37  PB  CDP d   1      -6.259 -32.909  21.997  0.00  0.00     0.431 P 
ATOM     38  O3B CDP d   1      -4.957 -33.445  22.530  0.00  0.00    -0.616 OA
ATOM     39  O1B CDP d   1      -6.394 -33.108  20.521  0.00  0.00    -0.616 OA
ATOM     40  O2B CDP d   1      -6.407 -31.438  22.322  0.00  0.00    -0.616 OA
ENDBRANCH  36  37
ENDBRANCH  33  36
ENDBRANCH  32  33
ENDBRANCH  29  32
ENDBRANCH   1  29
BRANCH   3  41
ATOM     41  O3' CDP d   1      -9.273 -39.493  24.276  0.00  0.00    -0.390 OA
ATOM     42  H5  CDP d   1      -9.394 -40.058  23.522  0.00  0.00     0.210 HD
ENDBRANCH   3  41
TORSDOF 9
