REMARK  10 active torsions:
REMARK  status: ('A' for Active; 'I' for Inactive)
REMARK    1  A    between atoms: O3B_8  and  PG_1 
REMARK    2  A    between atoms: PB_5  and  O3B_8 
REMARK    3  A    between atoms: O3A_12  and  PB_5 
REMARK    4  A    between atoms: PA_9  and  O3A_12 
REMARK    5  A    between atoms: PA_9  and  O5'_13 
REMARK    6  A    between atoms: O5'_13  and  C5'_14 
REMARK    7  A    between atoms: C5'_14  and  C4'_15 
REMARK    8  A    between atoms: C3'_17  and  O3'_18 
REMARK    9  A    between atoms: C2'_19  and  O2'_20 
REMARK   10  A    between atoms: C1'_21  and  N9_22 
ROOT
ATOM      1  C4' ATP d   1      -5.984 -37.406  24.629  0.00  0.00     0.089 C 
ATOM      2  O4' ATP d   1      -5.688 -38.091  25.855  0.00  0.00    -0.353 OA
ATOM      3  C3' ATP d   1      -4.876 -37.848  23.685  0.00  0.00     0.091 C 
ATOM      4  C2' ATP d   1      -3.672 -37.985  24.590  0.00  0.00     0.105 C 
ATOM      5  C1' ATP d   1      -4.262 -38.183  25.975  0.00  0.00     0.139 C 
ATOM      6  H3  ATP d   1      -5.858 -36.326  24.794  0.00  0.00     0.090 H 
ATOM      7  H4  ATP d   1      -5.131 -38.792  23.181  0.00  0.00     0.091 H 
ATOM      8  H6  ATP d   1      -3.041 -38.835  24.291  0.00  0.00     0.093 H 
ATOM      9  H8  ATP d   1      -3.905 -37.395  26.655  0.00  0.00     0.122 H 
ENDROOT
BRANCH   1  10
ATOM     10  C5' ATP d   1      -7.446 -37.589  24.195  0.00  0.00     0.058 C 
ATOM     11  H1  ATP d   1      -7.864 -38.430  24.768  0.00  0.00     0.079 H 
ATOM     12  H2  ATP d   1      -7.990 -36.667  24.447  0.00  0.00     0.079 H 
BRANCH  10  13
ATOM     13  O5' ATP d   1      -7.659 -37.857  22.805  0.00  0.00    -0.287 OA
BRANCH  13  14
ATOM     14  PA  ATP d   1      -8.166 -36.684  21.807  0.00  0.00     0.417 P 
ATOM     15  O1A ATP d   1      -7.334 -36.869  20.563  0.00  0.00    -0.624 OA
ATOM     16  O2A ATP d   1      -9.689 -36.480  21.687  0.00  0.00    -0.624 OA
BRANCH  14  17
ATOM     17  O3A ATP d   1      -7.556 -35.424  22.594  0.00  0.00    -0.180 OA
BRANCH  17  18
ATOM     18  PB  ATP d   1      -6.755 -34.310  21.778  0.00  0.00     0.428 P 
ATOM     19  O1B ATP d   1      -7.270 -34.350  20.363  0.00  0.00    -0.624 OA
ATOM     20  O2B ATP d   1      -6.952 -33.029  22.572  0.00  0.00    -0.624 OA
BRANCH  18  21
ATOM     21  O3B ATP d   1      -5.185 -34.761  21.863  0.00  0.00    -0.173 OA
BRANCH  21  22
ATOM     22  PG  ATP d   1      -4.206 -35.036  20.588  0.00  0.00     0.431 P 
ATOM     23  O1G ATP d   1      -5.037 -35.938  19.705  0.00  0.00    -0.616 OA
ATOM     24  O2G ATP d   1      -3.806 -33.723  19.954  0.00  0.00    -0.616 OA
ATOM     25  O3G ATP d   1      -2.991 -35.719  21.175  0.00  0.00    -0.616 OA
ENDBRANCH  21  22
ENDBRANCH  18  21
ENDBRANCH  17  18
ENDBRANCH  14  17
ENDBRANCH  13  14
ENDBRANCH  10  13
ENDBRANCH   1  10
BRANCH   3  26
ATOM     26  O3' ATP d   1      -4.568 -36.842  22.739  0.00  0.00    -0.390 OA
ATOM     27  H5  ATP d   1      -4.282 -36.059  23.194  0.00  0.00     0.210 HD
ENDBRANCH   3  26
BRANCH   5  28
ATOM     28  N9  ATP d   1      -3.813 -39.497  26.480  0.00  0.00    -0.294 N 
ATOM     29  C8  ATP d   1      -3.334 -39.709  27.726  0.00  0.00     0.071 A 
ATOM     30  N7  ATP d   1      -2.969 -41.001  27.905  0.00  0.00    -0.236 NA
ATOM     31  H9  ATP d   1      -3.252 -38.938  28.490  0.00  0.00     0.144 H 
ATOM     32  C5  ATP d   1      -3.206 -41.632  26.744  0.00  0.00     0.149 A 
ATOM     33  C6  ATP d   1      -3.029 -43.017  26.276  0.00  0.00     0.155 A 
ATOM     34  C4  ATP d   1      -3.751 -40.645  25.793  0.00  0.00     0.167 A 
ATOM     35  N6  ATP d   1      -2.530 -43.959  27.116  0.00  0.00    -0.382 N 
ATOM     36  N1  ATP d   1      -3.383 -43.301  25.004  0.00  0.00    -0.222 NA
ATOM     37  H10 ATP d   1      -2.406 -44.928  26.788  0.00  0.00     0.157 HD
ATOM     38  H11 ATP d   1      -2.275 -43.705  28.081  0.00  0.00     0.157 HD
ATOM     39  C2  ATP d   1      -3.879 -42.351  24.181  0.00  0.00     0.091 A 
ATOM     40  N3  ATP d   1      -4.072 -41.064  24.536  0.00  0.00    -0.222 NA
ATOM     41  H12 ATP d   1      -4.139 -42.642  23.170  0.00  0.00     0.146 H 
ENDBRANCH   5  28
BRANCH   4  42
ATOM     42  O2' ATP d   1      -2.911 -36.771  24.591  0.00  0.00    -0.388 OA
ATOM     43  H7  ATP d   1      -2.616 -36.583  23.708  0.00  0.00     0.210 HD
ENDBRANCH   4  42
TORSDOF 10
