REMARK  7 active torsions:
REMARK  status: ('A' for Active; 'I' for Inactive)
REMARK    1  A    between atoms: C8_1  and  C7_2 
REMARK       I    between atoms: C7_2  and  N2_4 
REMARK    2  A    between atoms: N2_4  and  C2_5 
REMARK    3  A    between atoms: C3_6  and  O3_7 
REMARK    4  A    between atoms: CAB_10  and  CAK_11 
REMARK    5  A    between atoms: CAB_10  and  CAL_12 
REMARK    6  A    between atoms: C1_19  and  O1_20 
REMARK    7  A    between atoms: O1_20  and  CAU_21 
ROOT
ATOM      1  C2  6LA d   1       9.718 -47.411  32.041  0.00  0.00     0.087 C 
ATOM      2  C3  6LA d   1       8.391 -47.727  31.329  0.00  0.00     0.087 C 
ATOM      3  C4  6LA d   1       7.494 -46.562  31.404  0.00  0.00     0.096 C 
ATOM      4  O4  6LA d   1       6.319 -46.743  30.606  0.00  0.00    -0.336 OA
ATOM      5  CAB 6LA d   1       5.475 -45.700  30.608  0.00  0.00     0.252 C 
ATOM      6  O6  6LA d   1       6.161 -44.481  30.161  0.00  0.00    -0.344 OA
ATOM      7  C6  6LA d   1       7.234 -44.158  31.006  0.00  0.00     0.050 C 
ATOM      8  C5  6LA d   1       8.193 -45.322  30.828  0.00  0.00     0.089 C 
ATOM      9  O5  6LA d   1       9.335 -45.047  31.634  0.00  0.00    -0.349 OA
ATOM     10  C1  6LA d   1      10.256 -46.112  31.461  0.00  0.00     0.152 C 
ATOM     11  H5  6LA d   1      10.428 -48.233  31.869  0.00  0.00     0.084 H 
ATOM     12  H6  6LA d   1       8.583 -47.971  30.274  0.00  0.00     0.090 H 
ATOM     13  H8  6LA d   1       7.213 -46.391  32.454  0.00  0.00     0.091 H 
ATOM     14  H12 6LA d   1       6.901 -44.080  32.051  0.00  0.00     0.078 H 
ATOM     15  H13 6LA d   1       7.704 -43.212  30.700  0.00  0.00     0.078 H 
ATOM     16  H14 6LA d   1       8.469 -45.466  29.773  0.00  0.00     0.090 H 
ATOM     17  H15 6LA d   1      10.509 -46.237  30.398  0.00  0.00     0.132 H 
ENDROOT
BRANCH   1  18
ATOM     18  N2  6LA d   1       9.550 -47.194  33.517  0.00  0.00    -0.349 N 
ATOM     19  C7  6LA d   1      10.211 -47.877  34.463  0.00  0.00     0.214 C 
ATOM     20  O7  6LA d   1      10.930 -48.829  34.246  0.00  0.00    -0.274 OA
ATOM     21  H4  6LA d   1       8.902 -46.493  33.815  0.00  0.00     0.163 HD
BRANCH  19  22
ATOM     22  C8  6LA d   1       9.927 -47.478  35.885  0.00  0.00    -0.003 C 
ATOM     23  H1  6LA d   1       9.262 -46.601  35.894  0.00  0.00     0.040 H 
ATOM     24  H2  6LA d   1      10.871 -47.228  36.391  0.00  0.00     0.040 H 
ATOM     25  H3  6LA d   1       9.440 -48.313  36.410  0.00  0.00     0.040 H 
ENDBRANCH  19  22
ENDBRANCH   1  18
BRANCH   2  26
ATOM     26  O3  6LA d   1       7.798 -48.854  31.984  0.00  0.00    -0.391 OA
ATOM     27  H7  6LA d   1       8.387 -49.597  31.928  0.00  0.00     0.210 HD
ENDBRANCH   2  26
BRANCH  10  28
ATOM     28  O1  6LA d   1      11.404 -45.776  32.241  0.00  0.00    -0.364 OA
BRANCH  28  29
ATOM     29  CAU 6LA d   1      12.118 -44.626  31.672  0.00  0.00     0.007 C 
ATOM     30  H16 6LA d   1      12.995 -44.394  32.295  0.00  0.00     0.066 H 
ATOM     31  H17 6LA d   1      11.447 -43.755  31.644  0.00  0.00     0.066 H 
ATOM     32  H18 6LA d   1      12.448 -44.868  30.651  0.00  0.00     0.066 H 
ENDBRANCH  28  29
ENDBRANCH  10  28
BRANCH   5  33
ATOM     33  CAK 6LA d   1       4.369 -46.020  29.617  0.00  0.00    -0.015 C 
ATOM     34  H9  6LA d   1       3.651 -45.187  29.587  0.00  0.00     0.035 H 
ATOM     35  H10 6LA d   1       3.851 -46.939  29.929  0.00  0.00     0.035 H 
ATOM     36  H11 6LA d   1       4.803 -46.166  28.617  0.00  0.00     0.035 H 
ENDBRANCH   5  33
BRANCH   5  37
ATOM     37  CAL 6LA d   1       4.843 -45.577  32.019  0.00  0.00     0.238 C 
ATOM     38  OAN 6LA d   1       4.469 -44.471  32.482  0.00  0.00    -0.644 OA
ATOM     39  OAM 6LA d   1       4.685 -46.640  32.561  0.00  0.00    -0.644 OA
ENDBRANCH   5  37
TORSDOF 7
