REMARK  7 active torsions:
REMARK  status: ('A' for Active; 'I' for Inactive)
REMARK    1  A    between atoms: C8_1  and  C7_2 
REMARK       I    between atoms: C7_2  and  N2_4 
REMARK    2  A    between atoms: N2_4  and  C2_5 
REMARK    3  A    between atoms: C3_6  and  O3_7 
REMARK    4  A    between atoms: CAB_10  and  CAK_11 
REMARK    5  A    between atoms: CAB_10  and  CAL_12 
REMARK    6  A    between atoms: C1_19  and  O1_20 
REMARK    7  A    between atoms: O1_20  and  CAU_21 
ROOT
ATOM      1  C2  6LA d   1     -18.892 -11.879  14.459  0.00  0.00     0.087 C 
ATOM      2  C3  6LA d   1     -18.455 -10.447  14.145  0.00  0.00     0.087 C 
ATOM      3  C4  6LA d   1     -17.299 -10.076  15.092  0.00  0.00     0.096 C 
ATOM      4  O4  6LA d   1     -16.736  -8.806  14.719  0.00  0.00    -0.336 OA
ATOM      5  CAB 6LA d   1     -15.694  -8.371  15.610  0.00  0.00     0.252 C 
ATOM      6  O6  6LA d   1     -14.690  -9.354  15.655  0.00  0.00    -0.344 OA
ATOM      7  C6  6LA d   1     -15.054 -10.691  15.937  0.00  0.00     0.050 C 
ATOM      8  C5  6LA d   1     -16.237 -11.071  14.979  0.00  0.00     0.089 C 
ATOM      9  O5  6LA d   1     -16.671 -12.374  15.286  0.00  0.00    -0.349 OA
ATOM     10  C1  6LA d   1     -17.663 -12.759  14.341  0.00  0.00     0.152 C 
ATOM     11  H5  6LA d   1     -19.654 -12.196  13.731  0.00  0.00     0.084 H 
ATOM     12  H6  6LA d   1     -18.089 -10.423  13.108  0.00  0.00     0.090 H 
ATOM     13  H8  6LA d   1     -17.670 -10.034  16.127  0.00  0.00     0.091 H 
ATOM     14  H12 6LA d   1     -15.377 -10.779  16.985  0.00  0.00     0.078 H 
ATOM     15  H13 6LA d   1     -14.198 -11.358  15.759  0.00  0.00     0.078 H 
ATOM     16  H14 6LA d   1     -15.872 -11.065  13.941  0.00  0.00     0.090 H 
ATOM     17  H15 6LA d   1     -17.248 -12.655  13.328  0.00  0.00     0.132 H 
ENDROOT
BRANCH   1  18
ATOM     18  N2  6LA d   1     -19.426 -12.003  15.775  0.00  0.00    -0.349 N 
ATOM     19  C7  6LA d   1     -20.695 -12.304  15.929  0.00  0.00     0.214 C 
ATOM     20  O7  6LA d   1     -21.460 -12.572  15.017  0.00  0.00    -0.274 OA
ATOM     21  H4  6LA d   1     -18.840 -11.862  16.573  0.00  0.00     0.163 HD
BRANCH  19  22
ATOM     22  C8  6LA d   1     -21.166 -12.400  17.376  0.00  0.00    -0.003 C 
ATOM     23  H1  6LA d   1     -20.342 -12.122  18.049  0.00  0.00     0.040 H 
ATOM     24  H2  6LA d   1     -21.483 -13.431  17.591  0.00  0.00     0.040 H 
ATOM     25  H3  6LA d   1     -22.013 -11.716  17.532  0.00  0.00     0.040 H 
ENDBRANCH  19  22
ENDBRANCH   1  18
BRANCH   2  26
ATOM     26  O3  6LA d   1     -19.486  -9.486  14.262  0.00  0.00    -0.391 OA
ATOM     27  H7  6LA d   1     -20.188  -9.702  13.660  0.00  0.00     0.210 HD
ENDBRANCH   2  26
BRANCH  10  28
ATOM     28  O1  6LA d   1     -18.011 -14.069  14.552  0.00  0.00    -0.364 OA
BRANCH  28  29
ATOM     29  CAU 6LA d   1     -17.009 -15.029  14.269  0.00  0.00     0.007 C 
ATOM     30  H16 6LA d   1     -17.399 -16.037  14.474  0.00  0.00     0.066 H 
ATOM     31  H17 6LA d   1     -16.130 -14.840  14.903  0.00  0.00     0.066 H 
ATOM     32  H18 6LA d   1     -16.720 -14.956  13.210  0.00  0.00     0.066 H 
ENDBRANCH  28  29
ENDBRANCH  10  28
BRANCH   5  33
ATOM     33  CAK 6LA d   1     -15.128  -7.073  15.028  0.00  0.00    -0.015 C 
ATOM     34  H9  6LA d   1     -14.323  -6.700  15.678  0.00  0.00     0.035 H 
ATOM     35  H10 6LA d   1     -15.928  -6.320  14.965  0.00  0.00     0.035 H 
ATOM     36  H11 6LA d   1     -14.726  -7.266  14.022  0.00  0.00     0.035 H 
ENDBRANCH   5  33
BRANCH   5  37
ATOM     37  CAL 6LA d   1     -16.312  -8.096  17.029  0.00  0.00     0.238 C 
ATOM     38  OAN 6LA d   1     -17.400  -7.455  17.027  0.00  0.00    -0.644 OA
ATOM     39  OAM 6LA d   1     -15.643  -8.413  18.023  0.00  0.00    -0.644 OA
ENDBRANCH   5  37
TORSDOF 7
