REMARK  10 active torsions:
REMARK  status: ('A' for Active; 'I' for Inactive)
REMARK    1  A    between atoms: PA_1  and  O3A_4 
REMARK    2  A    between atoms: PA_1  and  O5'_13 
REMARK    3  A    between atoms: O3A_4  and  PB_5 
REMARK    4  A    between atoms: PB_5  and  O3B_8 
REMARK    5  A    between atoms: O3B_8  and  PG_9 
REMARK    6  A    between atoms: O5'_13  and  C5'_14 
REMARK    7  A    between atoms: C5'_14  and  C4'_15 
REMARK    8  A    between atoms: C3'_17  and  O3'_18 
REMARK    9  A    between atoms: C1'_20  and  N1_21 
REMARK   10  A    between atoms: C5_27  and  C5M_28 
ROOT
ATOM      1  C4' TTP d   1      -9.041 -36.843  21.716  0.00  0.00     0.087 C 
ATOM      2  O4' TTP d   1      -8.363 -38.116  21.688  0.00  0.00    -0.356 OA
ATOM      3  C3' TTP d   1      -9.601 -36.734  23.126  0.00  0.00     0.066 C 
ATOM      4  C2' TTP d   1      -9.728 -38.158  23.628  0.00  0.00     0.002 C 
ATOM      5  C1' TTP d   1      -9.158 -39.008  22.495  0.00  0.00     0.116 C 
ATOM      6  H3  TTP d   1      -9.895 -36.910  21.025  0.00  0.00     0.090 H 
ATOM      7  H4  TTP d   1      -8.937 -36.135  23.767  0.00  0.00     0.087 H 
ATOM      8  H6  TTP d   1     -10.782 -38.413  23.815  0.00  0.00     0.043 H 
ATOM      9  H7  TTP d   1      -9.147 -38.299  24.552  0.00  0.00     0.043 H 
ATOM     10  H8  TTP d   1      -9.983 -39.383  21.872  0.00  0.00     0.118 H 
ENDROOT
BRANCH   1  11
ATOM     11  C5' TTP d   1      -8.222 -35.631  21.235  0.00  0.00     0.058 C 
ATOM     12  H1  TTP d   1      -7.623 -35.971  20.377  0.00  0.00     0.079 H 
ATOM     13  H2  TTP d   1      -8.944 -34.872  20.900  0.00  0.00     0.079 H 
BRANCH  11  14
ATOM     14  O5' TTP d   1      -7.308 -34.968  22.149  0.00  0.00    -0.287 OA
BRANCH  14  15
ATOM     15  PA  TTP d   1      -6.209 -33.951  21.498  0.00  0.00     0.417 P 
ATOM     16  O1A TTP d   1      -6.362 -33.978  19.986  0.00  0.00    -0.624 OA
ATOM     17  O2A TTP d   1      -6.289 -32.532  21.999  0.00  0.00    -0.624 OA
BRANCH  15  18
ATOM     18  O3A TTP d   1      -4.773 -34.494  21.968  0.00  0.00    -0.180 OA
BRANCH  18  19
ATOM     19  PB  TTP d   1      -4.051 -35.752  21.271  0.00  0.00     0.428 P 
ATOM     20  O1B TTP d   1      -4.755 -36.170  19.983  0.00  0.00    -0.624 OA
ATOM     21  O2B TTP d   1      -3.914 -36.909  22.231  0.00  0.00    -0.624 OA
BRANCH  19  22
ATOM     22  O3B TTP d   1      -2.596 -35.150  21.044  0.00  0.00    -0.173 OA
BRANCH  22  23
ATOM     23  PG  TTP d   1      -2.428 -33.846  20.140  0.00  0.00     0.431 P 
ATOM     24  O1G TTP d   1      -1.280 -34.102  19.195  0.00  0.00    -0.616 OA
ATOM     25  O2G TTP d   1      -3.704 -33.592  19.386  0.00  0.00    -0.616 OA
ATOM     26  O3G TTP d   1      -2.169 -32.640  21.005  0.00  0.00    -0.616 OA
ENDBRANCH  22  23
ENDBRANCH  19  22
ENDBRANCH  18  19
ENDBRANCH  15  18
ENDBRANCH  14  15
ENDBRANCH  11  14
ENDBRANCH   1  11
BRANCH   3  27
ATOM     27  O3' TTP d   1     -10.915 -36.181  23.108  0.00  0.00    -0.393 OA
ATOM     28  H5  TTP d   1     -11.245 -36.122  23.997  0.00  0.00     0.210 HD
ENDBRANCH   3  27
BRANCH   5  29
ATOM     29  N1  TTP d   1      -8.464 -40.182  23.053  0.00  0.00    -0.282 N 
ATOM     30  C2  TTP d   1      -8.387 -41.391  22.311  0.00  0.00     0.331 A 
ATOM     31  O2  TTP d   1      -8.892 -41.464  21.167  0.00  0.00    -0.246 OA
ATOM     32  N3  TTP d   1      -7.775 -42.477  22.807  0.00  0.00    -0.275 N 
ATOM     33  C4  TTP d   1      -7.221 -42.463  24.023  0.00  0.00     0.256 A 
ATOM     34  H9  TTP d   1      -7.733 -43.311  22.257  0.00  0.00     0.173 HD
ATOM     35  O4  TTP d   1      -6.649 -43.482  24.476  0.00  0.00    -0.267 OA
ATOM     36  C5  TTP d   1      -7.291 -41.218  24.828  0.00  0.00     0.022 A 
ATOM     37  C6  TTP d   1      -7.934 -40.111  24.285  0.00  0.00    -0.002 A 
ATOM     38  H13 TTP d   1      -8.008 -39.188  24.858  0.00  0.00     0.113 H 
BRANCH  36  39
ATOM     39  C5M TTP d   1      -6.677 -41.165  26.203  0.00  0.00    -0.045 C 
ATOM     40  H10 TTP d   1      -6.832 -40.165  26.635  0.00  0.00     0.033 H 
ATOM     41  H11 TTP d   1      -5.599 -41.371  26.131  0.00  0.00     0.033 H 
ATOM     42  H12 TTP d   1      -7.152 -41.920  26.846  0.00  0.00     0.033 H 
ENDBRANCH  36  39
ENDBRANCH   5  29
TORSDOF 10
