REMARK  10 active torsions:
REMARK  status: ('A' for Active; 'I' for Inactive)
REMARK    1  A    between atoms: O3B_8  and  PG_1 
REMARK    2  A    between atoms: PB_5  and  O3B_8 
REMARK    3  A    between atoms: O3A_12  and  PB_5 
REMARK    4  A    between atoms: PA_9  and  O3A_12 
REMARK    5  A    between atoms: PA_9  and  O5'_13 
REMARK    6  A    between atoms: O5'_13  and  C5'_14 
REMARK    7  A    between atoms: C5'_14  and  C4'_15 
REMARK    8  A    between atoms: C3'_17  and  O3'_18 
REMARK    9  A    between atoms: C2'_19  and  O2'_20 
REMARK   10  A    between atoms: C1'_21  and  N9_22 
ROOT
ATOM      1  C4' ITT d   1      -7.253 -36.658  22.233  0.00  0.00     0.089 C 
ATOM      2  O4' ITT d   1      -6.707 -36.996  23.655  0.00  0.00    -0.353 OA
ATOM      3  C3' ITT d   1      -7.976 -37.676  21.954  0.00  0.00     0.091 C 
ATOM      4  C2' ITT d   1      -7.239 -38.967  22.686  0.00  0.00     0.105 C 
ATOM      5  C1' ITT d   1      -6.326 -38.479  23.452  0.00  0.00     0.139 C 
ATOM      6  H3  ITT d   1      -6.437 -36.523  21.508  0.00  0.00     0.090 H 
ATOM      7  H4  ITT d   1      -8.985 -37.535  22.369  0.00  0.00     0.091 H 
ATOM      8  H6  ITT d   1      -7.970 -39.543  23.273  0.00  0.00     0.093 H 
ATOM      9  H8  ITT d   1      -5.348 -38.539  22.953  0.00  0.00     0.122 H 
ENDROOT
BRANCH   1  10
ATOM     10  C5' ITT d   1      -8.154 -35.389  22.277  0.00  0.00     0.058 C 
ATOM     11  H1  ITT d   1      -8.573 -35.238  21.271  0.00  0.00     0.079 H 
ATOM     12  H2  ITT d   1      -8.970 -35.580  22.989  0.00  0.00     0.079 H 
BRANCH  10  13
ATOM     13  O5' ITT d   1      -7.519 -34.201  22.660  0.00  0.00    -0.287 OA
BRANCH  13  14
ATOM     14  PA  ITT d   1      -6.461 -33.489  21.645  0.00  0.00     0.417 P 
ATOM     15  O1A ITT d   1      -6.878 -33.642  20.193  0.00  0.00    -0.624 OA
ATOM     16  O2A ITT d   1      -6.289 -32.027  22.029  0.00  0.00    -0.624 OA
BRANCH  14  17
ATOM     17  O3A ITT d   1      -5.044 -34.316  21.868  0.00  0.00    -0.180 OA
BRANCH  17  18
ATOM     18  PB  ITT d   1      -3.630 -33.894  21.139  0.00  0.00     0.428 P 
ATOM     19  O1B ITT d   1      -3.751 -33.816  19.648  0.00  0.00    -0.624 OA
ATOM     20  O2B ITT d   1      -3.218 -32.515  21.627  0.00  0.00    -0.624 OA
BRANCH  18  21
ATOM     21  O3B ITT d   1      -2.583 -35.140  21.530  0.00  0.00    -0.173 OA
BRANCH  21  22
ATOM     22  PG  ITT d   1      -2.688 -36.147  22.841  0.00  0.00     0.431 P 
ATOM     23  O1G ITT d   1      -3.773 -37.160  22.593  0.00  0.00    -0.616 OA
ATOM     24  O2G ITT d   1      -1.369 -36.859  23.086  0.00  0.00    -0.616 OA
ATOM     25  O3G ITT d   1      -3.017 -35.376  24.089  0.00  0.00    -0.616 OA
ENDBRANCH  21  22
ENDBRANCH  18  21
ENDBRANCH  17  18
ENDBRANCH  14  17
ENDBRANCH  13  14
ENDBRANCH  10  13
ENDBRANCH   1  10
BRANCH   3  26
ATOM     26  O3' ITT d   1      -8.093 -37.902  20.502  0.00  0.00    -0.390 OA
ATOM     27  H5  ITT d   1      -8.636 -38.665  20.344  0.00  0.00     0.210 HD
ENDBRANCH   3  26
BRANCH   5  28
ATOM     28  N9  ITT d   1      -6.248 -39.246  24.733  0.00  0.00    -0.294 N 
ATOM     29  C8  ITT d   1      -7.354 -39.044  25.469  0.00  0.00     0.071 A 
ATOM     30  N7  ITT d   1      -7.244 -39.760  26.600  0.00  0.00    -0.235 NA
ATOM     31  H9  ITT d   1      -8.195 -38.409  25.195  0.00  0.00     0.144 H 
ATOM     32  C5  ITT d   1      -6.052 -40.408  26.552  0.00  0.00     0.158 A 
ATOM     33  C6  ITT d   1      -5.432 -41.260  27.427  0.00  0.00     0.212 A 
ATOM     34  C4  ITT d   1      -5.436 -40.096  25.407  0.00  0.00     0.167 A 
ATOM     35  O6  ITT d   1      -5.805 -41.768  28.681  0.00  0.00    -0.169 OA
ATOM     36  N1  ITT d   1      -4.231 -41.780  27.152  0.00  0.00    -0.327 N 
ATOM     37  C2  ITT d   1      -3.607 -41.461  25.981  0.00  0.00     0.068 A 
ATOM     38  H10 ITT d   1      -3.792 -42.400  27.802  0.00  0.00     0.168 HD
ATOM     39  N3  ITT d   1      -4.208 -40.620  25.112  0.00  0.00    -0.223 NA
ATOM     40  H11 ITT d   1      -2.630 -41.882  25.749  0.00  0.00     0.143 H 
ENDBRANCH   5  28
BRANCH   4  41
ATOM     41  O2' ITT d   1      -6.619 -39.825  21.695  0.00  0.00    -0.388 OA
ATOM     42  H7  ITT d   1      -5.968 -39.330  21.212  0.00  0.00     0.210 HD
ENDBRANCH   4  41
TORSDOF 10
