REMARK  12 active torsions:
REMARK  status: ('A' for Active; 'I' for Inactive)
REMARK    1  A    between atoms: PB_1  and  O3A_5 
REMARK    2  A    between atoms: O3A_5  and  PA_6 
REMARK    3  A    between atoms: PA_6  and  O5'_9 
REMARK    4  A    between atoms: O5'_9  and  C5'_10 
REMARK    5  A    between atoms: C5'_10  and  C4'_11 
REMARK    6  A    between atoms: C3'_13  and  O3'_14 
REMARK    7  A    between atoms: O3'_14  and  PC_29 
REMARK    8  A    between atoms: C2'_15  and  O2'_16 
REMARK    9  A    between atoms: C1'_17  and  N9_18 
REMARK   10  A    between atoms: C2_25  and  N2_26 
REMARK   11  A    between atoms: PC_29  and  O3C_32 
REMARK   12  A    between atoms: O3C_32  and  PD_33 
ROOT
ATOM      1  C4' G4P d   1     -26.131  25.657 -26.808  0.00  0.00     0.090 C 
ATOM      2  O4' G4P d   1     -26.297  24.329 -26.258  0.00  0.00    -0.353 OA
ATOM      3  C3' G4P d   1     -27.072  25.761 -28.017  0.00  0.00     0.106 C 
ATOM      4  C2' G4P d   1     -28.235  24.860 -27.632  0.00  0.00     0.106 C 
ATOM      5  C1' G4P d   1     -27.594  23.836 -26.677  0.00  0.00     0.139 C 
ATOM      6  H3  G4P d   1     -25.099  25.845 -27.139  0.00  0.00     0.090 H 
ATOM      7  H4  G4P d   1     -27.413  26.794 -28.183  0.00  0.00     0.092 H 
ATOM      8  H5  G4P d   1     -29.012  25.434 -27.107  0.00  0.00     0.093 H 
ATOM      9  H7  G4P d   1     -27.420  22.913 -27.249  0.00  0.00     0.122 H 
ENDROOT
BRANCH   5  10
ATOM     10  N9  G4P d   1     -28.509  23.472 -25.548  0.00  0.00    -0.295 N 
ATOM     11  C8  G4P d   1     -29.147  24.279 -24.665  0.00  0.00     0.071 A 
ATOM     12  N7  G4P d   1     -29.883  23.523 -23.815  0.00  0.00    -0.234 NA
ATOM     13  H8  G4P d   1     -29.079  25.366 -24.642  0.00  0.00     0.144 H 
ATOM     14  C5  G4P d   1     -29.743  22.221 -24.187  0.00  0.00     0.171 A 
ATOM     15  C6  G4P d   1     -30.244  20.904 -23.728  0.00  0.00     0.292 A 
ATOM     16  C4  G4P d   1     -28.831  22.210 -25.327  0.00  0.00     0.161 A 
ATOM     17  O6  G4P d   1     -31.022  20.826 -22.759  0.00  0.00    -0.265 OA
ATOM     18  N1  G4P d   1     -29.827  19.799 -24.367  0.00  0.00    -0.154 N 
ATOM     19  C2  G4P d   1     -28.981  19.877 -25.418  0.00  0.00     0.680 A 
ATOM     20  H9  G4P d   1     -30.148  18.903 -24.060  0.00  0.00     0.187 HD
ATOM     21  N3  G4P d   1     -28.489  21.047 -25.894  0.00  0.00    -0.174 N 
ATOM     22  H12 G4P d   1     -27.846  21.041 -26.699  0.00  0.00     0.186 HD
BRANCH  19  23
ATOM     23  N2  G4P d   1     -28.609  18.727 -26.043  0.00  0.00    -0.234 N 
ATOM     24  H10 G4P d   1     -27.965  18.762 -26.846  0.00  0.00     0.174 HD
ATOM     25  H11 G4P d   1     -28.971  17.821 -25.713  0.00  0.00     0.174 HD
ENDBRANCH  19  23
ENDBRANCH   5  10
BRANCH   4  26
ATOM     26  O2' G4P d   1     -28.811  24.257 -28.779  0.00  0.00    -0.388 OA
ATOM     27  H6  G4P d   1     -29.130  24.934 -29.365  0.00  0.00     0.210 HD
ENDBRANCH   4  26
BRANCH   1  28
ATOM     28  C5' G4P d   1     -26.460  26.522 -25.604  0.00  0.00     0.058 C 
ATOM     29  H1  G4P d   1     -27.532  26.767 -25.620  0.00  0.00     0.079 H 
ATOM     30  H2  G4P d   1     -26.225  25.964 -24.686  0.00  0.00     0.079 H 
BRANCH  28  31
ATOM     31  O5' G4P d   1     -25.727  27.698 -25.619  0.00  0.00    -0.287 OA
BRANCH  31  32
ATOM     32  PA  G4P d   1     -26.504  29.044 -25.952  0.00  0.00     0.418 P 
ATOM     33  O1A G4P d   1     -27.557  29.333 -24.904  0.00  0.00    -0.624 OA
ATOM     34  O2A G4P d   1     -27.033  28.966 -27.363  0.00  0.00    -0.624 OA
BRANCH  32  35
ATOM     35  O3A G4P d   1     -25.358  30.170 -25.792  0.00  0.00    -0.173 OA
BRANCH  35  36
ATOM     36  PB  G4P d   1     -24.309  30.631 -26.955  0.00  0.00     0.431 P 
ATOM     37  O1B G4P d   1     -24.925  30.253 -28.277  0.00  0.00    -0.616 OA
ATOM     38  O2B G4P d   1     -24.209  32.134 -26.766  0.00  0.00    -0.616 OA
ATOM     39  O3B G4P d   1     -23.039  29.853 -26.619  0.00  0.00    -0.616 OA
ENDBRANCH  35  36
ENDBRANCH  32  35
ENDBRANCH  31  32
ENDBRANCH  28  31
ENDBRANCH   1  28
BRANCH   3  40
ATOM     40  O3' G4P d   1     -26.382  25.292 -29.156  0.00  0.00    -0.279 OA
BRANCH  40  41
ATOM     41  PC  G4P d   1     -25.777  26.271 -30.285  0.00  0.00     0.419 P 
ATOM     42  O1C G4P d   1     -24.684  25.518 -31.014  0.00  0.00    -0.624 OA
ATOM     43  O2C G4P d   1     -25.426  27.603 -29.709  0.00  0.00    -0.624 OA
BRANCH  41  44
ATOM     44  O3C G4P d   1     -27.058  26.407 -31.316  0.00  0.00    -0.173 OA
BRANCH  44  45
ATOM     45  PD  G4P d   1     -28.366  27.317 -31.082  0.00  0.00     0.431 P 
ATOM     46  O1D G4P d   1     -28.045  28.319 -30.044  0.00  0.00    -0.616 OA
ATOM     47  O2D G4P d   1     -28.633  27.939 -32.407  0.00  0.00    -0.616 OA
ATOM     48  O3D G4P d   1     -29.391  26.307 -30.673  0.00  0.00    -0.616 OA
ENDBRANCH  44  45
ENDBRANCH  41  44
ENDBRANCH  40  41
ENDBRANCH   3  40
TORSDOF 12
