REMARK  4 active torsions:
REMARK  status: ('A' for Active; 'I' for Inactive)
REMARK    1  A    between atoms: C02_2  and  C01_1 
REMARK    2  A    between atoms: C09_7  and  C10_8 
REMARK    3  A    between atoms: C10_8  and  P11_18 
REMARK    4  A    between atoms: C17_11  and  C18_12 
ROOT
ATOM      1  C02 TWB d   1      21.659  14.112   6.342  0.00  0.00    -0.053 A 
ATOM      2  C03 TWB d   1      20.799  14.955   5.672  0.00  0.00    -0.043 A 
ATOM      3  C04 TWB d   1      20.300  16.104   6.316  0.00  0.00     0.090 A 
ATOM      4  C06 TWB d   1      18.832  17.902   6.169  0.00  0.00     0.288 C 
ATOM      5  C08 TWB d   1      19.106  18.196   7.476  0.00  0.00    -0.003 C 
ATOM      6  C09 TWB d   1      20.054  17.520   8.205  0.00  0.00    -0.026 C 
ATOM      7  C15 TWB d   1      20.610  16.350   7.586  0.00  0.00     0.005 A 
ATOM      8  C16 TWB d   1      21.476  15.472   8.277  0.00  0.00    -0.064 A 
ATOM      9  C17 TWB d   1      21.998  14.371   7.634  0.00  0.00    -0.055 A 
ATOM     10  O05 TWB d   1      19.432  16.878   5.587  0.00  0.00    -0.275 OA
ATOM     11  O07 TWB d   1      18.086  18.510   5.547  0.00  0.00    -0.260 OA
ATOM     12  H4  TWB d   1      20.507  14.734   4.652  0.00  0.00     0.088 H 
ATOM     13  H5  TWB d   1      18.550  18.999   7.959  0.00  0.00     0.093 H 
ATOM     14  H8  TWB d   1      21.729  15.665   9.313  0.00  0.00     0.085 H 
ENDROOT
BRANCH   6  15
ATOM     15  C10 TWB d   1      20.232  17.840   9.702  0.00  0.00     0.064 C 
ATOM     16  H6  TWB d   1      20.074  18.917   9.863  0.00  0.00     0.061 H 
ATOM     17  H7  TWB d   1      21.253  17.569  10.011  0.00  0.00     0.061 H 
BRANCH  15  18
ATOM     18  P11 TWB d   1      18.995  16.872  10.740  0.00  0.00     0.263 P 
ATOM     19  O12 TWB d   1      19.180  17.195  12.048  0.00  0.00    -0.639 OA
ATOM     20  O13 TWB d   1      19.327  15.374  10.492  0.00  0.00    -0.639 OA
ATOM     21  O14 TWB d   1      17.583  17.203  10.227  0.00  0.00    -0.639 OA
ENDBRANCH  15  18
ENDBRANCH   6  15
BRANCH   9  22
ATOM     22  C18 TWB d   1      22.955  13.441   8.376  0.00  0.00    -0.051 C 
ATOM     23  H9  TWB d   1      23.265  12.624   7.707  0.00  0.00     0.033 H 
ATOM     24  H10 TWB d   1      22.448  13.021   9.257  0.00  0.00     0.033 H 
ATOM     25  H11 TWB d   1      23.841  14.008   8.698  0.00  0.00     0.033 H 
ENDBRANCH   9  22
BRANCH   1  26
ATOM     26  C01 TWB d   1      22.175  12.868   5.622  0.00  0.00    -0.051 C 
ATOM     27  H1  TWB d   1      21.784  12.851   4.594  0.00  0.00     0.033 H 
ATOM     28  H2  TWB d   1      21.838  11.968   6.157  0.00  0.00     0.033 H 
ATOM     29  H3  TWB d   1      23.274  12.889   5.596  0.00  0.00     0.033 H 
ENDBRANCH   1  26
TORSDOF 4
