REMARK  2 active torsions:
REMARK  status: ('A' for Active; 'I' for Inactive)
REMARK    1  A    between atoms: C06_2  and  C05_1 
REMARK    2  A    between atoms: C05_1  and  P02_19 
ROOT
ATOM      1  C06 VKE d   1      19.967  17.904   8.328  0.00  0.00    -0.026 C 
ATOM      2  C07 VKE d   1      19.047  18.598   7.631  0.00  0.00    -0.003 C 
ATOM      3  C08 VKE d   1      18.872  18.432   6.288  0.00  0.00     0.288 C 
ATOM      4  C11 VKE d   1      20.713  17.139   6.221  0.00  0.00     0.093 A 
ATOM      5  C12 VKE d   1      21.640  16.512   5.392  0.00  0.00    -0.014 A 
ATOM      6  C13 VKE d   1      22.758  15.954   5.972  0.00  0.00     0.107 A 
ATOM      7  C15 VKE d   1      24.739  14.993   6.401  0.00  0.00     0.115 C 
ATOM      8  C17 VKE d   1      22.956  16.048   7.301  0.00  0.00     0.106 A 
ATOM      9  C18 VKE d   1      22.009  16.668   8.137  0.00  0.00    -0.035 A 
ATOM     10  C19 VKE d   1      20.884  17.225   7.550  0.00  0.00     0.008 A 
ATOM     11  O09 VKE d   1      18.038  18.918   5.682  0.00  0.00    -0.260 OA
ATOM     12  O10 VKE d   1      19.672  17.667   5.643  0.00  0.00    -0.275 OA
ATOM     13  O14 VKE d   1      23.837  15.257   5.386  0.00  0.00    -0.323 OA
ATOM     14  O16 VKE d   1      24.142  15.378   7.603  0.00  0.00    -0.323 OA
ATOM     15  H3  VKE d   1      18.421  19.317   8.158  0.00  0.00     0.093 H 
ATOM     16  H4  VKE d   1      21.486  16.464   4.320  0.00  0.00     0.092 H 
ATOM     17  H5  VKE d   1      25.664  15.566   6.240  0.00  0.00     0.118 H 
ATOM     18  H6  VKE d   1      24.973  13.918   6.425  0.00  0.00     0.118 H 
ATOM     19  H7  VKE d   1      22.155  16.709   9.210  0.00  0.00     0.089 H 
ENDROOT
BRANCH   1  20
ATOM     20  C05 VKE d   1      20.171  18.121   9.800  0.00  0.00     0.064 C 
ATOM     21  H1  VKE d   1      19.970  19.173  10.051  0.00  0.00     0.061 H 
ATOM     22  H2  VKE d   1      21.207  17.871  10.071  0.00  0.00     0.061 H 
BRANCH  20  23
ATOM     23  P02 VKE d   1      18.995  17.018  10.734  0.00  0.00     0.263 P 
ATOM     24  O01 VKE d   1      17.650  17.284  10.207  0.00  0.00    -0.639 OA
ATOM     25  O03 VKE d   1      19.136  17.227  12.028  0.00  0.00    -0.639 OA
ATOM     26  O04 VKE d   1      19.441  15.611  10.460  0.00  0.00    -0.639 OA
ENDBRANCH  20  23
ENDBRANCH   1  20
TORSDOF 2
