REMARK  4 active torsions:
REMARK  status: ('A' for Active; 'I' for Inactive)
REMARK    1  A    between atoms: C01_1  and  C02_2 
REMARK    2  A    between atoms: C04_4  and  C05_5 
REMARK    3  A    between atoms: C07_7  and  C08_8 
REMARK    4  A    between atoms: C08_8  and  P09_18 
ROOT
ATOM      1  C02 GTV d   1      23.398  16.298   6.158  0.00  0.00    -0.059 A 
ATOM      2  C03 GTV d   1      23.503  16.339   7.487  0.00  0.00    -0.070 A 
ATOM      3  C04 GTV d   1      22.526  16.896   8.248  0.00  0.00    -0.048 A 
ATOM      4  C06 GTV d   1      21.374  17.470   7.633  0.00  0.00     0.011 A 
ATOM      5  C07 GTV d   1      20.270  18.129   8.276  0.00  0.00    -0.026 A 
ATOM      6  C13 GTV d   1      19.261  18.615   7.488  0.00  0.00    -0.002 A 
ATOM      7  C14 GTV d   1      19.225  18.433   6.155  0.00  0.00     0.288 A 
ATOM      8  C17 GTV d   1      21.287  17.416   6.299  0.00  0.00     0.091 A 
ATOM      9  C18 GTV d   1      22.311  16.828   5.541  0.00  0.00    -0.043 A 
ATOM     10  O15 GTV d   1      18.384  18.707   5.462  0.00  0.00    -0.260 OA
ATOM     11  O16 GTV d   1      20.281  17.887   5.593  0.00  0.00    -0.275 OA
ATOM     12  H4  GTV d   1      24.381  15.922   7.967  0.00  0.00     0.085 H 
ATOM     13  H10 GTV d   1      18.453  19.172   7.960  0.00  0.00     0.093 H 
ATOM     14  H11 GTV d   1      22.234  16.797   4.460  0.00  0.00     0.088 H 
ENDROOT
BRANCH   5  15
ATOM     15  C08 GTV d   1      20.167  18.375   9.737  0.00  0.00     0.064 C 
ATOM     16  H8  GTV d   1      19.782  19.394   9.892  0.00  0.00     0.061 H 
ATOM     17  H9  GTV d   1      21.172  18.293  10.175  0.00  0.00     0.061 H 
BRANCH  15  18
ATOM     18  P09 GTV d   1      19.027  17.164  10.627  0.00  0.00     0.263 P 
ATOM     19  O10 GTV d   1      19.144  17.389  11.861  0.00  0.00    -0.639 OA
ATOM     20  O11 GTV d   1      19.574  15.732  10.353  0.00  0.00    -0.639 OA
ATOM     21  O12 GTV d   1      17.610  17.367  10.136  0.00  0.00    -0.639 OA
ENDBRANCH  15  18
ENDBRANCH   5  15
BRANCH   3  22
ATOM     22  C05 GTV d   1      22.787  16.864   9.715  0.00  0.00    -0.050 C 
ATOM     23  H5  GTV d   1      23.747  16.362   9.906  0.00  0.00     0.033 H 
ATOM     24  H6  GTV d   1      21.979  16.314  10.219  0.00  0.00     0.033 H 
ATOM     25  H7  GTV d   1      22.828  17.893  10.103  0.00  0.00     0.033 H 
ENDBRANCH   3  22
BRANCH   1  26
ATOM     26  C01 GTV d   1      24.518  15.641   5.316  0.00  0.00    -0.051 C 
ATOM     27  H1  GTV d   1      25.310  15.271   5.984  0.00  0.00     0.033 H 
ATOM     28  H2  GTV d   1      24.940  16.384   4.623  0.00  0.00     0.033 H 
ATOM     29  H3  GTV d   1      24.100  14.801   4.742  0.00  0.00     0.033 H 
ENDBRANCH   1  26
TORSDOF 4
