REMARK  3 active torsions:
REMARK  status: ('A' for Active; 'I' for Inactive)
REMARK    1  A    between atoms: C01_1  and  C02_2 
REMARK    2  A    between atoms: C07_6  and  C08_7 
REMARK    3  A    between atoms: C08_7  and  P09_17 
ROOT
ATOM      1  C02 YKG d   1      23.200  16.107   6.024  0.00  0.00    -0.058 A 
ATOM      2  C03 YKG d   1      23.332  16.178   7.379  0.00  0.00    -0.059 A 
ATOM      3  C04 YKG d   1      22.402  16.792   8.162  0.00  0.00     0.025 A 
ATOM      4  C06 YKG d   1      21.262  17.373   7.564  0.00  0.00     0.022 A 
ATOM      5  C07 YKG d   1      20.195  18.058   8.246  0.00  0.00    -0.026 A 
ATOM      6  C13 YKG d   1      19.175  18.573   7.458  0.00  0.00    -0.016 A 
ATOM      7  C14 YKG d   1      19.187  18.388   6.127  0.00  0.00     0.221 A 
ATOM      8  C17 YKG d   1      21.141  17.281   6.221  0.00  0.00     0.091 A 
ATOM      9  C18 YKG d   1      22.109  16.663   5.425  0.00  0.00    -0.043 A 
ATOM     10  O15 YKG d   1      18.203  18.849   5.321  0.00  0.00    -0.164 OA
ATOM     11  O16 YKG d   1      20.135  17.766   5.574  0.00  0.00    -0.285 OA
ATOM     12 BR05 YKG d   1      22.820  16.704   9.973  0.00  0.00    -0.050 Br
ATOM     13  H4  YKG d   1      24.203  15.733   7.847  0.00  0.00     0.086 H 
ATOM     14  H7  YKG d   1      18.361  19.130   7.920  0.00  0.00     0.092 H 
ATOM     15  H8  YKG d   1      21.994  16.626   4.348  0.00  0.00     0.088 H 
ENDROOT
BRANCH   5  16
ATOM     16  C08 YKG d   1      20.152  18.281   9.709  0.00  0.00     0.064 C 
ATOM     17  H5  YKG d   1      19.852  19.323   9.895  0.00  0.00     0.061 H 
ATOM     18  H6  YKG d   1      21.159  18.110  10.119  0.00  0.00     0.061 H 
BRANCH  16  19
ATOM     19  P09 YKG d   1      18.974  17.171  10.574  0.00  0.00     0.263 P 
ATOM     20  O10 YKG d   1      17.654  17.440  10.063  0.00  0.00    -0.639 OA
ATOM     21  O11 YKG d   1      19.046  17.398  11.912  0.00  0.00    -0.639 OA
ATOM     22  O12 YKG d   1      19.478  15.749  10.334  0.00  0.00    -0.639 OA
ENDBRANCH  16  19
ENDBRANCH   5  16
BRANCH   1  23
ATOM     23  C01 YKG d   1      24.289  15.401   5.223  0.00  0.00    -0.051 C 
ATOM     24  H1  YKG d   1      25.067  15.032   5.908  0.00  0.00     0.033 H 
ATOM     25  H2  YKG d   1      24.735  16.108   4.508  0.00  0.00     0.033 H 
ATOM     26  H3  YKG d   1      23.851  14.553   4.676  0.00  0.00     0.033 H 
ENDBRANCH   1  23
TORSDOF 3
