REMARK  4 active torsions:
REMARK  status: ('A' for Active; 'I' for Inactive)
REMARK    1  A    between atoms: C02_2  and  C01_1 
REMARK    2  A    between atoms: C09_7  and  C10_8 
REMARK    3  A    between atoms: C10_8  and  P11_18 
REMARK    4  A    between atoms: C17_11  and  C18_12 
ROOT
ATOM      1  C02 TWB d   1      49.092  14.720  46.333  0.00  0.00    -0.053 A 
ATOM      2  C03 TWB d   1      49.778  14.771  45.140  0.00  0.00    -0.043 A 
ATOM      3  C04 TWB d   1      50.513  13.702  44.677  0.00  0.00     0.090 A 
ATOM      4  C06 TWB d   1      51.887  12.821  43.025  0.00  0.00     0.288 A 
ATOM      5  C08 TWB d   1      51.961  11.640  43.774  0.00  0.00    -0.003 A 
ATOM      6  C09 TWB d   1      51.289  11.523  44.977  0.00  0.00    -0.026 A 
ATOM      7  C15 TWB d   1      50.545  12.585  45.462  0.00  0.00     0.005 A 
ATOM      8  C16 TWB d   1      49.879  12.507  46.700  0.00  0.00    -0.064 A 
ATOM      9  C17 TWB d   1      49.151  13.619  47.119  0.00  0.00    -0.055 A 
ATOM     10  O05 TWB d   1      51.161  13.824  43.493  0.00  0.00    -0.275 OA
ATOM     11  O07 TWB d   1      52.426  12.942  41.989  0.00  0.00    -0.260 OA
ATOM     12  H4  TWB d   1      49.738  15.678  44.548  0.00  0.00     0.088 H 
ATOM     13  H5  TWB d   1      52.554  10.805  43.405  0.00  0.00     0.093 H 
ATOM     14  H8  TWB d   1      49.931  11.611  47.308  0.00  0.00     0.085 H 
ENDROOT
BRANCH   6  15
ATOM     15  C10 TWB d   1      51.233  10.262  45.853  0.00  0.00     0.064 C 
ATOM     16  H6  TWB d   1      51.348  10.576  46.901  0.00  0.00     0.061 H 
ATOM     17  H7  TWB d   1      52.079   9.618  45.569  0.00  0.00     0.061 H 
BRANCH  15  18
ATOM     18  P11 TWB d   1      49.665   9.233  45.733  0.00  0.00     0.263 P 
ATOM     19  O12 TWB d   1      48.865   9.333  46.896  0.00  0.00    -0.639 OA
ATOM     20  O13 TWB d   1      50.060   7.743  45.608  0.00  0.00    -0.639 OA
ATOM     21  O14 TWB d   1      48.881   9.663  44.568  0.00  0.00    -0.639 OA
ENDBRANCH  15  18
ENDBRANCH   6  15
BRANCH   9  22
ATOM     22  C18 TWB d   1      48.408  13.603  48.427  0.00  0.00    -0.051 C 
ATOM     23  H9  TWB d   1      47.901  14.568  48.573  0.00  0.00     0.033 H 
ATOM     24  H10 TWB d   1      49.118  13.434  49.250  0.00  0.00     0.033 H 
ATOM     25  H11 TWB d   1      47.662  12.795  48.415  0.00  0.00     0.033 H 
ENDBRANCH   9  22
BRANCH   1  26
ATOM     26  C01 TWB d   1      48.317  15.981  46.716  0.00  0.00    -0.051 C 
ATOM     27  H1  TWB d   1      48.421  16.732  45.919  0.00  0.00     0.033 H 
ATOM     28  H2  TWB d   1      48.719  16.387  47.656  0.00  0.00     0.033 H 
ATOM     29  H3  TWB d   1      47.254  15.732  46.849  0.00  0.00     0.033 H 
ENDBRANCH   1  26
TORSDOF 4
