REMARK  4 active torsions:
REMARK  status: ('A' for Active; 'I' for Inactive)
REMARK    1  A    between atoms: C01_1  and  C02_2 
REMARK    2  A    between atoms: C04_4  and  C05_5 
REMARK    3  A    between atoms: C07_7  and  C08_8 
REMARK    4  A    between atoms: C08_8  and  P09_18 
ROOT
ATOM      1  C02 GTV d   1      14.373  14.222   1.921  0.00  0.00    -0.059 A 
ATOM      2  C03 GTV d   1      14.988  13.015   1.833  0.00  0.00    -0.070 A 
ATOM      3  C04 GTV d   1      14.976  12.122   2.872  0.00  0.00    -0.048 A 
ATOM      4  C06 GTV d   1      14.293  12.445   4.074  0.00  0.00     0.011 A 
ATOM      5  C07 GTV d   1      14.172  11.596   5.218  0.00  0.00    -0.026 C 
ATOM      6  C13 GTV d   1      13.452  12.028   6.281  0.00  0.00    -0.002 C 
ATOM      7  C14 GTV d   1      12.976  13.323   6.338  0.00  0.00     0.288 C 
ATOM      8  C17 GTV d   1      13.704  13.654   4.153  0.00  0.00     0.091 A 
ATOM      9  C18 GTV d   1      13.736  14.561   3.071  0.00  0.00    -0.043 A 
ATOM     10  O15 GTV d   1      12.433  13.690   7.280  0.00  0.00    -0.260 OA
ATOM     11  O16 GTV d   1      13.085  14.021   5.252  0.00  0.00    -0.275 OA
ATOM     12  H4  GTV d   1      15.502  12.751   0.916  0.00  0.00     0.085 H 
ATOM     13  H10 GTV d   1      13.245  11.344   7.103  0.00  0.00     0.093 H 
ATOM     14  H11 GTV d   1      13.252  15.527   3.159  0.00  0.00     0.088 H 
ENDROOT
BRANCH   5  15
ATOM     15  C08 GTV d   1      14.592  10.126   5.201  0.00  0.00     0.064 C 
ATOM     16  H8  GTV d   1      14.846   9.808   6.223  0.00  0.00     0.061 H 
ATOM     17  H9  GTV d   1      15.471  10.006   4.551  0.00  0.00     0.061 H 
BRANCH  15  18
ATOM     18  P09 GTV d   1      13.182   9.060   4.548  0.00  0.00     0.263 P 
ATOM     19  O10 GTV d   1      12.141   9.062   5.465  0.00  0.00    -0.639 OA
ATOM     20  O11 GTV d   1      13.703   7.681   4.344  0.00  0.00    -0.639 OA
ATOM     21  O12 GTV d   1      12.620   9.620   3.267  0.00  0.00    -0.639 OA
ENDBRANCH  15  18
ENDBRANCH   5  15
BRANCH   3  22
ATOM     22  C05 GTV d   1      15.723  10.846   2.502  0.00  0.00    -0.050 C 
ATOM     23  H5  GTV d   1      16.132  10.942   1.485  0.00  0.00     0.033 H 
ATOM     24  H6  GTV d   1      15.031   9.992   2.539  0.00  0.00     0.033 H 
ATOM     25  H7  GTV d   1      16.545  10.683   3.214  0.00  0.00     0.033 H 
ENDBRANCH   3  22
BRANCH   1  26
ATOM     26  C01 GTV d   1      14.434  15.144   0.706  0.00  0.00    -0.051 C 
ATOM     27  H1  GTV d   1      15.001  14.653  -0.099  0.00  0.00     0.033 H 
ATOM     28  H2  GTV d   1      14.932  16.085   0.984  0.00  0.00     0.033 H 
ATOM     29  H3  GTV d   1      13.413  15.359   0.357  0.00  0.00     0.033 H 
ENDBRANCH   1  26
TORSDOF 4
