REMARK  3 active torsions:
REMARK  status: ('A' for Active; 'I' for Inactive)
REMARK    1  A    between atoms: C01_1  and  C02_2 
REMARK    2  A    between atoms: C07_6  and  C08_7 
REMARK    3  A    between atoms: C08_7  and  P09_17 
ROOT
ATOM      1  C02 YKG d   1      49.633  13.694  43.959  0.00  0.00    -0.058 A 
ATOM      2  C03 YKG d   1      50.353  12.551  43.667  0.00  0.00    -0.059 A 
ATOM      3  C04 YKG d   1      50.375  11.520  44.588  0.00  0.00     0.025 A 
ATOM      4  C06 YKG d   1      49.675  11.625  45.823  0.00  0.00     0.022 A 
ATOM      5  C07 YKG d   1      49.598  10.618  46.864  0.00  0.00    -0.025 A 
ATOM      6  C13 YKG d   1      48.853  10.856  47.986  0.00  0.00    -0.002 A 
ATOM      7  C14 YKG d   1      48.224  12.070  48.174  0.00  0.00     0.288 A 
ATOM      8  C17 YKG d   1      48.974  12.805  46.090  0.00  0.00     0.092 A 
ATOM      9  C18 YKG d   1      48.933  13.828  45.129  0.00  0.00    -0.043 A 
ATOM     10  O15 YKG d   1      47.671  12.337  49.137  0.00  0.00    -0.260 OA
ATOM     11  O16 YKG d   1      48.269  12.983  47.227  0.00  0.00    -0.275 OA
ATOM     12 BR05 YKG d   1      51.421  10.033  43.945  0.00  0.00    -0.050 Br
ATOM     13  H4  YKG d   1      50.892  12.464  42.730  0.00  0.00     0.086 H 
ATOM     14  H7  YKG d   1      48.755  10.077  48.741  0.00  0.00     0.093 H 
ATOM     15  H8  YKG d   1      48.349  14.722  45.313  0.00  0.00     0.088 H 
ENDROOT
BRANCH   5  16
ATOM     16  C08 YKG d   1      50.099   9.175  46.647  0.00  0.00     0.064 C 
ATOM     17  H5  YKG d   1      50.509   8.787  47.591  0.00  0.00     0.061 H 
ATOM     18  H6  YKG d   1      50.886   9.175  45.879  0.00  0.00     0.061 H 
BRANCH  16  19
ATOM     19  P09 YKG d   1      48.737   8.114  46.106  0.00  0.00     0.263 P 
ATOM     20  O10 YKG d   1      48.097   8.667  44.841  0.00  0.00    -0.639 OA
ATOM     21  O11 YKG d   1      47.780   8.018  47.307  0.00  0.00    -0.639 OA
ATOM     22  O12 YKG d   1      49.352   6.681  45.791  0.00  0.00    -0.639 OA
ENDBRANCH  16  19
ENDBRANCH   5  16
BRANCH   1  23
ATOM     23  C01 YKG d   1      49.596  14.852  42.967  0.00  0.00    -0.051 C 
ATOM     24  H1  YKG d   1      50.200  14.598  42.084  0.00  0.00     0.033 H 
ATOM     25  H2  YKG d   1      50.005  15.756  43.443  0.00  0.00     0.033 H 
ATOM     26  H3  YKG d   1      48.556  15.038  42.659  0.00  0.00     0.033 H 
ENDBRANCH   1  23
TORSDOF 3
