REMARK  2 active torsions:
REMARK  status: ('A' for Active; 'I' for Inactive)
REMARK    1  A    between atoms: C04_3  and  C05_4 
REMARK    2  A    between atoms: C05_4  and  P06_16 
ROOT
ATOM      1  C02 KED d   1       0.421 -13.695  15.038  0.00  0.00     0.246 A 
ATOM      2  C03 KED d   1       0.814 -12.370  15.324  0.00  0.00    -0.010 A 
ATOM      3  C04 KED d   1       2.079 -11.972  15.035  0.00  0.00    -0.028 A 
ATOM      4  C10 KED d   1       2.949 -12.828  14.409  0.00  0.00    -0.002 A 
ATOM      5  C11 KED d   1       4.221 -12.449  14.077  0.00  0.00    -0.070 A 
ATOM      6  C12 KED d   1       5.076 -13.377  13.488  0.00  0.00    -0.082 A 
ATOM      7  C13 KED d   1       4.653 -14.660  13.241  0.00  0.00    -0.081 A 
ATOM      8  C14 KED d   1       3.387 -15.004  13.575  0.00  0.00    -0.056 A 
ATOM      9  C15 KED d   1       2.511 -14.118  14.161  0.00  0.00     0.045 A 
ATOM     10  N16 KED d   1       1.282 -14.490  14.475  0.00  0.00    -0.323 N 
ATOM     11  O01 KED d   1      -0.626 -14.048  15.292  0.00  0.00    -0.268 OA
ATOM     12  H1  KED d   1       0.108 -11.673  15.773  0.00  0.00     0.092 H 
ATOM     13  H4  KED d   1       4.559 -11.438  14.270  0.00  0.00     0.084 H 
ATOM     14  H5  KED d   1       6.085 -13.084  13.222  0.00  0.00     0.083 H 
ATOM     15  H6  KED d   1       5.320 -15.384  12.787  0.00  0.00     0.083 H 
ATOM     16  H7  KED d   1       3.050 -16.015  13.374  0.00  0.00     0.086 H 
ATOM     17  H8  KED d   1       1.001 -15.428  14.270  0.00  0.00     0.169 HD
ENDROOT
BRANCH   3  18
ATOM     18  C05 KED d   1       2.480 -10.517  15.326  0.00  0.00     0.064 C 
ATOM     19  H2  KED d   1       3.506 -10.507  15.722  0.00  0.00     0.061 H 
ATOM     20  H3  KED d   1       1.792 -10.106  16.079  0.00  0.00     0.061 H 
BRANCH  18  21
ATOM     21  P06 KED d   1       2.415  -9.434  13.799  0.00  0.00     0.263 P 
ATOM     22  O07 KED d   1       1.301  -9.915  12.867  0.00  0.00    -0.639 OA
ATOM     23  O08 KED d   1       2.121  -7.990  14.243  0.00  0.00    -0.639 OA
ATOM     24  O09 KED d   1       3.759  -9.492  13.209  0.00  0.00    -0.639 OA
ENDBRANCH  18  21
ENDBRANCH   3  18
TORSDOF 2
