REMARK  3 active torsions:
REMARK  status: ('A' for Active; 'I' for Inactive)
REMARK    1  A    between atoms: N02_12  and  C01_1 
REMARK    2  A    between atoms: C06_4  and  C07_5 
REMARK    3  A    between atoms: C07_5  and  P08_17 
ROOT
ATOM      1  C03 T6Z d   1      50.788  12.711  44.226  0.00  0.00     0.248 A 
ATOM      2  C05 T6Z d   1      50.968  11.344  44.599  0.00  0.00    -0.010 A 
ATOM      3  C06 T6Z d   1      50.440  10.843  45.786  0.00  0.00    -0.028 A 
ATOM      4  C12 T6Z d   1      49.717  11.747  46.565  0.00  0.00    -0.002 A 
ATOM      5  C13 T6Z d   1      49.197  11.323  47.741  0.00  0.00    -0.070 A 
ATOM      6  C14 T6Z d   1      48.455  12.153  48.559  0.00  0.00    -0.082 A 
ATOM      7  C15 T6Z d   1      48.311  13.466  48.175  0.00  0.00    -0.081 A 
ATOM      8  C16 T6Z d   1      48.846  13.922  46.985  0.00  0.00    -0.056 A 
ATOM      9  C17 T6Z d   1      49.569  13.085  46.162  0.00  0.00     0.047 A 
ATOM     10  N02 T6Z d   1      50.073  13.470  45.002  0.00  0.00    -0.318 N 
ATOM     11  O04 T6Z d   1      51.206  13.145  43.223  0.00  0.00    -0.268 OA
ATOM     12  H4  T6Z d   1      51.529  10.681  43.942  0.00  0.00     0.092 H 
ATOM     13  H7  T6Z d   1      49.368  10.299  48.051  0.00  0.00     0.084 H 
ATOM     14  H8  T6Z d   1      48.002  11.783  49.471  0.00  0.00     0.083 H 
ATOM     15  H9  T6Z d   1      47.770  14.153  48.815  0.00  0.00     0.083 H 
ATOM     16  H10 T6Z d   1      48.695  14.955  46.694  0.00  0.00     0.087 H 
ENDROOT
BRANCH   3  17
ATOM     17  C07 T6Z d   1      50.632   9.392  46.269  0.00  0.00     0.064 C 
ATOM     18  H5  T6Z d   1      50.784   9.394  47.358  0.00  0.00     0.061 H 
ATOM     19  H6  T6Z d   1      51.517   8.964  45.776  0.00  0.00     0.061 H 
BRANCH  17  20
ATOM     20  P08 T6Z d   1      49.162   8.354  45.870  0.00  0.00     0.263 P 
ATOM     21  O09 T6Z d   1      49.658   6.897  45.690  0.00  0.00    -0.639 OA
ATOM     22  O10 T6Z d   1      48.519   8.746  44.608  0.00  0.00    -0.639 OA
ATOM     23  O11 T6Z d   1      48.245   8.405  47.038  0.00  0.00    -0.639 OA
ENDBRANCH  17  20
ENDBRANCH   3  17
BRANCH  10  24
ATOM     24  C01 T6Z d   1      49.878  14.896  44.656  0.00  0.00    -0.011 C 
ATOM     25  H1  T6Z d   1      50.335  15.101  43.677  0.00  0.00     0.057 H 
ATOM     26  H2  T6Z d   1      50.352  15.527  45.422  0.00  0.00     0.057 H 
ATOM     27  H3  T6Z d   1      48.802  15.119  44.612  0.00  0.00     0.057 H 
ENDBRANCH  10  24
TORSDOF 3
