REMARK  4 active torsions:
REMARK  status: ('A' for Active; 'I' for Inactive)
REMARK    1  A    between atoms: C01_1  and  C02_2 
REMARK    2  A    between atoms: C04_4  and  C05_5 
REMARK    3  A    between atoms: C07_7  and  C08_8 
REMARK    4  A    between atoms: C08_8  and  P09_18 
ROOT
ATOM      1  C02 MOL d   1      50.483  14.102  43.452  0.00  0.00    -0.059 A 
ATOM      2  C03 MOL d   1      51.056  12.852  43.431  0.00  0.00    -0.071 A 
ATOM      3  C04 MOL d   1      50.876  11.974  44.508  0.00  0.00    -0.049 A 
ATOM      4  C06 MOL d   1      50.088  12.410  45.625  0.00  0.00     0.004 A 
ATOM      5  C07 MOL d   1      49.817  11.567  46.784  0.00  0.00    -0.027 A 
ATOM      6  C13 MOL d   1      49.036  12.091  47.829  0.00  0.00    -0.010 A 
ATOM      7  C14 MOL d   1      48.584  13.412  47.755  0.00  0.00     0.246 A 
ATOM      8  C17 MOL d   1      49.574  13.679  45.640  0.00  0.00     0.046 A 
ATOM      9  C18 MOL d   1      49.773  14.497  44.540  0.00  0.00    -0.051 A 
ATOM     10  N16 MOL d   1      48.843  14.100  46.676  0.00  0.00    -0.323 N 
ATOM     11  O15 MOL d   1      47.968  13.796  48.655  0.00  0.00    -0.268 OA
ATOM     12  H4  MOL d   1      51.650  12.545  42.578  0.00  0.00     0.085 H 
ATOM     13  H10 MOL d   1      48.785  11.473  48.690  0.00  0.00     0.092 H 
ATOM     14  H11 MOL d   1      49.345  15.493  44.548  0.00  0.00     0.087 H 
ATOM     15  H12 MOL d   1      48.461  15.022  46.620  0.00  0.00     0.169 HD
ENDROOT
BRANCH   5  16
ATOM     16  C08 MOL d   1      50.295  10.083  46.857  0.00  0.00     0.064 C 
ATOM     17  H8  MOL d   1      50.478   9.789  47.901  0.00  0.00     0.061 H 
ATOM     18  H9  MOL d   1      51.216   9.947  46.271  0.00  0.00     0.061 H 
BRANCH  16  19
ATOM     19  P09 MOL d   1      48.901   9.072  46.129  0.00  0.00     0.263 P 
ATOM     20  O10 MOL d   1      49.492   7.619  45.906  0.00  0.00    -0.639 OA
ATOM     21  O11 MOL d   1      47.765   9.048  47.181  0.00  0.00    -0.639 OA
ATOM     22  O12 MOL d   1      48.434   9.580  44.762  0.00  0.00    -0.639 OA
ENDBRANCH  16  19
ENDBRANCH   5  16
BRANCH   3  23
ATOM     23  C05 MOL d   1      51.544  10.624  44.327  0.00  0.00    -0.050 C 
ATOM     24  H5  MOL d   1      52.074  10.603  43.363  0.00  0.00     0.033 H 
ATOM     25  H6  MOL d   1      50.781   9.832  44.343  0.00  0.00     0.033 H 
ATOM     26  H7  MOL d   1      52.262  10.458  45.144  0.00  0.00     0.033 H 
ENDBRANCH   3  23
BRANCH   1  27
ATOM     27  C01 MOL d   1      50.688  15.043  42.276  0.00  0.00    -0.051 C 
ATOM     28  H1  MOL d   1      51.285  14.538  41.502  0.00  0.00     0.033 H 
ATOM     29  H2  MOL d   1      51.217  15.945  42.616  0.00  0.00     0.033 H 
ATOM     30  H3  MOL d   1      49.711  15.326  41.858  0.00  0.00     0.033 H 
ENDBRANCH   1  27
TORSDOF 4
