REMARK  2 active torsions:
REMARK  status: ('A' for Active; 'I' for Inactive)
REMARK    1  A    between atoms: C05_1  and  C06_2 
REMARK    2  A    between atoms: C05_1  and  P02_15 
ROOT
ATOM      1  C06 M3Q d   1      14.006  12.972   5.338  0.00  0.00    -0.016 A 
ATOM      2  C07 M3Q d   1      13.332  13.130   6.486  0.00  0.00    -0.074 A 
ATOM      3  C08 M3Q d   1      12.766  14.365   6.817  0.00  0.00    -0.082 A 
ATOM      4  C09 M3Q d   1      12.854  15.407   5.915  0.00  0.00    -0.071 A 
ATOM      5  C10 M3Q d   1      13.541  15.262   4.710  0.00  0.00    -0.007 A 
ATOM      6  C11 M3Q d   1      13.653  16.289   3.754  0.00  0.00    -0.069 A 
ATOM      7  C12 M3Q d   1      14.317  16.081   2.587  0.00  0.00    -0.065 A 
ATOM      8  C13 M3Q d   1      14.896  14.818   2.330  0.00  0.00     0.003 A 
ATOM      9  C15 M3Q d   1      14.104  14.032   4.405  0.00  0.00     0.073 A 
ATOM     10  N14 M3Q d   1      14.773  13.866   3.257  0.00  0.00    -0.260 NA
ATOM     11  H3  M3Q d   1      13.225  12.292   7.165  0.00  0.00     0.084 H 
ATOM     12  H4  M3Q d   1      12.265  14.503   7.768  0.00  0.00     0.083 H 
ATOM     13  H5  M3Q d   1      12.381  16.354   6.148  0.00  0.00     0.084 H 
ATOM     14  H6  M3Q d   1      13.205  17.256   3.951  0.00  0.00     0.085 H 
ATOM     15  H7  M3Q d   1      14.402  16.879   1.858  0.00  0.00     0.085 H 
ATOM     16  H8  M3Q d   1      15.426  14.627   1.404  0.00  0.00     0.114 H 
ENDROOT
BRANCH   1  17
ATOM     17  C05 M3Q d   1      14.605  11.583   5.037  0.00  0.00     0.065 C 
ATOM     18  H1  M3Q d   1      15.113  11.202   5.935  0.00  0.00     0.061 H 
ATOM     19  H2  M3Q d   1      15.330  11.669   4.214  0.00  0.00     0.061 H 
BRANCH  17  20
ATOM     20  P02 M3Q d   1      13.264  10.415   4.551  0.00  0.00     0.263 P 
ATOM     21  O01 M3Q d   1      13.858   9.034   4.261  0.00  0.00    -0.639 OA
ATOM     22  O03 M3Q d   1      12.566  10.952   3.287  0.00  0.00    -0.639 OA
ATOM     23  O04 M3Q d   1      12.351  10.343   5.749  0.00  0.00    -0.639 OA
ENDBRANCH  17  20
ENDBRANCH   1  17
TORSDOF 2
