REMARK  1 active torsions:
REMARK  status: ('A' for Active; 'I' for Inactive)
REMARK    1  A    between atoms: CG_1  and  C4_6 
ROOT
ATOM      1  CG  4MZ d   1     -27.907   9.661 -16.642  0.00  0.00     0.023 A 
ATOM      2  ND1 4MZ d   1     -29.173   9.946 -16.974  0.00  0.00    -0.353 N 
ATOM      3  CD2 4MZ d   1     -27.832   9.499 -15.248  0.00  0.00     0.025 A 
ATOM      4  CE1 4MZ d   1     -29.858   9.972 -15.840  0.00  0.00     0.063 A 
ATOM      5  NE2 4MZ d   1     -29.077   9.709 -14.796  0.00  0.00    -0.254 NA
ATOM      6  H1  4MZ d   1     -29.541  10.112 -17.922  0.00  0.00     0.166 HD
ATOM      7  H2  4MZ d   1     -26.949   9.255 -14.659  0.00  0.00     0.117 H 
ATOM      8  H3  4MZ d   1     -30.924  10.182 -15.772  0.00  0.00     0.143 H 
ENDROOT
BRANCH   1   9
ATOM      9  C4  4MZ d   1     -26.772   9.513 -17.597  0.00  0.00    -0.036 C 
ATOM     10  H4  4MZ d   1     -25.853   9.279 -17.040  0.00  0.00     0.035 H 
ATOM     11  H5  4MZ d   1     -26.635  10.453 -18.152  0.00  0.00     0.035 H 
ATOM     12  H6  4MZ d   1     -26.991   8.698 -18.303  0.00  0.00     0.035 H 
ENDBRANCH   1   9
TORSDOF 1
