REMARK  3 active torsions:
REMARK  status: ('A' for Active; 'I' for Inactive)
REMARK    1  A    between atoms: CAC_2  and  OAH_8 
REMARK    2  A    between atoms: CAE_4  and  PAI_12 
REMARK    3  A    between atoms: NAB_5  and  OAF_6 
ROOT
ATOM      1  CAA MOL d   1     -30.352  38.580 -33.998  0.00  0.00     0.263 C 
ATOM      2  CAC MOL d   1     -28.545  38.793 -32.483  0.00  0.00     0.131 C 
ATOM      3  CAD MOL d   1     -29.173  40.169 -32.687  0.00  0.00     0.001 C 
ATOM      4  CAE MOL d   1     -30.548  39.898 -33.306  0.00  0.00     0.138 C 
ATOM      5  NAB MOL d   1     -29.319  37.953 -33.420  0.00  0.00    -0.198 N 
ATOM      6  OAG MOL d   1     -30.976  38.168 -34.965  0.00  0.00    -0.270 OA
ATOM      7  H1  MOL d   1     -28.666  38.453 -31.444  0.00  0.00     0.121 H 
ATOM      8  H2  MOL d   1     -28.558  40.776 -33.367  0.00  0.00     0.041 H 
ATOM      9  H3  MOL d   1     -29.280  40.690 -31.724  0.00  0.00     0.041 H 
ATOM     10  H4  MOL d   1     -30.787  40.700 -34.020  0.00  0.00     0.076 H 
ENDROOT
BRANCH   4  11
ATOM     11  PAI MOL d   1     -31.972  39.677 -32.183  0.00  0.00     0.273 P 
ATOM     12  OAJ MOL d   1     -31.750  38.496 -31.271  0.00  0.00    -0.639 OA
ATOM     13  OAK MOL d   1     -33.100  39.436 -33.150  0.00  0.00    -0.639 OA
ATOM     14  OAL MOL d   1     -32.134  40.925 -31.403  0.00  0.00    -0.639 OA
ENDBRANCH   4  11
BRANCH   5  15
ATOM     15  OAF MOL d   1     -28.898  36.680 -33.774  0.00  0.00    -0.282 OA
ATOM     16  H5  MOL d   1     -29.521  36.299 -34.381  0.00  0.00     0.245 HD
ENDBRANCH   5  15
BRANCH   2  17
ATOM     17  OAH MOL d   1     -27.175  38.780 -32.828  0.00  0.00    -0.374 OA
ATOM     18  H6  MOL d   1     -27.068  39.119 -33.709  0.00  0.00     0.212 HD
ENDBRANCH   2  17
TORSDOF 3
