REMARK  4 active torsions:
REMARK  status: ('A' for Active; 'I' for Inactive)
REMARK    1  A    between atoms: C2_2  and  O2_8 
REMARK    2  A    between atoms: C3_3  and  O3_9 
REMARK    3  A    between atoms: C4_4  and  O4_10 
REMARK    4  A    between atoms: C5_5  and  C6_6 
ROOT
ATOM      1  C1  GCB d   1      19.027  -9.562 -22.698  0.00  0.00     0.291 C 
ATOM      2  C2  GCB d   1      17.706  -8.710 -22.775  0.00  0.00     0.146 C 
ATOM      3  C3  GCB d   1      16.605  -9.374 -23.428  0.00  0.00     0.097 C 
ATOM      4  C4  GCB d   1      16.954  -9.797 -24.779  0.00  0.00     0.098 C 
ATOM      5  C5  GCB d   1      18.092 -10.769 -24.690  0.00  0.00     0.158 C 
ATOM      6  O1  GCB d   1      19.740  -9.655 -21.755  0.00  0.00    -0.262 OA
ATOM      7  O5  GCB d   1      19.309 -10.270 -23.976  0.00  0.00    -0.300 OA
ATOM      8  H1  GCB d   1      17.931  -7.790 -23.334  0.00  0.00     0.103 H 
ATOM      9  H2  GCB d   1      16.337 -10.260 -22.834  0.00  0.00     0.091 H 
ATOM     10  H3  GCB d   1      17.257  -8.909 -25.353  0.00  0.00     0.091 H 
ATOM     11  H4  GCB d   1      17.716 -11.651 -24.151  0.00  0.00     0.105 H 
ENDROOT
BRANCH   5  12
ATOM     12  C6  GCB d   1      18.569 -11.194 -26.031  0.00  0.00     0.206 C 
ATOM     13  O6A GCB d   1      18.225 -12.324 -26.442  0.00  0.00    -0.646 OA
ATOM     14  O6B GCB d   1      19.304 -10.449 -26.723  0.00  0.00    -0.646 OA
ENDBRANCH   5  12
BRANCH   4  15
ATOM     15  O4  GCB d   1      15.958 -10.443 -25.458  0.00  0.00    -0.390 OA
ATOM     16  H7  GCB d   1      16.271 -10.686 -26.322  0.00  0.00     0.210 HD
ENDBRANCH   4  15
BRANCH   3  17
ATOM     17  O3  GCB d   1      15.440  -8.497 -23.528  0.00  0.00    -0.390 OA
ATOM     18  H6  GCB d   1      15.189  -8.205 -22.659  0.00  0.00     0.210 HD
ENDBRANCH   3  17
BRANCH   2  19
ATOM     19  O2  GCB d   1      17.275  -8.355 -21.422  0.00  0.00    -0.383 OA
ATOM     20  H5  GCB d   1      17.038  -9.144 -20.949  0.00  0.00     0.210 HD
ENDBRANCH   2  19
TORSDOF 4
