REMARK  7 active torsions:
REMARK  status: ('A' for Active; 'I' for Inactive)
REMARK    1  A    between atoms: C5_4  and  N1_1 
REMARK    2  A    between atoms: C11_19  and  N3_2 
REMARK    3  A    between atoms: C18_23  and  C17_11 
REMARK    4  A    between atoms: C17_11  and  N5_33 
REMARK    5  A    between atoms: C20_12  and  C21_13 
REMARK    6  A    between atoms: C23_26  and  C24_15 
REMARK    7  A    between atoms: N_16  and  C_17 
ROOT
ATOM      1  C5  FWA d   1      35.695  28.922  26.294  0.00  0.00     0.063 A 
ATOM      2  C6  FWA d   1      34.654  29.396  27.128  0.00  0.00    -0.034 A 
ATOM      3  C7  FWA d   1      33.433  29.637  26.575  0.00  0.00     0.038 A 
ATOM      4  C8  FWA d   1      33.024  29.505  25.316  0.00  0.00    -0.034 A 
ATOM      5  C10 FWA d   1      35.345  28.750  24.951  0.00  0.00     0.113 A 
ATOM      6  C11 FWA d   1      35.405  28.266  22.840  0.00  0.00     0.185 A 
ATOM      7  C9  FWA d   1      34.066  29.012  24.483  0.00  0.00     0.070 A 
ATOM      8  N2  FWA d   1      36.211  28.275  23.925  0.00  0.00    -0.215 NA
ATOM      9  N5  FWA d   1      34.069  28.682  23.118  0.00  0.00    -0.315 N 
ATOM     10 CL   FWA d   1      32.138  30.170  27.695  0.00  0.00    -0.084 Cl
ATOM     11  H3  FWA d   1      34.825  29.564  28.185  0.00  0.00     0.089 H 
ATOM     12  H4  FWA d   1      32.025  29.743  24.970  0.00  0.00     0.089 H 
ENDROOT
BRANCH   9  13
ATOM     13  C17 FWA d   1      32.878  28.714  22.288  0.00  0.00     0.026 C 
ATOM     14  H7  FWA d   1      32.885  27.836  21.625  0.00  0.00     0.072 H 
ATOM     15  H8  FWA d   1      31.992  28.675  22.939  0.00  0.00     0.072 H 
BRANCH  13  16
ATOM     16  C18 FWA d   1      32.805  29.950  21.449  0.00  0.00    -0.039 A 
ATOM     17  C19 FWA d   1      33.511  31.160  21.792  0.00  0.00    -0.067 A 
ATOM     18  C20 FWA d   1      33.311  32.296  21.012  0.00  0.00    -0.022 A 
ATOM     19  H27 FWA d   1      34.185  31.185  22.641  0.00  0.00     0.085 H 
ATOM     20  C22 FWA d   1      32.473  32.233  19.918  0.00  0.00     0.128 A 
ATOM     21  C23 FWA d   1      31.774  31.065  19.607  0.00  0.00    -0.022 A 
ATOM     22  F   FWA d   1      32.281  33.289  19.122  0.00  0.00    -0.205 F 
ATOM     23  C25 FWA d   1      31.931  29.930  20.351  0.00  0.00    -0.067 A 
ATOM     24  H30 FWA d   1      31.388  29.027  20.097  0.00  0.00     0.085 H 
BRANCH  18  25
ATOM     25  C21 FWA d   1      34.039  33.584  21.343  0.00  0.00    -0.048 C 
ATOM     26  H9  FWA d   1      34.654  33.437  22.243  0.00  0.00     0.033 H 
ATOM     27  H10 FWA d   1      33.306  34.383  21.527  0.00  0.00     0.033 H 
ATOM     28  H11 FWA d   1      34.686  33.867  20.499  0.00  0.00     0.033 H 
ENDBRANCH  18  25
BRANCH  21  29
ATOM     29  C24 FWA d   1      30.809  31.107  18.444  0.00  0.00    -0.048 C 
ATOM     30  H12 FWA d   1      30.338  30.120  18.323  0.00  0.00     0.033 H 
ATOM     31  H13 FWA d   1      31.354  31.369  17.525  0.00  0.00     0.033 H 
ATOM     32  H14 FWA d   1      30.033  31.862  18.638  0.00  0.00     0.033 H 
ENDBRANCH  21  29
ENDBRANCH  13  16
ENDBRANCH   9  13
BRANCH   6  33
ATOM     33  N3  FWA d   1      35.851  28.003  21.512  0.00  0.00    -0.251 NA
ATOM     34  C12 FWA d   1      37.162  27.331  21.293  0.00  0.00    -0.003 C 
ATOM     35  C13 FWA d   1      36.554  26.798  19.997  0.00  0.00     0.032 C 
ATOM     36  H21 FWA d   1      37.419  26.561  22.036  0.00  0.00     0.057 H 
ATOM     37  H22 FWA d   1      38.016  28.012  21.160  0.00  0.00     0.057 H 
ATOM     38  C15 FWA d   1      37.131  27.294  18.617  0.00  0.00     0.092 C 
ATOM     39  C14 FWA d   1      36.734  25.332  19.576  0.00  0.00     0.092 C 
ATOM     40  C16 FWA d   1      35.120  27.257  20.434  0.00  0.00    -0.003 C 
ATOM     41  N4  FWA d   1      37.146  25.840  18.162  0.00  0.00    -0.073 N 
ATOM     42  H5  FWA d   1      38.124  27.764  18.679  0.00  0.00     0.077 H 
ATOM     43  H6  FWA d   1      36.453  27.945  18.046  0.00  0.00     0.077 H 
ATOM     44  H33 FWA d   1      38.055  25.519  17.867  0.00  0.00     0.277 HD
ATOM     45  H34 FWA d   1      36.468  25.634  17.446  0.00  0.00     0.277 HD
ATOM     46  H23 FWA d   1      35.810  24.735  19.595  0.00  0.00     0.077 H 
ATOM     47  H24 FWA d   1      37.528  24.796  20.117  0.00  0.00     0.077 H 
ATOM     48  H25 FWA d   1      34.585  27.885  19.707  0.00  0.00     0.057 H 
ATOM     49  H26 FWA d   1      34.455  26.454  20.785  0.00  0.00     0.057 H 
ENDBRANCH   6  33
BRANCH   1  50
ATOM     50  N1  FWA d   1      36.959  28.618  26.786  0.00  0.00    -0.376 N 
ATOM     51  C2  FWA d   1      37.071  28.544  28.287  0.00  0.00     0.018 C 
ATOM     52  C1  FWA d   1      38.440  27.831  28.637  0.00  0.00     0.098 C 
ATOM     53  H28 FWA d   1      36.231  27.963  28.696  0.00  0.00     0.066 H 
ATOM     54  H29 FWA d   1      37.058  29.558  28.713  0.00  0.00     0.066 H 
ATOM     55  N   FWA d   1      39.573  28.565  27.981  0.00  0.00    -0.072 N 
ATOM     56  H19 FWA d   1      38.585  27.833  29.727  0.00  0.00     0.078 H 
ATOM     57  H20 FWA d   1      38.416  26.794  28.272  0.00  0.00     0.078 H 
ATOM     58  C4  FWA d   1      39.412  28.610  26.508  0.00  0.00     0.098 C 
ATOM     59  H15 FWA d   1      39.587  29.510  28.331  0.00  0.00     0.279 HD
ATOM     60  C3  FWA d   1      38.067  29.314  26.177  0.00  0.00     0.018 C 
ATOM     61  H1  FWA d   1      39.404  27.587  26.105  0.00  0.00     0.078 H 
ATOM     62  H2  FWA d   1      40.245  29.173  26.061  0.00  0.00     0.078 H 
ATOM     63  H31 FWA d   1      38.097  30.346  26.557  0.00  0.00     0.066 H 
ATOM     64  H32 FWA d   1      37.927  29.329  25.086  0.00  0.00     0.066 H 
BRANCH  55  65
ATOM     65  C   FWA d   1      40.875  27.897  28.328  0.00  0.00     0.066 C 
ATOM     66  H16 FWA d   1      40.991  27.866  29.421  0.00  0.00     0.068 H 
ATOM     67  H17 FWA d   1      41.708  28.465  27.887  0.00  0.00     0.068 H 
ATOM     68  H18 FWA d   1      40.879  26.872  27.929  0.00  0.00     0.068 H 
ENDBRANCH  55  65
ENDBRANCH   1  50
TORSDOF 7
