REMARK  8 active torsions:
REMARK  status: ('A' for Active; 'I' for Inactive)
REMARK    1  A    between atoms: C4_3  and  N_16 
REMARK    2  A    between atoms: C3_28  and  C4_3 
REMARK    3  A    between atoms: C5_4  and  N4_32 
REMARK    4  A    between atoms: C7_6  and  C12_20 
REMARK    5  A    between atoms: C13_9  and  C14_21 
REMARK    6  A    between atoms: C15_10  and  C16_22 
REMARK    7  A    between atoms: C23_26  and  C24_15 
REMARK    8  A    between atoms: C1_18  and  C_17 
ROOT
ATOM      1  N1  FVM d   1      36.436  29.480  23.645  0.00  0.00    -0.217 NA
ATOM      2  C5  FVM d   1      35.635  29.070  22.635  0.00  0.00     0.185 A 
ATOM      3  C6  FVM d   1      35.556  29.849  24.677  0.00  0.00     0.098 A 
ATOM      4  C7  FVM d   1      35.859  30.365  25.934  0.00  0.00     0.011 A 
ATOM      5  C8  FVM d   1      34.817  30.617  26.811  0.00  0.00    -0.049 A 
ATOM      6  C10 FVM d   1      33.141  29.892  25.149  0.00  0.00    -0.034 A 
ATOM      7  N   FVM d   1      34.243  29.172  22.980  0.00  0.00    -0.315 N 
ATOM      8  C11 FVM d   1      34.211  29.643  24.295  0.00  0.00     0.068 A 
ATOM      9  C9  FVM d   1      33.502  30.353  26.389  0.00  0.00     0.037 A 
ATOM     10 CL   FVM d   1      32.239  30.530  27.554  0.00  0.00    -0.084 Cl
ATOM     11  H3  FVM d   1      35.011  31.010  27.802  0.00  0.00     0.087 H 
ATOM     12  H4  FVM d   1      32.109  29.735  24.858  0.00  0.00     0.089 H 
ENDROOT
BRANCH   7  13
ATOM     13  C4  FVM d   1      33.023  28.986  22.186  0.00  0.00     0.026 C 
ATOM     14  H1  FVM d   1      32.158  28.877  22.857  0.00  0.00     0.072 H 
ATOM     15  H2  FVM d   1      33.120  28.084  21.564  0.00  0.00     0.072 H 
BRANCH  13  16
ATOM     16  C3  FVM d   1      32.831  30.192  21.303  0.00  0.00    -0.039 A 
ATOM     17  C22 FVM d   1      33.507  31.390  21.581  0.00  0.00    -0.067 A 
ATOM     18  C23 FVM d   1      33.333  32.510  20.770  0.00  0.00    -0.022 A 
ATOM     19  H11 FVM d   1      34.172  31.445  22.436  0.00  0.00     0.085 H 
ATOM     20  C25 FVM d   1      32.472  32.400  19.686  0.00  0.00     0.128 A 
ATOM     21  C1  FVM d   1      31.768  31.211  19.399  0.00  0.00    -0.022 A 
ATOM     22  F   FVM d   1      32.320  33.435  18.892  0.00  0.00    -0.205 F 
ATOM     23  C2  FVM d   1      31.962  30.102  20.208  0.00  0.00    -0.067 A 
ATOM     24  H26 FVM d   1      31.446  29.173  19.995  0.00  0.00     0.085 H 
BRANCH  18  25
ATOM     25  C24 FVM d   1      34.039  33.795  21.048  0.00  0.00    -0.048 C 
ATOM     26  H12 FVM d   1      34.670  33.681  21.942  0.00  0.00     0.033 H 
ATOM     27  H13 FVM d   1      33.299  34.590  21.221  0.00  0.00     0.033 H 
ATOM     28  H14 FVM d   1      34.669  34.061  20.186  0.00  0.00     0.033 H 
ENDBRANCH  18  25
BRANCH  21  29
ATOM     29  C   FVM d   1      30.801  31.176  18.284  0.00  0.00    -0.048 C 
ATOM     30  H15 FVM d   1      30.356  30.172  18.216  0.00  0.00     0.033 H 
ATOM     31  H16 FVM d   1      31.318  31.412  17.342  0.00  0.00     0.033 H 
ATOM     32  H17 FVM d   1      30.008  31.917  18.463  0.00  0.00     0.033 H 
ENDBRANCH  21  29
ENDBRANCH  13  16
ENDBRANCH   7  13
BRANCH   2  33
ATOM     33  N4  FVM d   1      36.087  28.589  21.366  0.00  0.00    -0.251 NA
ATOM     34  C17 FVM d   1      35.506  27.320  20.751  0.00  0.00    -0.003 C 
ATOM     35  C18 FVM d   1      36.909  27.081  20.187  0.00  0.00     0.032 A 
ATOM     36  H5  FVM d   1      35.162  26.568  21.476  0.00  0.00     0.057 H 
ATOM     37  H6  FVM d   1      34.724  27.486  19.996  0.00  0.00     0.057 H 
ATOM     38  C20 FVM d   1      37.409  25.653  19.884  0.00  0.00     0.092 A 
ATOM     39  C21 FVM d   1      37.460  27.937  21.345  0.00  0.00    -0.003 C 
ATOM     40  C19 FVM d   1      37.244  27.488  18.738  0.00  0.00     0.092 A 
ATOM     41  N5  FVM d   1      37.751  26.090  18.473  0.00  0.00    -0.073 N 
ATOM     42  H7  FVM d   1      36.629  24.880  19.941  0.00  0.00     0.077 H 
ATOM     43  H8  FVM d   1      38.277  25.342  20.483  0.00  0.00     0.077 H 
ATOM     44  H28 FVM d   1      37.234  25.599  17.760  0.00  0.00     0.277 HD
ATOM     45  H29 FVM d   1      38.736  26.049  18.263  0.00  0.00     0.277 HD
ATOM     46  H9  FVM d   1      38.289  28.607  21.075  0.00  0.00     0.057 H 
ATOM     47  H10 FVM d   1      37.723  27.376  22.254  0.00  0.00     0.057 H 
ATOM     48  H24 FVM d   1      38.014  28.270  18.656  0.00  0.00     0.077 H 
ATOM     49  H25 FVM d   1      36.368  27.771  18.136  0.00  0.00     0.077 H 
ENDBRANCH   2  33
BRANCH   4  50
ATOM     50  C12 FVM d   1      37.226  30.668  26.223  0.00  0.00     0.026 A 
ATOM     51  C13 FVM d   1      38.129  30.014  27.121  0.00  0.00     0.037 A 
ATOM     52  N2  FVM d   1      39.368  30.589  27.028  0.00  0.00    -0.282 N 
ATOM     53  N3  FVM d   1      39.254  31.584  26.095  0.00  0.00    -0.179 NA
ATOM     54  H27 FVM d   1      40.214  30.326  27.553  0.00  0.00     0.189 HD
ATOM     55  C15 FVM d   1      37.966  31.678  25.579  0.00  0.00     0.064 A 
BRANCH  51  56
ATOM     56  C14 FVM d   1      37.848  28.880  28.031  0.00  0.00    -0.035 C 
ATOM     57  H18 FVM d   1      38.762  28.618  28.584  0.00  0.00     0.035 H 
ATOM     58  H19 FVM d   1      37.514  28.012  27.443  0.00  0.00     0.035 H 
ATOM     59  H20 FVM d   1      37.059  29.167  28.742  0.00  0.00     0.035 H 
ENDBRANCH  51  56
BRANCH  55  60
ATOM     60  C16 FVM d   1      37.553  32.689  24.566  0.00  0.00    -0.033 C 
ATOM     61  H21 FVM d   1      36.489  32.553  24.325  0.00  0.00     0.035 H 
ATOM     62  H22 FVM d   1      38.155  32.562  23.654  0.00  0.00     0.035 H 
ATOM     63  H23 FVM d   1      37.710  33.700  24.971  0.00  0.00     0.035 H 
ENDBRANCH  55  60
ENDBRANCH   4  50
TORSDOF 8
