REMARK  8 active torsions:
REMARK  status: ('A' for Active; 'I' for Inactive)
REMARK    1  A    between atoms: C16_22  and  N3_2 
REMARK    2  A    between atoms: C4_3  and  N_16 
REMARK    3  A    between atoms: C3_27  and  C4_3 
REMARK    4  A    between atoms: C5_4  and  N4_31 
REMARK    5  A    between atoms: C7_6  and  N2_30 
REMARK    6  A    between atoms: C15_10  and  C16_22 
REMARK    7  A    between atoms: C22_14  and  C23_26 
REMARK    8  A    between atoms: C1_18  and  C_17 
ROOT
ATOM      1  N1  FVG d   1      36.300  28.097  23.543  0.00  0.00    -0.060 NA
ATOM      2  C5  FVG d   1      35.450  28.153  22.511  0.00  0.00     0.706 A 
ATOM      3  C6  FVG d   1      35.590  28.671  24.622  0.00  0.00     0.130 A 
ATOM      4  C7  FVG d   1      35.963  28.825  25.964  0.00  0.00     0.064 A 
ATOM      5  C8  FVG d   1      34.996  29.376  26.828  0.00  0.00    -0.034 A 
ATOM      6  C10 FVG d   1      33.352  29.640  25.041  0.00  0.00    -0.033 A 
ATOM      7  N   FVG d   1      34.225  28.724  22.830  0.00  0.00    -0.175 N 
ATOM      8  C11 FVG d   1      34.314  29.070  24.197  0.00  0.00     0.085 A 
ATOM      9  C9  FVG d   1      33.737  29.749  26.346  0.00  0.00     0.038 A 
ATOM     10 CL   FVG d   1      32.501  30.328  27.472  0.00  0.00    -0.084 Cl
ATOM     11  H6  FVG d   1      35.230  29.512  27.878  0.00  0.00     0.089 H 
ATOM     12  H7  FVG d   1      32.381  29.968  24.687  0.00  0.00     0.089 H 
ENDROOT
BRANCH   7  13
ATOM     13  C4  FVG d   1      32.991  28.851  22.083  0.00  0.00     0.041 C 
ATOM     14  H4  FVG d   1      32.155  28.780  22.794  0.00  0.00     0.073 H 
ATOM     15  H5  FVG d   1      32.938  28.015  21.370  0.00  0.00     0.073 H 
BRANCH  13  16
ATOM     16  C3  FVG d   1      32.833  30.133  21.307  0.00  0.00    -0.038 A 
ATOM     17  C21 FVG d   1      31.944  30.087  20.237  0.00  0.00    -0.067 A 
ATOM     18  C22 FVG d   1      31.677  31.249  19.525  0.00  0.00    -0.022 A 
ATOM     19  H15 FVG d   1      31.465  29.154  19.962  0.00  0.00     0.085 H 
ATOM     20  C24 FVG d   1      32.332  32.426  19.908  0.00  0.00     0.128 A 
ATOM     21  C1  FVG d   1      33.212  32.484  20.967  0.00  0.00    -0.022 A 
ATOM     22  F   FVG d   1      32.089  33.520  19.202  0.00  0.00    -0.205 F 
ATOM     23  C2  FVG d   1      33.474  31.325  21.671  0.00  0.00    -0.067 A 
ATOM     24  H29 FVG d   1      34.172  31.337  22.501  0.00  0.00     0.085 H 
BRANCH  18  25
ATOM     25  C23 FVG d   1      30.701  31.287  18.396  0.00  0.00    -0.048 C 
ATOM     26  H30 FVG d   1      30.287  30.281  18.235  0.00  0.00     0.033 H 
ATOM     27  H31 FVG d   1      31.211  31.624  17.482  0.00  0.00     0.033 H 
ATOM     28  H32 FVG d   1      29.886  31.985  18.639  0.00  0.00     0.033 H 
ENDBRANCH  18  25
BRANCH  21  29
ATOM     29  C   FVG d   1      33.852  33.778  21.346  0.00  0.00    -0.048 C 
ATOM     30  H16 FVG d   1      34.516  33.620  22.208  0.00  0.00     0.033 H 
ATOM     31  H17 FVG d   1      33.073  34.508  21.612  0.00  0.00     0.033 H 
ATOM     32  H18 FVG d   1      34.438  34.160  20.497  0.00  0.00     0.033 H 
ENDBRANCH  21  29
ENDBRANCH  13  16
ENDBRANCH   7  13
BRANCH   2  33
ATOM     33  N4  FVG d   1      35.737  27.650  21.259  0.00  0.00    -0.212 N 
ATOM     34  C17 FVG d   1      36.688  26.525  21.189  0.00  0.00     0.034 C 
ATOM     35  C18 FVG d   1      36.371  25.708  19.920  0.00  0.00     0.097 C 
ATOM     36  H11 FVG d   1      37.717  26.910  21.137  0.00  0.00     0.067 H 
ATOM     37  H12 FVG d   1      36.579  25.888  22.079  0.00  0.00     0.067 H 
ATOM     38  N5  FVG d   1      36.464  26.572  18.727  0.00  0.00    -0.072 N 
ATOM     39  H25 FVG d   1      35.353  25.299  19.995  0.00  0.00     0.078 H 
ATOM     40  H26 FVG d   1      37.092  24.882  19.829  0.00  0.00     0.078 H 
ATOM     41  C19 FVG d   1      35.501  27.679  18.798  0.00  0.00     0.097 C 
ATOM     42  H33 FVG d   1      36.271  26.020  17.905  0.00  0.00     0.277 HD
ATOM     43  H34 FVG d   1      37.396  26.950  18.667  0.00  0.00     0.277 HD
ATOM     44  C20 FVG d   1      35.745  28.499  20.076  0.00  0.00     0.034 C 
ATOM     45  H27 FVG d   1      35.625  28.328  17.918  0.00  0.00     0.078 H 
ATOM     46  H28 FVG d   1      34.479  27.273  18.814  0.00  0.00     0.078 H 
ATOM     47  H13 FVG d   1      34.953  29.256  20.173  0.00  0.00     0.067 H 
ATOM     48  H14 FVG d   1      36.722  28.999  20.000  0.00  0.00     0.067 H 
ENDBRANCH   2  33
BRANCH   4  49
ATOM     49  N2  FVG d   1      37.276  28.375  26.388  0.00  0.00    -0.372 N 
ATOM     50  C15 FVG d   1      38.516  28.705  25.550  0.00  0.00     0.035 C 
ATOM     51  C14 FVG d   1      39.517  29.270  26.572  0.00  0.00    -0.043 C 
ATOM     52  H10 FVG d   1      38.313  29.407  24.728  0.00  0.00     0.075 H 
ATOM     53  C13 FVG d   1      39.136  28.587  27.883  0.00  0.00    -0.048 C 
ATOM     54  H21 FVG d   1      40.549  29.020  26.287  0.00  0.00     0.036 H 
ATOM     55  H22 FVG d   1      39.414  30.362  26.656  0.00  0.00     0.036 H 
ATOM     56  C12 FVG d   1      37.592  28.575  27.852  0.00  0.00    -0.004 C 
ATOM     57  H8  FVG d   1      39.536  27.563  27.923  0.00  0.00     0.035 H 
ATOM     58  H9  FVG d   1      39.507  29.159  28.746  0.00  0.00     0.035 H 
ATOM     59  H19 FVG d   1      37.183  29.529  28.217  0.00  0.00     0.064 H 
ATOM     60  H20 FVG d   1      37.192  27.749  28.458  0.00  0.00     0.064 H 
BRANCH  50  61
ATOM     61  C16 FVG d   1      39.031  27.332  25.039  0.00  0.00     0.098 C 
ATOM     62  H23 FVG d   1      39.381  27.455  24.004  0.00  0.00     0.078 H 
ATOM     63  H24 FVG d   1      39.871  27.017  25.675  0.00  0.00     0.078 H 
BRANCH  61  64
ATOM     64  N3  FVG d   1      37.990  26.257  25.062  0.00  0.00    -0.077 N 
ATOM     65  H1  FVG d   1      38.388  25.396  24.720  0.00  0.00     0.274 HD
ATOM     66  H2  FVG d   1      37.216  26.526  24.475  0.00  0.00     0.274 HD
ATOM     67  H3  FVG d   1      37.665  26.124  26.007  0.00  0.00     0.274 HD
ENDBRANCH  61  64
ENDBRANCH  50  61
ENDBRANCH   4  49
TORSDOF 8
