REMARK  6 active torsions:
REMARK  status: ('A' for Active; 'I' for Inactive)
REMARK    1  A    between atoms: N1_1  and  C5_4 
REMARK    2  A    between atoms: C5_4  and  C4_3 
REMARK    3  A    between atoms: C6_5  and  N2_25 
REMARK    4  A    between atoms: C12_19  and  C13_9 
REMARK    5  A    between atoms: C23_32  and  C24_15 
REMARK    6  A    between atoms: C2_28  and  C1_29 
ROOT
ATOM      1  N1  FVD d   1      34.178  28.684  22.826  0.00  0.00    -0.175 N 
ATOM      2  C6  FVD d   1      35.393  28.088  22.586  0.00  0.00     0.706 A 
ATOM      3  C20 FVD d   1      33.193  29.576  24.944  0.00  0.00    -0.033 A 
ATOM      4  C21 FVD d   1      34.161  28.999  24.154  0.00  0.00     0.084 A 
ATOM      5  C12 FVD d   1      35.687  28.813  26.001  0.00  0.00     0.003 A 
ATOM      6  C18 FVD d   1      34.718  29.371  26.802  0.00  0.00    -0.049 A 
ATOM      7  C19 FVD d   1      33.495  29.759  26.278  0.00  0.00     0.037 A 
ATOM      8 CL1  FVD d   1      32.311  30.474  27.339  0.00  0.00    -0.084 Cl
ATOM      9  C11 FVD d   1      35.392  28.615  24.654  0.00  0.00     0.114 A 
ATOM     10  N4  FVD d   1      36.148  28.065  23.641  0.00  0.00    -0.061 NA
ATOM     11  H15 FVD d   1      32.234  29.874  24.536  0.00  0.00     0.089 H 
ATOM     12  H25 FVD d   1      34.914  29.509  27.859  0.00  0.00     0.087 H 
ENDROOT
BRANCH   1  13
ATOM     13  C5  FVD d   1      33.017  28.792  21.966  0.00  0.00     0.041 C 
ATOM     14  H3  FVD d   1      32.130  28.604  22.589  0.00  0.00     0.073 H 
ATOM     15  H4  FVD d   1      33.102  28.005  21.202  0.00  0.00     0.073 H 
BRANCH  13  16
ATOM     16  C4  FVD d   1      32.788  30.090  21.245  0.00  0.00    -0.038 A 
ATOM     17  C22 FVD d   1      33.420  31.261  21.617  0.00  0.00    -0.067 A 
ATOM     18  C23 FVD d   1      33.160  32.452  20.961  0.00  0.00    -0.022 A 
ATOM     19  H16 FVD d   1      34.131  31.247  22.435  0.00  0.00     0.085 H 
ATOM     20  C25 FVD d   1      32.269  32.413  19.909  0.00  0.00     0.128 A 
ATOM     21  C2  FVD d   1      31.609  31.273  19.517  0.00  0.00    -0.022 A 
ATOM     22  F1  FVD d   1      32.014  33.539  19.241  0.00  0.00    -0.205 F 
ATOM     23  C3  FVD d   1      31.878  30.116  20.210  0.00  0.00    -0.067 A 
ATOM     24  H28 FVD d   1      31.362  29.203  19.936  0.00  0.00     0.085 H 
BRANCH  18  25
ATOM     25  C24 FVD d   1      33.874  33.706  21.351  0.00  0.00    -0.048 C 
ATOM     26  H17 FVD d   1      34.529  33.502  22.211  0.00  0.00     0.033 H 
ATOM     27  H18 FVD d   1      33.139  34.477  21.625  0.00  0.00     0.033 H 
ATOM     28  H19 FVD d   1      34.480  34.062  20.504  0.00  0.00     0.033 H 
ENDBRANCH  18  25
BRANCH  21  29
ATOM     29  C1  FVD d   1      30.630  31.271  18.384  0.00  0.00    -0.048 C 
ATOM     30  H29 FVD d   1      30.227  30.256  18.249  0.00  0.00     0.033 H 
ATOM     31  H30 FVD d   1      31.137  31.590  17.461  0.00  0.00     0.033 H 
ATOM     32  H31 FVD d   1      29.807  31.965  18.609  0.00  0.00     0.033 H 
ENDBRANCH  21  29
ENDBRANCH  13  16
ENDBRANCH   1  13
BRANCH   2  33
ATOM     33  N2  FVD d   1      35.773  27.642  21.354  0.00  0.00    -0.212 N 
ATOM     34  C7  FVD d   1      36.632  26.459  21.248  0.00  0.00     0.034 C 
ATOM     35  C8  FVD d   1      36.404  25.706  19.965  0.00  0.00     0.097 C 
ATOM     36  H5  FVD d   1      37.683  26.780  21.289  0.00  0.00     0.067 H 
ATOM     37  H6  FVD d   1      36.419  25.790  22.095  0.00  0.00     0.067 H 
ATOM     38  N3  FVD d   1      36.476  26.612  18.834  0.00  0.00    -0.072 N 
ATOM     39  H7  FVD d   1      37.175  24.929  19.858  0.00  0.00     0.078 H 
ATOM     40  H8  FVD d   1      35.410  25.236  19.991  0.00  0.00     0.078 H 
ATOM     41  C9  FVD d   1      35.379  27.560  18.910  0.00  0.00     0.097 C 
ATOM     42  H1  FVD d   1      36.408  26.087  17.977  0.00  0.00     0.277 HD
ATOM     43  H2  FVD d   1      37.353  27.109  18.855  0.00  0.00     0.277 HD
ATOM     44  C10 FVD d   1      35.490  28.422  20.147  0.00  0.00     0.034 C 
ATOM     45  H26 FVD d   1      34.428  27.008  18.941  0.00  0.00     0.078 H 
ATOM     46  H27 FVD d   1      35.399  28.205  18.019  0.00  0.00     0.078 H 
ATOM     47  H9  FVD d   1      36.303  29.148  19.998  0.00  0.00     0.067 H 
ATOM     48  H10 FVD d   1      34.540  28.958  20.289  0.00  0.00     0.067 H 
ENDBRANCH   2  33
BRANCH   5  49
ATOM     49  C13 FVD d   1      36.965  28.377  26.604  0.00  0.00    -0.046 C 
ATOM     50  C17 FVD d   1      36.943  28.028  28.049  0.00  0.00    -0.018 C 
ATOM     51  C16 FVD d   1      38.233  27.466  28.599  0.00  0.00     0.086 C 
ATOM     52  H13 FVD d   1      36.153  27.279  28.205  0.00  0.00     0.042 H 
ATOM     53  H14 FVD d   1      36.702  28.940  28.615  0.00  0.00     0.042 H 
ATOM     54  N5  FVD d   1      39.356  28.165  27.975  0.00  0.00    -0.072 N 
ATOM     55  H23 FVD d   1      38.294  26.391  28.372  0.00  0.00     0.076 H 
ATOM     56  H24 FVD d   1      38.266  27.613  29.689  0.00  0.00     0.076 H 
ATOM     57  C15 FVD d   1      39.393  28.025  26.526  0.00  0.00     0.097 C 
ATOM     58  H21 FVD d   1      39.286  29.145  28.199  0.00  0.00     0.277 HD
ATOM     59  H22 FVD d   1      40.213  27.794  28.354  0.00  0.00     0.277 HD
ATOM     60  C14 FVD d   1      38.071  28.299  25.905  0.00  0.00    -0.072 C 
ATOM     61  H11 FVD d   1      40.130  28.734  26.120  0.00  0.00     0.081 H 
ATOM     62  H12 FVD d   1      39.696  26.997  26.276  0.00  0.00     0.081 H 
ATOM     63  H20 FVD d   1      38.019  28.441  24.826  0.00  0.00     0.080 H 
ENDBRANCH   5  49
TORSDOF 6
