REMARK  6 active torsions:
REMARK  status: ('A' for Active; 'I' for Inactive)
REMARK    1  A    between atoms: C3_21  and  C4_3 
REMARK    2  A    between atoms: C4_3  and  N_23 
REMARK    3  A    between atoms: C5_4  and  N2_31 
REMARK    4  A    between atoms: C7_6  and  C12_27 
REMARK    5  A    between atoms: C23_20  and  C24_15 
REMARK    6  A    between atoms: C1_18  and  C_19 
ROOT
ATOM      1  N1  FV7 d   1      36.460  29.479  23.198  0.00  0.00    -0.217 NA
ATOM      2  C5  FV7 d   1      35.538  28.986  22.339  0.00  0.00     0.185 A 
ATOM      3  C6  FV7 d   1      35.729  29.983  24.293  0.00  0.00     0.098 A 
ATOM      4  C7  FV7 d   1      36.172  30.637  25.457  0.00  0.00     0.009 A 
ATOM      5  C8  FV7 d   1      35.205  30.980  26.390  0.00  0.00    -0.049 A 
ATOM      6  C10 FV7 d   1      33.387  30.101  25.006  0.00  0.00    -0.034 A 
ATOM      7  N   FV7 d   1      34.246  29.166  22.807  0.00  0.00    -0.315 N 
ATOM      8  C11 FV7 d   1      34.359  29.759  24.078  0.00  0.00     0.068 A 
ATOM      9  C9  FV7 d   1      33.854  30.686  26.147  0.00  0.00     0.037 A 
ATOM     10 CL   FV7 d   1      32.667  31.026  27.387  0.00  0.00    -0.084 Cl
ATOM     11  H5  FV7 d   1      35.493  31.477  27.309  0.00  0.00     0.087 H 
ATOM     12  H6  FV7 d   1      32.332  29.917  24.837  0.00  0.00     0.089 H 
ENDROOT
BRANCH   7  13
ATOM     13  C4  FV7 d   1      32.986  29.048  22.110  0.00  0.00     0.026 C 
ATOM     14  H3  FV7 d   1      33.000  28.154  21.469  0.00  0.00     0.072 H 
ATOM     15  H4  FV7 d   1      32.166  28.964  22.839  0.00  0.00     0.072 H 
BRANCH  13  16
ATOM     16  C3  FV7 d   1      32.781  30.305  21.242  0.00  0.00    -0.039 A 
ATOM     17  C22 FV7 d   1      33.450  31.507  21.523  0.00  0.00    -0.067 A 
ATOM     18  C23 FV7 d   1      33.215  32.661  20.770  0.00  0.00    -0.022 A 
ATOM     19  H13 FV7 d   1      34.162  31.541  22.339  0.00  0.00     0.085 H 
ATOM     20  C25 FV7 d   1      32.307  32.600  19.729  0.00  0.00     0.128 A 
ATOM     21  F   FV7 d   1      32.102  33.676  18.982  0.00  0.00    -0.205 F 
ATOM     22  C1  FV7 d   1      31.612  31.409  19.428  0.00  0.00    -0.022 A 
ATOM     23  C2  FV7 d   1      31.869  30.261  20.182  0.00  0.00    -0.067 A 
ATOM     24  H20 FV7 d   1      31.360  29.334  19.945  0.00  0.00     0.085 H 
BRANCH  18  25
ATOM     25  C24 FV7 d   1      33.930  33.928  21.084  0.00  0.00    -0.048 C 
ATOM     26  H14 FV7 d   1      34.602  33.767  21.940  0.00  0.00     0.033 H 
ATOM     27  H15 FV7 d   1      33.198  34.710  21.334  0.00  0.00     0.033 H 
ATOM     28  H16 FV7 d   1      34.519  34.243  20.210  0.00  0.00     0.033 H 
ENDBRANCH  18  25
BRANCH  22  29
ATOM     29  C   FV7 d   1      30.601  31.445  18.344  0.00  0.00    -0.048 C 
ATOM     30  H17 FV7 d   1      30.150  30.448  18.230  0.00  0.00     0.033 H 
ATOM     31  H18 FV7 d   1      31.085  31.738  17.401  0.00  0.00     0.033 H 
ATOM     32  H19 FV7 d   1      29.818  32.175  18.597  0.00  0.00     0.033 H 
ENDBRANCH  22  29
ENDBRANCH  13  16
ENDBRANCH   7  13
BRANCH   2  33
ATOM     33  N2  FV7 d   1      35.912  28.358  21.136  0.00  0.00    -0.250 NA
ATOM     34  C21 FV7 d   1      37.276  28.498  20.637  0.00  0.00     0.009 C 
ATOM     35  C20 FV7 d   1      37.301  28.163  19.141  0.00  0.00     0.093 C 
ATOM     36  H11 FV7 d   1      37.619  29.532  20.788  0.00  0.00     0.059 H 
ATOM     37  H12 FV7 d   1      37.939  27.808  21.180  0.00  0.00     0.059 H 
ATOM     38  N3  FV7 d   1      36.848  26.774  18.963  0.00  0.00    -0.073 N 
ATOM     39  H9  FV7 d   1      36.630  28.844  18.598  0.00  0.00     0.077 H 
ATOM     40  H10 FV7 d   1      38.325  28.271  18.754  0.00  0.00     0.077 H 
ATOM     41  C19 FV7 d   1      35.511  26.501  19.540  0.00  0.00     0.093 C 
ATOM     42  H1  FV7 d   1      37.516  26.163  19.406  0.00  0.00     0.277 HD
ATOM     43  H2  FV7 d   1      36.814  26.575  17.975  0.00  0.00     0.277 HD
ATOM     44  C18 FV7 d   1      35.525  26.923  21.031  0.00  0.00     0.009 C 
ATOM     45  H23 FV7 d   1      35.284  25.428  19.460  0.00  0.00     0.077 H 
ATOM     46  H24 FV7 d   1      34.748  27.078  18.998  0.00  0.00     0.077 H 
ATOM     47  H25 FV7 d   1      34.523  26.781  21.462  0.00  0.00     0.059 H 
ATOM     48  H26 FV7 d   1      36.251  26.306  21.580  0.00  0.00     0.059 H 
ENDBRANCH   2  33
BRANCH   4  49
ATOM     49  C12 FV7 d   1      37.581  30.993  25.579  0.00  0.00    -0.002 A 
ATOM     50  C13 FV7 d   1      38.418  30.308  26.456  0.00  0.00    -0.070 A 
ATOM     51  C14 FV7 d   1      39.768  30.628  26.522  0.00  0.00    -0.082 A 
ATOM     52  H7  FV7 d   1      38.016  29.524  27.088  0.00  0.00     0.084 H 
ATOM     53  C15 FV7 d   1      40.313  31.627  25.727  0.00  0.00    -0.081 A 
ATOM     54  H22 FV7 d   1      40.409  30.087  27.208  0.00  0.00     0.083 H 
ATOM     55  C16 FV7 d   1      39.500  32.330  24.860  0.00  0.00    -0.061 A 
ATOM     56  H8  FV7 d   1      41.371  31.854  25.787  0.00  0.00     0.083 H 
ATOM     57  C17 FV7 d   1      38.154  32.002  24.808  0.00  0.00     0.045 A 
ATOM     58  H21 FV7 d   1      39.904  33.119  24.236  0.00  0.00     0.086 H 
ATOM     59 CL1  FV7 d   1      37.234  32.974  23.722  0.00  0.00    -0.083 Cl
ENDBRANCH   4  49
TORSDOF 6
