REMARK  5 active torsions:
REMARK  status: ('A' for Active; 'I' for Inactive)
REMARK    1  A    between atoms: C4_3  and  N_12 
REMARK    2  A    between atoms: C3_22  and  C4_3 
REMARK    3  A    between atoms: C5_4  and  N2_25 
REMARK    4  A    between atoms: C17_11  and  C18_19 
REMARK    5  A    between atoms: C1_14  and  C_13 
ROOT
ATOM      1  N1  FV4 d   1      36.386  28.729  23.623  0.00  0.00    -0.218 NA
ATOM      2  C5  FV4 d   1      35.529  28.549  22.595  0.00  0.00     0.185 A 
ATOM      3  C6  FV4 d   1      35.578  29.254  24.664  0.00  0.00     0.087 A 
ATOM      4  C7  FV4 d   1      35.931  29.618  25.970  0.00  0.00    -0.051 A 
ATOM      5  C8  FV4 d   1      34.931  30.088  26.795  0.00  0.00    -0.060 A 
ATOM      6  C10 FV4 d   1      33.214  29.860  25.059  0.00  0.00    -0.034 A 
ATOM      7  N   FV4 d   1      34.211  28.937  22.903  0.00  0.00    -0.315 N 
ATOM      8  C11 FV4 d   1      34.232  29.382  24.228  0.00  0.00     0.067 A 
ATOM      9  C9  FV4 d   1      33.614  30.188  26.321  0.00  0.00     0.036 A 
ATOM     10 CL   FV4 d   1      32.391  30.742  27.434  0.00  0.00    -0.084 Cl
ATOM     11  H5  FV4 d   1      36.954  29.533  26.320  0.00  0.00     0.087 H 
ATOM     12  H6  FV4 d   1      35.163  30.381  27.813  0.00  0.00     0.086 H 
ATOM     13  H7  FV4 d   1      32.187  29.962  24.726  0.00  0.00     0.089 H 
ENDROOT
BRANCH   7  14
ATOM     14  C4  FV4 d   1      33.044  28.905  22.052  0.00  0.00     0.026 C 
ATOM     15  H3  FV4 d   1      32.158  28.718  22.677  0.00  0.00     0.072 H 
ATOM     16  H4  FV4 d   1      33.160  28.087  21.326  0.00  0.00     0.072 H 
BRANCH  14  17
ATOM     17  C3  FV4 d   1      32.837  30.201  21.292  0.00  0.00    -0.039 A 
ATOM     18  C16 FV4 d   1      31.934  30.160  20.238  0.00  0.00    -0.067 A 
ATOM     19  C17 FV4 d   1      31.657  31.314  19.518  0.00  0.00    -0.022 A 
ATOM     20  H19 FV4 d   1      31.446  29.228  19.978  0.00  0.00     0.085 H 
ATOM     21  C19 FV4 d   1      32.313  32.502  19.867  0.00  0.00     0.128 A 
ATOM     22  C1  FV4 d   1      33.217  32.569  20.927  0.00  0.00    -0.022 A 
ATOM     23  F   FV4 d   1      32.058  33.581  19.132  0.00  0.00    -0.205 F 
ATOM     24  C2  FV4 d   1      33.486  31.400  21.643  0.00  0.00    -0.067 A 
ATOM     25  H23 FV4 d   1      34.192  31.416  22.466  0.00  0.00     0.085 H 
BRANCH  19  26
ATOM     26  C18 FV4 d   1      30.656  31.332  18.413  0.00  0.00    -0.048 C 
ATOM     27  H20 FV4 d   1      30.243  30.322  18.276  0.00  0.00     0.033 H 
ATOM     28  H21 FV4 d   1      31.143  31.659  17.482  0.00  0.00     0.033 H 
ATOM     29  H22 FV4 d   1      29.843  32.029  18.666  0.00  0.00     0.033 H 
ENDBRANCH  19  26
BRANCH  22  30
ATOM     30  C   FV4 d   1      33.871  33.878  21.274  0.00  0.00    -0.048 C 
ATOM     31  H12 FV4 d   1      34.546  33.735  22.130  0.00  0.00     0.033 H 
ATOM     32  H13 FV4 d   1      33.098  34.616  21.536  0.00  0.00     0.033 H 
ATOM     33  H14 FV4 d   1      34.447  34.241  20.410  0.00  0.00     0.033 H 
ENDBRANCH  22  30
ENDBRANCH  14  17
ENDBRANCH   7  14
BRANCH   2  34
ATOM     34  N2  FV4 d   1      35.746  27.983  21.311  0.00  0.00    -0.250 NA
ATOM     35  C15 FV4 d   1      36.034  26.544  21.337  0.00  0.00     0.009 C 
ATOM     36  C14 FV4 d   1      35.844  25.919  19.949  0.00  0.00     0.093 C 
ATOM     37  H10 FV4 d   1      37.074  26.391  21.661  0.00  0.00     0.059 H 
ATOM     38  H11 FV4 d   1      35.353  26.054  22.048  0.00  0.00     0.059 H 
ATOM     39  N3  FV4 d   1      36.736  26.656  19.030  0.00  0.00    -0.073 N 
ATOM     40  H17 FV4 d   1      36.118  24.854  19.971  0.00  0.00     0.077 H 
ATOM     41  H18 FV4 d   1      34.797  26.022  19.626  0.00  0.00     0.077 H 
ATOM     42  C13 FV4 d   1      36.495  28.120  19.038  0.00  0.00     0.093 C 
ATOM     43  H1  FV4 d   1      37.691  26.486  19.304  0.00  0.00     0.277 HD
ATOM     44  H2  FV4 d   1      36.589  26.311  18.094  0.00  0.00     0.277 HD
ATOM     45  C12 FV4 d   1      36.722  28.646  20.465  0.00  0.00     0.009 C 
ATOM     46  H8  FV4 d   1      35.461  28.327  18.727  0.00  0.00     0.077 H 
ATOM     47  H9  FV4 d   1      37.192  28.614  18.346  0.00  0.00     0.077 H 
ATOM     48  H15 FV4 d   1      36.574  29.735  20.496  0.00  0.00     0.059 H 
ATOM     49  H16 FV4 d   1      37.741  28.405  20.801  0.00  0.00     0.059 H 
ENDBRANCH   2  34
TORSDOF 5
