REMARK WARNING: 32 MAX_TORS EXCEEDED!!!
REMARK  38 active torsions:
REMARK  status: ('A' for Active; 'I' for Inactive)
REMARK    1  A    between atoms: N_1  and  CA_2 
REMARK    2  A    between atoms: CA_2  and  C_3 
REMARK    3  A    between atoms: CA_2  and  CB_5 
REMARK       I    between atoms: C_3  and  N_6 
REMARK    4  A    between atoms: N_6  and  CA_7 
REMARK    5  A    between atoms: CA_7  and  C_8 
REMARK    6  A    between atoms: CA_7  and  CB_10 
REMARK       I    between atoms: C_8  and  N_11 
REMARK    7  A    between atoms: N_11  and  CA_12 
REMARK    8  A    between atoms: CA_12  and  C_13 
REMARK       I    between atoms: C_13  and  N_15 
REMARK    9  A    between atoms: N_15  and  CA_16 
REMARK   10  A    between atoms: CA_16  and  C_17 
REMARK   11  A    between atoms: CA_16  and  CB_19 
REMARK       I    between atoms: C_17  and  N_23 
REMARK   12  A    between atoms: CB_19  and  CG1_20 
REMARK   13  A    between atoms: CB_19  and  CG2_21 
REMARK   14  A    between atoms: CG1_20  and  CD1_22 
REMARK   15  A    between atoms: N_23  and  CA_24 
REMARK   16  A    between atoms: CA_24  and  C_25 
REMARK       I    between atoms: C_25  and  N_27 
REMARK   17  A    between atoms: N_27  and  CA_28 
REMARK   18  A    between atoms: CA_28  and  C_29 
REMARK   19  A    between atoms: CA_28  and  CB_31 
REMARK       I    between atoms: C_29  and  N_35 
REMARK   20  A    between atoms: CB_31  and  CG1_32 
REMARK   21  A    between atoms: CB_31  and  CG2_33 
REMARK   22  A    between atoms: CG1_32  and  CD1_34 
REMARK   23  A    between atoms: N_35  and  CA_36 
REMARK   24  A    between atoms: CA_36  and  C_37 
REMARK   25  A    between atoms: CA_36  and  CB_39 
REMARK       I    between atoms: C_37  and  N_43 
REMARK   26  A    between atoms: CB_39  and  CG_40 
REMARK   27  A    between atoms: CG_40  and  CD1_41 
REMARK   28  A    between atoms: CG_40  and  CD2_42 
REMARK   29  A    between atoms: N_43  and  CA_44 
REMARK   30  A    between atoms: CA_44  and  C_45 
REMARK   31  A    between atoms: CA_44  and  CB_47 
REMARK       I    between atoms: C_45  and  N_50 
REMARK   32  A    between atoms: CB_47  and  OG1_48 
REMARK   33  A    between atoms: CB_47  and  CG2_49 
REMARK   34  A    between atoms: N_50  and  CA_51 
REMARK   35  A    between atoms: CA_51  and  C_52 
REMARK   36  A    between atoms: CA_51  and  CB_54 
REMARK   37  A    between atoms: CB_54  and  CG1_55 
REMARK   38  A    between atoms: CB_54  and  CG2_56 
ROOT
ATOM      1  CA  ALA d   1     -34.011 -15.528   1.986  0.00  0.00     0.092 C 
ATOM      2  H31 ALA d   1     -34.598 -14.647   1.687  0.00  0.00     0.088 H 
ENDROOT
BRANCH   1   3
ATOM      3  N   ALA d   1     -32.591 -15.204   1.904  0.00  0.00    -0.346 N 
ATOM      4  C   ALA d   1     -32.139 -13.970   1.707  0.00  0.00     0.236 C 
ATOM      5  O   ALA d   1     -32.895 -13.013   1.516  0.00  0.00    -0.272 OA
ATOM      6  H30 ALA d   1     -31.927 -15.945   2.001  0.00  0.00     0.163 HD
BRANCH   4   7
ATOM      7  CA  ALA d   1     -30.646 -13.738   1.712  0.00  0.00     0.069 C 
ATOM      8  H28 ALA d   1     -30.402 -13.089   0.858  0.00  0.00     0.078 H 
ATOM      9  H29 ALA d   1     -30.387 -13.224   2.650  0.00  0.00     0.078 H 
BRANCH   7  10
ATOM     10  N   ALA d   1     -29.827 -14.928   1.615  0.00  0.00    -0.351 N 
ATOM     11  C   ALA d   1     -29.732 -15.599   0.469  0.00  0.00     0.241 C 
ATOM     12  O   ALA d   1     -30.367 -15.290  -0.540  0.00  0.00    -0.271 OA
ATOM     13  H27 ALA d   1     -29.326 -15.250   2.419  0.00  0.00     0.163 HD
BRANCH  11  14
ATOM     14  CA  ALA d   1     -28.777 -16.786   0.480  0.00  0.00     0.092 C 
ATOM     15  H17 ALA d   1     -28.973 -17.395   1.375  0.00  0.00     0.088 H 
BRANCH  14  16
ATOM     16  N   ALA d   1     -29.044 -17.598  -0.701  0.00  0.00    -0.346 N 
ATOM     17  C   ALA d   1     -29.000 -18.932  -0.706  0.00  0.00     0.236 C 
ATOM     18  O   ALA d   1     -28.682 -19.597   0.284  0.00  0.00    -0.272 OA
ATOM     19  H16 ALA d   1     -29.273 -17.130  -1.554  0.00  0.00     0.163 HD
BRANCH  17  20
ATOM     20  CA  ALA d   1     -29.356 -19.607  -2.013  0.00  0.00     0.069 C 
ATOM     21  H14 ALA d   1     -28.475 -20.154  -2.380  0.00  0.00     0.078 H 
ATOM     22  H15 ALA d   1     -30.178 -20.315  -1.833  0.00  0.00     0.078 H 
BRANCH  20  23
ATOM     23  N   ALA d   1     -29.772 -18.658  -3.027  0.00  0.00    -0.351 N 
ATOM     24  C   ALA d   1     -31.044 -18.546  -3.405  0.00  0.00     0.240 C 
ATOM     25  O   ALA d   1     -31.948 -19.253  -2.949  0.00  0.00    -0.271 OA
ATOM     26  H13 ALA d   1     -29.084 -18.071  -3.455  0.00  0.00     0.163 HD
BRANCH  24  27
ATOM     27  CA  ALA d   1     -31.334 -17.475  -4.447  0.00  0.00     0.086 C 
ATOM     28  H9  ALA d   1     -30.389 -17.200  -4.938  0.00  0.00     0.086 H 
BRANCH  27  29
ATOM     29  N   ALA d   1     -32.251 -17.973  -5.461  0.00  0.00    -0.346 N 
ATOM     30  C   ALA d   1     -31.846 -18.802  -6.419  0.00  0.00     0.248 C 
ATOM     31  O   ALA d   1     -30.701 -19.251  -6.478  0.00  0.00    -0.271 OA
ATOM     32  H8  ALA d   1     -33.208 -17.685  -5.437  0.00  0.00     0.163 HD
BRANCH  30  33
ATOM     33  CA  ALA d   1     -32.892 -19.182  -7.465  0.00  0.00     0.172 C 
ATOM     34  H4  ALA d   1     -33.334 -18.256  -7.861  0.00  0.00     0.098 H 
BRANCH  33  35
ATOM     35  N   ALA d   1     -32.286 -19.909  -8.575  0.00  0.00    -0.067 N 
ATOM     36  H1  ALA d   1     -32.997 -20.147  -9.249  0.00  0.00     0.275 HD
ATOM     37  H2  ALA d   1     -31.855 -20.752  -8.229  0.00  0.00     0.275 HD
ATOM     38  H3  ALA d   1     -31.587 -19.330  -9.014  0.00  0.00     0.275 HD
ENDBRANCH  33  35
BRANCH  33  39
ATOM     39  CB  ALA d   1     -34.001 -20.010  -6.834  0.00  0.00    -0.042 C 
ATOM     40  H5  ALA d   1     -34.448 -19.449  -6.000  0.00  0.00     0.030 H 
ATOM     41  H6  ALA d   1     -33.584 -20.956  -6.458  0.00  0.00     0.030 H 
ATOM     42  H7  ALA d   1     -34.773 -20.223  -7.588  0.00  0.00     0.030 H 
ENDBRANCH  33  39
ENDBRANCH  30  33
ENDBRANCH  27  29
BRANCH  27  43
ATOM     43  CB  ALA d   1     -31.913 -16.232  -3.770  0.00  0.00    -0.049 C 
ATOM     44  H10 ALA d   1     -31.209 -15.868  -3.007  0.00  0.00     0.030 H 
ATOM     45  H11 ALA d   1     -32.871 -16.487  -3.293  0.00  0.00     0.030 H 
ATOM     46  H12 ALA d   1     -32.076 -15.447  -4.523  0.00  0.00     0.030 H 
ENDBRANCH  27  43
ENDBRANCH  24  27
ENDBRANCH  20  23
ENDBRANCH  17  20
ENDBRANCH  14  16
BRANCH  14  47
ATOM     47  CB  ALA d   1     -27.313 -16.294   0.545  0.00  0.00    -0.030 C 
ATOM     48  H18 ALA d   1     -27.244 -15.533   1.336  0.00  0.00     0.043 H 
BRANCH  47  49
ATOM     49  CG1 ALA d   1     -26.908 -15.640  -0.778  0.00  0.00    -0.063 C 
ATOM     50  H19 ALA d   1     -27.597 -14.807  -0.979  0.00  0.00     0.033 H 
ATOM     51  H20 ALA d   1     -26.997 -16.390  -1.578  0.00  0.00     0.033 H 
BRANCH  49  52
ATOM     52  CD1 ALA d   1     -25.494 -15.102  -0.782  0.00  0.00    -0.076 C 
ATOM     53  H24 ALA d   1     -25.277 -14.649  -1.761  0.00  0.00     0.027 H 
ATOM     54  H25 ALA d   1     -24.788 -15.924  -0.594  0.00  0.00     0.027 H 
ATOM     55  H26 ALA d   1     -25.389 -14.341   0.005  0.00  0.00     0.027 H 
ENDBRANCH  49  52
ENDBRANCH  47  49
BRANCH  47  56
ATOM     56  CG2 ALA d   1     -26.368 -17.432   0.907  0.00  0.00    -0.071 C 
ATOM     57  H21 ALA d   1     -26.684 -17.881   1.860  0.00  0.00     0.028 H 
ATOM     58  H22 ALA d   1     -25.345 -17.041   1.007  0.00  0.00     0.028 H 
ATOM     59  H23 ALA d   1     -26.393 -18.195   0.116  0.00  0.00     0.028 H 
ENDBRANCH  47  56
ENDBRANCH  14  47
ENDBRANCH  11  14
ENDBRANCH   7  10
ENDBRANCH   4   7
ENDBRANCH   1   3
BRANCH   1  60
ATOM     60  C   ALA d   1     -34.304 -15.850   3.447  0.00  0.00     0.241 C 
ATOM     61  O   ALA d   1     -34.096 -16.981   3.903  0.00  0.00    -0.271 OA
ATOM     62  N   ALA d   1     -34.790 -14.857   4.187  0.00  0.00    -0.346 N 
ATOM     63  H41 ALA d   1     -35.017 -13.993   3.737  0.00  0.00     0.163 HD
BRANCH  62  64
ATOM     64  CA  ALA d   1     -35.006 -14.971   5.621  0.00  0.00     0.089 C 
ATOM     65  H42 ALA d   1     -34.755 -15.996   5.932  0.00  0.00     0.087 H 
BRANCH  64  66
ATOM     66  C   ALA d   1     -36.469 -14.704   5.953  0.00  0.00     0.241 C 
ATOM     67  O   ALA d   1     -37.155 -13.956   5.250  0.00  0.00    -0.271 OA
ATOM     68  N   ALA d   1     -36.942 -15.329   7.030  0.00  0.00    -0.344 N 
ATOM     69  H52 ALA d   1     -36.343 -15.942   7.546  0.00  0.00     0.163 HD
BRANCH  68  70
ATOM     70  CA  ALA d   1     -38.317 -15.134   7.468  0.00  0.00     0.113 C 
ATOM     71  H53 ALA d   1     -38.983 -15.322   6.613  0.00  0.00     0.091 H 
BRANCH  70  72
ATOM     72  C   ALA d   1     -38.536 -13.703   7.948  0.00  0.00     0.243 C 
ATOM     73  O   ALA d   1     -37.640 -13.064   8.506  0.00  0.00    -0.271 OA
ATOM     74  N   ALA d   1     -39.748 -13.203   7.725  0.00  0.00    -0.344 N 
ATOM     75  H59 ALA d   1     -40.441 -13.784   7.298  0.00  0.00     0.163 HD
BRANCH  74  76
ATOM     76  CA  ALA d   1     -40.097 -11.832   8.085  0.00  0.00     0.099 C 
ATOM     77  H60 ALA d   1     -39.257 -11.182   7.798  0.00  0.00     0.090 H 
BRANCH  76  78
ATOM     78  C   ALA d   1     -40.309 -11.695   9.589  0.00  0.00     0.197 C 
ATOM     79  O   ALA d   1     -40.462 -12.684  10.308  0.00  0.00    -0.646 OA
ATOM     80  OXT ALA d   1     -40.336 -10.585  10.121  0.00  0.00    -0.646 OA
ENDBRANCH  76  78
BRANCH  76  81
ATOM     81  CB  ALA d   1     -41.349 -11.359   7.321  0.00  0.00    -0.032 C 
ATOM     82  H61 ALA d   1     -41.502 -10.291   7.536  0.00  0.00     0.042 H 
BRANCH  81  83
ATOM     83  CG1 ALA d   1     -41.150 -11.518   5.822  0.00  0.00    -0.071 C 
ATOM     84  H62 ALA d   1     -42.052 -11.176   5.294  0.00  0.00     0.028 H 
ATOM     85  H63 ALA d   1     -40.967 -12.577   5.587  0.00  0.00     0.028 H 
ATOM     86  H64 ALA d   1     -40.287 -10.916   5.501  0.00  0.00     0.028 H 
ENDBRANCH  81  83
BRANCH  81  87
ATOM     87  CG2 ALA d   1     -42.581 -12.121   7.791  0.00  0.00    -0.071 C 
ATOM     88  H65 ALA d   1     -42.702 -11.989   8.876  0.00  0.00     0.028 H 
ATOM     89  H66 ALA d   1     -42.460 -13.190   7.562  0.00  0.00     0.028 H 
ATOM     90  H67 ALA d   1     -43.471 -11.734   7.274  0.00  0.00     0.028 H 
ENDBRANCH  81  87
ENDBRANCH  76  81
ENDBRANCH  74  76
ENDBRANCH  70  72
BRANCH  70  91
ATOM     91  CB  ALA d   1     -38.673 -16.115   8.588  0.00  0.00     0.060 C 
ATOM     92  H54 ALA d   1     -39.691 -15.897   8.942  0.00  0.00     0.086 H 
BRANCH  91  93
ATOM     93  OG1 ALA d   1     -37.753 -15.960   9.676  0.00  0.00    -0.393 OA
ATOM     94  H55 ALA d   1     -37.977 -16.570  10.368  0.00  0.00     0.210 HD
ENDBRANCH  91  93
BRANCH  91  95
ATOM     95  CG2 ALA d   1     -38.621 -17.551   8.083  0.00  0.00    -0.050 C 
ATOM     96  H56 ALA d   1     -38.880 -18.238   8.903  0.00  0.00     0.031 H 
ATOM     97  H57 ALA d   1     -37.606 -17.776   7.722  0.00  0.00     0.031 H 
ATOM     98  H58 ALA d   1     -39.339 -17.676   7.259  0.00  0.00     0.031 H 
ENDBRANCH  91  95
ENDBRANCH  70  91
ENDBRANCH  68  70
ENDBRANCH  64  66
BRANCH  64  99
ATOM     99  CB  ALA d   1     -34.103 -13.993   6.388  0.00  0.00    -0.035 C 
ATOM    100  H43 ALA d   1     -34.397 -12.975   6.093  0.00  0.00     0.037 H 
ATOM    101  H44 ALA d   1     -33.068 -14.183   6.069  0.00  0.00     0.037 H 
BRANCH  99 102
ATOM    102  CG  ALA d   1     -34.127 -14.051   7.916  0.00  0.00    -0.059 C 
ATOM    103  H45 ALA d   1     -35.165 -13.904   8.250  0.00  0.00     0.038 H 
BRANCH 102 104
ATOM    104  CD1 ALA d   1     -33.657 -15.409   8.411  0.00  0.00    -0.073 C 
ATOM    105  H46 ALA d   1     -33.683 -15.427   9.511  0.00  0.00     0.028 H 
ATOM    106  H47 ALA d   1     -32.629 -15.589   8.065  0.00  0.00     0.028 H 
ATOM    107  H48 ALA d   1     -34.320 -16.193   8.016  0.00  0.00     0.028 H 
ENDBRANCH 102 104
BRANCH 102 108
ATOM    108  CD2 ALA d   1     -33.278 -12.940   8.503  0.00  0.00    -0.073 C 
ATOM    109  H49 ALA d   1     -33.637 -11.969   8.131  0.00  0.00     0.028 H 
ATOM    110  H50 ALA d   1     -32.229 -13.083   8.204  0.00  0.00     0.028 H 
ATOM    111  H51 ALA d   1     -33.352 -12.962   9.600  0.00  0.00     0.028 H 
ENDBRANCH 102 108
ENDBRANCH  99 102
ENDBRANCH  64  99
ENDBRANCH  62  64
ENDBRANCH   1  60
BRANCH   1 112
ATOM    112  CB  ALA d   1     -34.393 -16.688   1.060  0.00  0.00    -0.030 C 
ATOM    113  H32 ALA d   1     -33.823 -17.579   1.361  0.00  0.00     0.043 H 
BRANCH 112 114
ATOM    114  CG1 ALA d   1     -34.040 -16.348  -0.389  0.00  0.00    -0.063 C 
ATOM    115  H33 ALA d   1     -34.290 -17.214  -1.020  0.00  0.00     0.033 H 
ATOM    116  H34 ALA d   1     -32.959 -16.152  -0.447  0.00  0.00     0.033 H 
BRANCH 114 117
ATOM    117  CD1 ALA d   1     -34.775 -15.137  -0.925  0.00  0.00    -0.076 C 
ATOM    118  H38 ALA d   1     -34.471 -14.955  -1.966  0.00  0.00     0.027 H 
ATOM    119  H39 ALA d   1     -34.528 -14.257  -0.312  0.00  0.00     0.027 H 
ATOM    120  H40 ALA d   1     -35.859 -15.319  -0.886  0.00  0.00     0.027 H 
ENDBRANCH 114 117
ENDBRANCH 112 114
BRANCH 112 121
ATOM    121  CG2 ALA d   1     -35.879 -16.999   1.177  0.00  0.00    -0.071 C 
ATOM    122  H35 ALA d   1     -36.122 -17.242   2.222  0.00  0.00     0.028 H 
ATOM    123  H36 ALA d   1     -36.126 -17.857   0.534  0.00  0.00     0.028 H 
ATOM    124  H37 ALA d   1     -36.463 -16.123   0.859  0.00  0.00     0.028 H 
ENDBRANCH 112 121
ENDBRANCH   1 112
TORSDOF 38
