REMARK  12 active torsions:
REMARK  status: ('A' for Active; 'I' for Inactive)
REMARK    1  A    between atoms: PB_1  and  O3A_5 
REMARK    2  A    between atoms: O3A_5  and  PA_6 
REMARK    3  A    between atoms: PA_6  and  O5'_9 
REMARK    4  A    between atoms: O5'_9  and  C5'_10 
REMARK    5  A    between atoms: C5'_10  and  C4'_11 
REMARK    6  A    between atoms: C3'_13  and  O3'_14 
REMARK    7  A    between atoms: O3'_14  and  PC_29 
REMARK    8  A    between atoms: C2'_15  and  O2'_16 
REMARK    9  A    between atoms: C1'_17  and  N9_18 
REMARK   10  A    between atoms: C2_25  and  N2_26 
REMARK   11  A    between atoms: PC_29  and  O3C_32 
REMARK   12  A    between atoms: O3C_32  and  PD_33 
ROOT
ATOM      1  C4' G4P d   1      63.359 -19.294  12.826  0.00  0.00     0.090 C 
ATOM      2  O4' G4P d   1      63.934 -18.771  14.030  0.00  0.00    -0.353 OA
ATOM      3  C3' G4P d   1      62.474 -20.456  13.259  0.00  0.00     0.106 C 
ATOM      4  C2' G4P d   1      62.161 -20.168  14.732  0.00  0.00     0.106 C 
ATOM      5  C1' G4P d   1      63.462 -19.497  15.176  0.00  0.00     0.139 C 
ATOM      6  H3  G4P d   1      64.148 -19.658  12.152  0.00  0.00     0.090 H 
ATOM      7  H4  G4P d   1      61.556 -20.463  12.653  0.00  0.00     0.092 H 
ATOM      8  H5  G4P d   1      61.309 -19.478  14.820  0.00  0.00     0.093 H 
ATOM      9  H7  G4P d   1      64.189 -20.279  15.443  0.00  0.00     0.122 H 
ENDROOT
BRANCH   5  10
ATOM     10  N9  G4P d   1      63.327 -18.596  16.331  0.00  0.00    -0.295 N 
ATOM     11  C8  G4P d   1      62.344 -17.721  16.598  0.00  0.00     0.071 A 
ATOM     12  N7  G4P d   1      62.589 -17.081  17.771  0.00  0.00    -0.234 NA
ATOM     13  H8  G4P d   1      61.475 -17.549  15.965  0.00  0.00     0.144 H 
ATOM     14  C5  G4P d   1      63.747 -17.552  18.269  0.00  0.00     0.171 A 
ATOM     15  C6  G4P d   1      64.588 -17.317  19.466  0.00  0.00     0.292 A 
ATOM     16  C4  G4P d   1      64.221 -18.554  17.311  0.00  0.00     0.161 A 
ATOM     17  O6  G4P d   1      64.264 -16.485  20.342  0.00  0.00    -0.265 OA
ATOM     18  N1  G4P d   1      65.718 -18.028  19.587  0.00  0.00    -0.154 N 
ATOM     19  C2  G4P d   1      66.097 -18.936  18.662  0.00  0.00     0.680 A 
ATOM     20  H9  G4P d   1      66.299 -17.881  20.388  0.00  0.00     0.187 HD
ATOM     21  N3  G4P d   1      65.380 -19.201  17.548  0.00  0.00    -0.174 N 
ATOM     22  H12 G4P d   1      65.721 -19.902  16.875  0.00  0.00     0.186 HD
BRANCH  19  23
ATOM     23  N2  G4P d   1      67.248 -19.628  18.833  0.00  0.00    -0.234 N 
ATOM     24  H10 G4P d   1      67.541 -20.322  18.130  0.00  0.00     0.174 HD
ATOM     25  H11 G4P d   1      67.831 -19.461  19.666  0.00  0.00     0.174 HD
ENDBRANCH  19  23
ENDBRANCH   5  10
BRANCH   4  26
ATOM     26  O2' G4P d   1      61.882 -21.326  15.496  0.00  0.00    -0.388 OA
ATOM     27  H6  G4P d   1      62.634 -21.906  15.476  0.00  0.00     0.210 HD
ENDBRANCH   4  26
BRANCH   1  28
ATOM     28  C5' G4P d   1      62.568 -18.200  12.122  0.00  0.00     0.058 C 
ATOM     29  H1  G4P d   1      63.243 -17.607  11.487  0.00  0.00     0.079 H 
ATOM     30  H2  G4P d   1      61.784 -18.655  11.499  0.00  0.00     0.079 H 
BRANCH  28  31
ATOM     31  O5' G4P d   1      61.972 -17.359  13.100  0.00  0.00    -0.287 OA
BRANCH  31  32
ATOM     32  PA  G4P d   1      60.883 -16.257  12.688  0.00  0.00     0.418 P 
ATOM     33  O1A G4P d   1      60.484 -16.490  11.253  0.00  0.00    -0.624 OA
ATOM     34  O2A G4P d   1      61.383 -14.910  13.150  0.00  0.00    -0.624 OA
BRANCH  32  35
ATOM     35  O3A G4P d   1      59.702 -16.708  13.674  0.00  0.00    -0.173 OA
BRANCH  35  36
ATOM     36  PB  G4P d   1      58.708 -17.899  13.262  0.00  0.00     0.431 P 
ATOM     37  O1B G4P d   1      58.285 -17.572  11.851  0.00  0.00    -0.616 OA
ATOM     38  O2B G4P d   1      59.594 -19.114  13.347  0.00  0.00    -0.616 OA
ATOM     39  O3B G4P d   1      57.626 -17.840  14.311  0.00  0.00    -0.616 OA
ENDBRANCH  35  36
ENDBRANCH  32  35
ENDBRANCH  31  32
ENDBRANCH  28  31
ENDBRANCH   1  28
BRANCH   3  40
ATOM     40  O3' G4P d   1      63.078 -21.747  13.195  0.00  0.00    -0.279 OA
BRANCH  40  41
ATOM     41  PC  G4P d   1      64.483 -22.088  12.489  0.00  0.00     0.419 P 
ATOM     42  O1C G4P d   1      65.581 -21.523  13.351  0.00  0.00    -0.624 OA
ATOM     43  O2C G4P d   1      64.398 -21.632  11.054  0.00  0.00    -0.624 OA
BRANCH  41  44
ATOM     44  O3C G4P d   1      64.487 -23.704  12.493  0.00  0.00    -0.173 OA
BRANCH  44  45
ATOM     45  PD  G4P d   1      65.203 -24.670  13.563  0.00  0.00     0.431 P 
ATOM     46  O1D G4P d   1      66.318 -23.856  14.152  0.00  0.00    -0.616 OA
ATOM     47  O2D G4P d   1      64.096 -25.004  14.514  0.00  0.00    -0.616 OA
ATOM     48  O3D G4P d   1      65.638 -25.865  12.763  0.00  0.00    -0.616 OA
ENDBRANCH  44  45
ENDBRANCH  41  44
ENDBRANCH  40  41
ENDBRANCH   3  40
TORSDOF 12
