REMARK  1 active torsions:
REMARK  status: ('A' for Active; 'I' for Inactive)
REMARK    1  A    between atoms: C02_7  and  C06_11 
ROOT
ATOM      1  N01 FZM d   1     -12.459  23.836  -1.495  0.00  0.00    -0.340 N 
ATOM      2  C02 FZM d   1     -11.794  24.983  -1.236  0.00  0.00     0.060 A 
ATOM      3  N03 FZM d   1     -13.245  25.287  -2.922  0.00  0.00    -0.317 N 
ATOM      4  C04 FZM d   1     -13.328  24.041  -2.530  0.00  0.00     0.111 A 
ATOM      5  C05 FZM d   1     -12.295  25.938  -2.136  0.00  0.00     0.013 A 
ATOM      6  C07 FZM d   1     -14.099  25.525  -3.952  0.00  0.00    -0.014 A 
ATOM      7  C08 FZM d   1     -14.301  23.359  -3.337  0.00  0.00    -0.039 A 
ATOM      8  C09 FZM d   1     -14.789  24.335  -4.251  0.00  0.00    -0.064 A 
ATOM      9  H6  FZM d   1     -12.331  22.947  -0.992  0.00  0.00     0.167 HD
ATOM     10  H7  FZM d   1     -11.999  26.984  -2.206  0.00  0.00     0.115 H 
ATOM     11  H8  FZM d   1     -14.228  26.479  -4.462  0.00  0.00     0.112 H 
ATOM     12  H9  FZM d   1     -14.602  22.315  -3.265  0.00  0.00     0.089 H 
ATOM     13  H10 FZM d   1     -15.542  24.191  -5.024  0.00  0.00     0.085 H 
ENDROOT
BRANCH   2  14
ATOM     14  C06 FZM d   1     -10.769  25.201  -0.143  0.00  0.00    -0.008 A 
ATOM     15  C11 FZM d   1     -10.670  24.281   0.896  0.00  0.00    -0.071 A 
ATOM     16  C12 FZM d   1      -9.759  24.471   1.919  0.00  0.00    -0.082 A 
ATOM     17  H4  FZM d   1     -11.312  23.408   0.904  0.00  0.00     0.084 H 
ATOM     18  C14 FZM d   1      -8.945  25.594   1.906  0.00  0.00    -0.083 A 
ATOM     19  H1  FZM d   1      -9.682  23.749   2.724  0.00  0.00     0.083 H 
ATOM     20  C13 FZM d   1      -9.045  26.518   0.876  0.00  0.00    -0.082 A 
ATOM     21  H3  FZM d   1      -8.228  25.750   2.704  0.00  0.00     0.083 H 
ATOM     22  C10 FZM d   1      -9.963  26.330  -0.147  0.00  0.00    -0.071 A 
ATOM     23  H2  FZM d   1      -8.403  27.391   0.871  0.00  0.00     0.083 H 
ATOM     24  H5  FZM d   1     -10.050  27.060  -0.944  0.00  0.00     0.084 H 
ENDBRANCH   2  14
TORSDOF 1
