REMARK  2 active torsions:
REMARK  status: ('A' for Active; 'I' for Inactive)
REMARK    1  A    between atoms: N03_3  and  C18_18 
REMARK    2  A    between atoms: C08_8  and  C09_9 
ROOT
ATOM      1  C01 G2V d   1      -8.653  24.460   3.168  0.00  0.00    -0.028 C 
ATOM      2  C02 G2V d   1      -7.857  25.533   3.956  0.00  0.00    -0.002 C 
ATOM      3  N03 G2V d   1      -7.731  26.703   3.076  0.00  0.00    -0.388 N 
ATOM      4  C04 G2V d   1      -9.221  25.178   1.972  0.00  0.00    -0.055 A 
ATOM      5  C05 G2V d   1      -8.692  26.492   1.931  0.00  0.00     0.009 A 
ATOM      6  C06 G2V d   1      -9.089  27.481   0.802  0.00  0.00    -0.026 A 
ATOM      7  C07 G2V d   1     -10.050  27.029  -0.269  0.00  0.00    -0.051 A 
ATOM      8  C08 G2V d   1     -10.609  25.646  -0.218  0.00  0.00    -0.006 A 
ATOM      9  C17 G2V d   1     -10.238  24.697   0.894  0.00  0.00    -0.034 A 
ATOM     10  H1  G2V d   1      -9.462  24.048   3.789  0.00  0.00     0.042 H 
ATOM     11  H2  G2V d   1      -7.987  23.646   2.847  0.00  0.00     0.042 H 
ATOM     12  H3  G2V d   1      -6.861  25.148   4.218  0.00  0.00     0.064 H 
ATOM     13  H4  G2V d   1      -8.398  25.807   4.874  0.00  0.00     0.064 H 
ATOM     14  H5  G2V d   1      -8.160  27.779   0.295  0.00  0.00     0.042 H 
ATOM     15  H6  G2V d   1      -9.539  28.359   1.288  0.00  0.00     0.042 H 
ATOM     16  H7  G2V d   1      -9.526  27.127  -1.231  0.00  0.00     0.034 H 
ATOM     17  H8  G2V d   1     -10.905  27.721  -0.245  0.00  0.00     0.034 H 
ATOM     18  H9  G2V d   1      -9.777  25.272  -0.832  0.00  0.00     0.050 H 
ATOM     19  H15 G2V d   1     -11.168  24.433   1.419  0.00  0.00     0.040 H 
ATOM     20  H16 G2V d   1      -9.813  23.797   0.425  0.00  0.00     0.040 H 
ENDROOT
BRANCH   8  21
ATOM     21  C09 G2V d   1     -11.616  25.213  -1.271  0.00  0.00     0.057 A 
ATOM     22  C10 G2V d   1     -12.358  26.073  -2.084  0.00  0.00     0.010 A 
ATOM     23  N11 G2V d   1     -13.149  25.320  -2.839  0.00  0.00    -0.319 N 
ATOM     24  H10 G2V d   1     -12.299  27.160  -2.096  0.00  0.00     0.115 H 
ATOM     25  C12 G2V d   1     -14.193  25.387  -3.915  0.00  0.00    -0.017 A 
ATOM     26  C15 G2V d   1     -12.937  23.983  -2.495  0.00  0.00     0.113 A 
ATOM     27  C13 G2V d   1     -14.651  23.990  -4.220  0.00  0.00    -0.081 A 
ATOM     28  H11 G2V d   1     -14.557  26.295  -4.394  0.00  0.00     0.111 H 
ATOM     29  C14 G2V d   1     -13.853  23.094  -3.351  0.00  0.00     0.007 A 
ATOM     30  H12 G2V d   1     -15.416  23.695  -4.936  0.00  0.00     0.079 H 
ATOM     31  H13 G2V d   1     -13.248  22.413  -3.967  0.00  0.00     0.050 H 
ATOM     32  H14 G2V d   1     -14.520  22.506  -2.703  0.00  0.00     0.050 H 
ATOM     33  N16 G2V d   1     -11.982  23.938  -1.536  0.00  0.00    -0.237 NA
ENDBRANCH   8  21
BRANCH   3  34
ATOM     34  C18 G2V d   1      -6.629  27.649   3.062  0.00  0.00    -0.019 C 
ATOM     35  H17 G2V d   1      -6.815  28.417   2.297  0.00  0.00     0.056 H 
ATOM     36  H18 G2V d   1      -5.694  27.119   2.830  0.00  0.00     0.056 H 
ATOM     37  H19 G2V d   1      -6.544  28.128   4.049  0.00  0.00     0.056 H 
ENDBRANCH   3  34
TORSDOF 2
