REMARK  4 active torsions:
REMARK  status: ('A' for Active; 'I' for Inactive)
REMARK    1  A    between atoms: C02_2  and  C03_3 
REMARK       I    between atoms: C02_2  and  N09_9 
REMARK    2  A    between atoms: N09_9  and  C10_10 
REMARK    3  A    between atoms: C10_10  and  C11_11 
REMARK    4  A    between atoms: C15_15  and  C16_16 
ROOT
ATOM      1  C11 G1Y d   1      -9.612  24.915   1.917  0.00  0.00    -0.040 A 
ATOM      2  C12 G1Y d   1      -8.800  26.188   1.792  0.00  0.00    -0.075 A 
ATOM      3  C13 G1Y d   1      -8.951  27.085   0.578  0.00  0.00    -0.082 A 
ATOM      4  C14 G1Y d   1      -9.924  26.704  -0.525  0.00  0.00    -0.071 A 
ATOM      5  C15 G1Y d   1     -10.727  25.438  -0.354  0.00  0.00    -0.005 A 
ATOM      6  C24 G1Y d   1     -10.602  24.534   0.851  0.00  0.00    -0.063 A 
ATOM      7  H9  G1Y d   1      -8.104  26.460   2.578  0.00  0.00     0.084 H 
ATOM      8  H10 G1Y d   1      -8.367  27.995   0.498  0.00  0.00     0.083 H 
ATOM      9  H11 G1Y d   1     -10.038  27.323  -1.408  0.00  0.00     0.084 H 
ATOM     10  H17 G1Y d   1     -11.207  23.639   0.944  0.00  0.00     0.085 H 
ENDROOT
BRANCH   1  11
ATOM     11  C10 G1Y d   1      -9.444  24.039   3.137  0.00  0.00     0.019 C 
ATOM     12  H7  G1Y d   1      -9.647  22.988   2.883  0.00  0.00     0.071 H 
ATOM     13  H8  G1Y d   1      -8.422  24.130   3.534  0.00  0.00     0.071 H 
BRANCH  11  14
ATOM     14  N09 G1Y d   1     -10.398  24.511   4.104  0.00  0.00    -0.353 N 
ATOM     15  C02 G1Y d   1     -11.714  23.935   4.095  0.00  0.00     0.251 C 
ATOM     16  O01 G1Y d   1     -12.029  23.110   3.297  0.00  0.00    -0.268 OA
ATOM     17  H6  G1Y d   1     -10.152  25.221   4.764  0.00  0.00     0.163 HD
BRANCH  15  18
ATOM     18  C03 G1Y d   1     -12.673  24.426   5.160  0.00  0.00     0.032 A 
ATOM     19  C04 G1Y d   1     -12.463  25.811   5.759  0.00  0.00    -0.068 A 
ATOM     20  C05 G1Y d   1     -13.418  26.323   6.829  0.00  0.00    -0.082 A 
ATOM     21  H1  G1Y d   1     -11.637  26.429   5.425  0.00  0.00     0.085 H 
ATOM     22  C06 G1Y d   1     -14.574  25.441   7.289  0.00  0.00    -0.083 A 
ATOM     23  H2  G1Y d   1     -13.277  27.307   7.261  0.00  0.00     0.083 H 
ATOM     24  C07 G1Y d   1     -14.779  24.057   6.677  0.00  0.00    -0.082 A 
ATOM     25  H3  G1Y d   1     -15.254  25.798   8.054  0.00  0.00     0.083 H 
ATOM     26  C08 G1Y d   1     -13.827  23.543   5.609  0.00  0.00    -0.068 A 
ATOM     27  H4  G1Y d   1     -15.607  23.439   7.005  0.00  0.00     0.083 H 
ATOM     28  H5  G1Y d   1     -13.969  22.561   5.173  0.00  0.00     0.085 H 
ENDBRANCH  15  18
ENDBRANCH  11  14
ENDBRANCH   1  11
BRANCH   5  29
ATOM     29  C16 G1Y d   1     -11.762  25.050  -1.366  0.00  0.00     0.085 A 
ATOM     30  C17 G1Y d   1     -12.447  25.931  -2.192  0.00  0.00     0.014 A 
ATOM     31  N18 G1Y d   1     -13.293  25.189  -2.900  0.00  0.00    -0.319 N 
ATOM     32  H12 G1Y d   1     -12.318  27.011  -2.248  0.00  0.00     0.116 H 
ATOM     33  C19 G1Y d   1     -14.348  25.262  -3.967  0.00  0.00    -0.017 C 
ATOM     34  C22 G1Y d   1     -13.159  23.854  -2.506  0.00  0.00     0.114 A 
ATOM     35  C20 G1Y d   1     -14.768  23.862  -4.311  0.00  0.00    -0.081 C 
ATOM     36  H13 G1Y d   1     -14.741  26.174  -4.414  0.00  0.00     0.111 H 
ATOM     37  C21 G1Y d   1     -14.127  22.983  -3.310  0.00  0.00     0.007 C 
ATOM     38  H14 G1Y d   1     -15.414  23.556  -5.132  0.00  0.00     0.079 H 
ATOM     39  H15 G1Y d   1     -13.578  22.174  -3.814  0.00  0.00     0.050 H 
ATOM     40  H16 G1Y d   1     -14.888  22.550  -2.644  0.00  0.00     0.050 H 
ATOM     41  N23 G1Y d   1     -12.206  23.784  -1.555  0.00  0.00    -0.233 NA
ENDBRANCH   5  29
TORSDOF 4
