REMARK  8 active torsions:
REMARK  status: ('A' for Active; 'I' for Inactive)
REMARK    1  A    between atoms: C02_2  and  C03_3 
REMARK       I    between atoms: C02_2  and  N11_11 
REMARK    2  A    between atoms: C07_7  and  O08_8 
REMARK    3  A    between atoms: O08_8  and  C09_9 
REMARK    4  A    between atoms: N11_11  and  C12_12 
REMARK    5  A    between atoms: N11_11  and  C16_16 
REMARK    6  A    between atoms: C12_12  and  C13_13 
REMARK    7  A    between atoms: C16_16  and  C17_17 
REMARK    8  A    between atoms: C21_21  and  C22_22 
ROOT
ATOM      1  O01 G2J d   1      20.725  27.515   5.266  0.00  0.00    -0.267 OA
ATOM      2  C02 G2J d   1      21.568  28.371   5.545  0.00  0.00     0.254 C 
ATOM      3  N11 G2J d   1      22.044  28.525   6.822  0.00  0.00    -0.343 N 
ENDROOT
BRANCH   3   4
ATOM      4  C12 G2J d   1      23.057  29.542   7.167  0.00  0.00     0.002 C 
ATOM      5  H8  G2J d   1      22.813  30.456   6.605  0.00  0.00     0.065 H 
ATOM      6  H9  G2J d   1      24.035  29.160   6.838  0.00  0.00     0.065 H 
BRANCH   4   7
ATOM      7  C13 G2J d   1      23.186  29.927   8.629  0.00  0.00    -0.038 A 
ATOM      8  C14 G2J d   1      22.282  30.940   9.292  0.00  0.00    -0.060 A 
ATOM      9  C15 G2J d   1      23.718  31.293   8.997  0.00  0.00    -0.060 A 
ATOM     10  H11 G2J d   1      21.956  30.788  10.331  0.00  0.00     0.033 H 
ATOM     11  H12 G2J d   1      21.471  31.412   8.718  0.00  0.00     0.033 H 
ATOM     12  H13 G2J d   1      23.954  32.022   8.208  0.00  0.00     0.033 H 
ATOM     13  H14 G2J d   1      24.439  31.399   9.821  0.00  0.00     0.033 H 
ATOM     14  H10 G2J d   1      23.503  29.042   9.201  0.00  0.00     0.042 H 
ENDBRANCH   4   7
ENDBRANCH   3   4
BRANCH   3  15
ATOM     15  C16 G2J d   1      21.598  27.674   7.940  0.00  0.00     0.022 C 
ATOM     16  H15 G2J d   1      20.540  27.413   7.793  0.00  0.00     0.071 H 
ATOM     17  H16 G2J d   1      21.711  28.230   8.882  0.00  0.00     0.071 H 
BRANCH  15  18
ATOM     18  C17 G2J d   1      22.417  26.399   8.015  0.00  0.00    -0.039 A 
ATOM     19  C18 G2J d   1      23.436  26.280   8.977  0.00  0.00    -0.075 A 
ATOM     20  C19 G2J d   1      24.210  25.110   9.036  0.00  0.00    -0.082 A 
ATOM     21  H17 G2J d   1      23.624  27.090   9.672  0.00  0.00     0.084 H 
ATOM     22  C20 G2J d   1      23.973  24.055   8.128  0.00  0.00    -0.071 A 
ATOM     23  H18 G2J d   1      24.992  25.016   9.781  0.00  0.00     0.083 H 
ATOM     24  C21 G2J d   1      22.966  24.160   7.143  0.00  0.00    -0.005 A 
ATOM     25  H19 G2J d   1      24.571  23.153   8.188  0.00  0.00     0.084 H 
ATOM     26  C30 G2J d   1      22.200  25.350   7.093  0.00  0.00    -0.063 A 
ATOM     27  H27 G2J d   1      21.434  25.458   6.334  0.00  0.00     0.085 H 
BRANCH  24  28
ATOM     28  C22 G2J d   1      22.772  23.092   6.136  0.00  0.00     0.084 A 
ATOM     29  C23 G2J d   1      23.761  22.294   5.605  0.00  0.00     0.010 A 
ATOM     30  N24 G2J d   1      23.119  21.499   4.695  0.00  0.00    -0.343 N 
ATOM     31  H20 G2J d   1      24.821  22.295   5.855  0.00  0.00     0.115 H 
ATOM     32  C25 G2J d   1      23.503  20.438   3.778  0.00  0.00     0.001 A 
ATOM     33  C28 G2J d   1      21.834  21.787   4.635  0.00  0.00     0.106 A 
ATOM     34  C26 G2J d   1      22.156  20.039   3.105  0.00  0.00    -0.043 A 
ATOM     35  H21 G2J d   1      23.939  19.587   4.321  0.00  0.00     0.065 H 
ATOM     36  H22 G2J d   1      24.223  20.804   3.031  0.00  0.00     0.065 H 
ATOM     37  C27 G2J d   1      21.065  20.996   3.652  0.00  0.00    -0.008 A 
ATOM     38  H23 G2J d   1      21.904  18.998   3.356  0.00  0.00     0.035 H 
ATOM     39  H24 G2J d   1      22.235  20.144   2.013  0.00  0.00     0.035 H 
ATOM     40  H25 G2J d   1      20.248  20.440   4.135  0.00  0.00     0.044 H 
ATOM     41  H26 G2J d   1      20.654  21.634   2.856  0.00  0.00     0.044 H 
ATOM     42  N29 G2J d   1      21.583  22.766   5.513  0.00  0.00    -0.233 NA
ENDBRANCH  24  28
ENDBRANCH  15  18
ENDBRANCH   3  15
BRANCH   2  43
ATOM     43  C03 G2J d   1      22.024  29.260   4.414  0.00  0.00     0.034 A 
ATOM     44  C04 G2J d   1      21.710  30.637   4.408  0.00  0.00    -0.068 A 
ATOM     45  C05 G2J d   1      22.122  31.462   3.346  0.00  0.00    -0.079 A 
ATOM     46  H1  G2J d   1      21.146  31.062   5.230  0.00  0.00     0.085 H 
ATOM     47  C06 G2J d   1      22.822  30.912   2.259  0.00  0.00    -0.051 A 
ATOM     48  H2  G2J d   1      21.899  32.523   3.366  0.00  0.00     0.083 H 
ATOM     49  C07 G2J d   1      23.128  29.529   2.228  0.00  0.00     0.069 A 
ATOM     50  H3  G2J d   1      23.130  31.550   1.439  0.00  0.00     0.087 H 
ATOM     51  C10 G2J d   1      22.732  28.714   3.316  0.00  0.00    -0.036 A 
ATOM     52  H7  G2J d   1      22.974  27.657   3.308  0.00  0.00     0.089 H 
BRANCH  49  53
ATOM     53  O08 G2J d   1      23.807  28.946   1.180  0.00  0.00    -0.356 OA
BRANCH  53  54
ATOM     54  C09 G2J d   1      24.056  27.548   1.158  0.00  0.00     0.010 C 
ATOM     55  H4  G2J d   1      24.607  27.288   0.242  0.00  0.00     0.066 H 
ATOM     56  H5  G2J d   1      23.100  27.005   1.177  0.00  0.00     0.066 H 
ATOM     57  H6  G2J d   1      24.654  27.268   2.038  0.00  0.00     0.066 H 
ENDBRANCH  53  54
ENDBRANCH  49  53
ENDBRANCH   2  43
TORSDOF 8
