REMARK  2 active torsions:
REMARK  status: ('A' for Active; 'I' for Inactive)
REMARK    1  A    between atoms: C04_3  and  C05_4 
REMARK    2  A    between atoms: C05_4  and  P06_18 
ROOT
ATOM      1  C02 P9T d   1     -34.220   3.393   8.083  0.00  0.00     0.288 C 
ATOM      2  C03 P9T d   1     -33.874   4.740   8.102  0.00  0.00    -0.002 C 
ATOM      3  C04 P9T d   1     -34.884   5.693   8.127  0.00  0.00    -0.023 C 
ATOM      4  C10 P9T d   1     -36.192   5.293   8.463  0.00  0.00     0.044 A 
ATOM      5  C11 P9T d   1     -37.204   6.225   8.768  0.00  0.00     0.132 A 
ATOM      6  C13 P9T d   1     -38.480   5.782   9.094  0.00  0.00    -0.007 A 
ATOM      7  C14 P9T d   1     -38.759   4.419   9.121  0.00  0.00     0.122 A 
ATOM      8  C16 P9T d   1     -37.763   3.500   8.821  0.00  0.00    -0.012 A 
ATOM      9  C17 P9T d   1     -36.469   3.947   8.490  0.00  0.00     0.096 A 
ATOM     10  F12 P9T d   1     -36.936   7.562   8.743  0.00  0.00    -0.205 F 
ATOM     11  F15 P9T d   1     -40.013   3.986   9.441  0.00  0.00    -0.206 F 
ATOM     12  O01 P9T d   1     -33.376   2.569   7.963  0.00  0.00    -0.260 OA
ATOM     13  O18 P9T d   1     -35.508   3.020   8.200  0.00  0.00    -0.275 OA
ATOM     14  H1  P9T d   1     -32.828   5.043   8.097  0.00  0.00     0.093 H 
ATOM     15  H4  P9T d   1     -39.259   6.499   9.328  0.00  0.00     0.093 H 
ATOM     16  H5  P9T d   1     -37.981   2.438   8.841  0.00  0.00     0.092 H 
ENDROOT
BRANCH   3  17
ATOM     17  C05 P9T d   1     -34.646   7.058   7.483  0.00  0.00     0.064 C 
ATOM     18  H2  P9T d   1     -33.665   7.438   7.805  0.00  0.00     0.061 H 
ATOM     19  H3  P9T d   1     -35.434   7.751   7.813  0.00  0.00     0.061 H 
BRANCH  17  20
ATOM     20  P06 P9T d   1     -34.673   6.954   5.625  0.00  0.00     0.263 P 
ATOM     21  O07 P9T d   1     -34.636   8.347   5.043  0.00  0.00    -0.639 OA
ATOM     22  O08 P9T d   1     -33.470   6.176   5.147  0.00  0.00    -0.639 OA
ATOM     23  O09 P9T d   1     -35.934   6.255   5.179  0.00  0.00    -0.639 OA
ENDBRANCH  17  20
ENDBRANCH   3  17
TORSDOF 2
