REMARK  6 active torsions:
REMARK  status: ('A' for Active; 'I' for Inactive)
REMARK    1  A    between atoms: N_1  and  CA_2 
REMARK    2  A    between atoms: CA_2  and  C_3 
REMARK    3  A    between atoms: CA_2  and  CB_5 
REMARK    4  A    between atoms: CB_5  and  CG_6 
REMARK    5  A    between atoms: CG_6  and  CD_7 
REMARK    6  A    between atoms: CD_7  and  NE_8 
REMARK       I    between atoms: NE_8  and  CZ_9 
REMARK       I    between atoms: CZ_9  and  NH1_10 
ROOT
ATOM      1  CG  ARG d   1      21.534  12.969   9.154  0.00  0.00    -0.047 C 
ATOM      2  H7  ARG d   1      21.309  14.004   8.857  0.00  0.00     0.035 H 
ATOM      3  H8  ARG d   1      20.754  12.607   9.840  0.00  0.00     0.035 H 
ENDROOT
BRANCH   1   4
ATOM      4  CB  ARG d   1      22.867  12.961   9.894  0.00  0.00    -0.028 C 
ATOM      5  H5  ARG d   1      23.060  11.936  10.243  0.00  0.00     0.036 H 
ATOM      6  H6  ARG d   1      23.654  13.262   9.187  0.00  0.00     0.036 H 
BRANCH   4   7
ATOM      7  CA  ARG d   1      22.926  13.896  11.101  0.00  0.00     0.182 C 
ATOM      8  H4  ARG d   1      22.075  13.674  11.762  0.00  0.00     0.101 H 
BRANCH   7   9
ATOM      9  N   ARG d   1      22.848  15.319  10.680  0.00  0.00    -0.065 N 
ATOM     10  H1  ARG d   1      21.990  15.473  10.175  0.00  0.00     0.275 HD
ATOM     11  H2  ARG d   1      23.632  15.537  10.085  0.00  0.00     0.275 HD
ATOM     12  H3  ARG d   1      22.869  15.912  11.495  0.00  0.00     0.275 HD
ENDBRANCH   7   9
BRANCH   7  13
ATOM     13  C   ARG d   1      24.225  13.666  11.865  0.00  0.00     0.204 C 
ATOM     14  O   ARG d   1      25.158  14.476  11.706  0.00  0.00    -0.646 OA
ATOM     15  OXT ARG d   1      24.339  12.680  12.606  0.00  0.00    -0.646 OA
ENDBRANCH   7  13
ENDBRANCH   4   7
ENDBRANCH   1   4
BRANCH   1  16
ATOM     16  CD  ARG d   1      21.517  12.095   7.903  0.00  0.00     0.009 C 
ATOM     17  H9  ARG d   1      22.338  12.400   7.237  0.00  0.00     0.064 H 
ATOM     18  H10 ARG d   1      20.556  12.225   7.384  0.00  0.00     0.064 H 
BRANCH  16  19
ATOM     19  NE  ARG d   1      21.683  10.699   8.257  0.00  0.00    -0.227 N 
ATOM     20  CZ  ARG d   1      22.780   9.982   8.039  0.00  0.00     0.665 C 
ATOM     21  NH1 ARG d   1      22.798   8.716   8.464  0.00  0.00    -0.235 N 
ATOM     22  NH2 ARG d   1      23.844  10.511   7.433  0.00  0.00    -0.235 N 
ATOM     23  H12 ARG d   1      23.633   8.133   8.311  0.00  0.00     0.174 HD
ATOM     24  H13 ARG d   1      21.977   8.322   8.945  0.00  0.00     0.174 HD
ATOM     25  H14 ARG d   1      23.819  11.489   7.109  0.00  0.00     0.174 HD
ATOM     26  H15 ARG d   1      24.690   9.942   7.289  0.00  0.00     0.174 HD
ATOM     27  H11 ARG d   1      20.889  10.227   8.713  0.00  0.00     0.177 HD
ENDBRANCH  16  19
ENDBRANCH   1  16
TORSDOF 6
