REMARK  10 active torsions:
REMARK  status: ('A' for Active; 'I' for Inactive)
REMARK    1  A    between atoms: C03_12  and  C13_2 
REMARK    2  A    between atoms: C13_2  and  C14_19 
REMARK    3  A    between atoms: C15_3  and  C17_4 
REMARK    4  A    between atoms: C14_19  and  C15_3 
REMARK    5  A    between atoms: C15_3  and  O16_27 
REMARK    6  A    between atoms: C20_5  and  C23_22 
REMARK    7  A    between atoms: C23_22  and  C24_8 
REMARK    8  A    between atoms: C02_11  and  C01_10 
REMARK    9  A    between atoms: C07_14  and  C05_13 
REMARK   10  A    between atoms: C25_23  and  O26_28 
ROOT
ATOM      1  C15 GEV d   1      17.492  61.938  11.904  0.00  0.00     0.061 C 
ATOM      2  H4  GEV d   1      17.963  62.898  11.648  0.00  0.00     0.090 H 
ENDROOT
BRANCH   1   3
ATOM      3  C17 GEV d   1      17.585  61.847  13.418  0.00  0.00    -0.030 A 
ATOM      4  C22 GEV d   1      16.576  62.386  14.206  0.00  0.00    -0.074 A 
ATOM      5  C21 GEV d   1      16.703  62.316  15.581  0.00  0.00    -0.076 A 
ATOM      6  H6  GEV d   1      15.708  62.851  13.753  0.00  0.00     0.084 H 
ATOM      7  C20 GEV d   1      17.828  61.723  16.143  0.00  0.00    -0.053 A 
ATOM      8  H5  GEV d   1      15.927  62.723  16.220  0.00  0.00     0.084 H 
ATOM      9  C19 GEV d   1      18.840  61.196  15.356  0.00  0.00    -0.076 A 
ATOM     10  C18 GEV d   1      18.715  61.270  13.981  0.00  0.00    -0.074 A 
ATOM     11  H17 GEV d   1      19.711  60.736  15.809  0.00  0.00     0.084 H 
ATOM     12  H16 GEV d   1      19.499  60.878  13.343  0.00  0.00     0.084 H 
BRANCH   7  13
ATOM     13  C23 GEV d   1      17.956  61.648  17.655  0.00  0.00    -0.007 C 
ATOM     14  H18 GEV d   1      18.475  60.717  17.926  0.00  0.00     0.048 H 
ATOM     15  H19 GEV d   1      16.951  61.650  18.101  0.00  0.00     0.048 H 
BRANCH  13  16
ATOM     16  C24 GEV d   1      18.745  62.835  18.198  0.00  0.00     0.042 A 
ATOM     17  C25 GEV d   1      18.579  63.406  19.469  0.00  0.00     0.156 A 
ATOM     18  N27 GEV d   1      19.426  64.436  19.739  0.00  0.00    -0.309 N 
ATOM     19  C28 GEV d   1      20.288  64.773  18.772  0.00  0.00     0.223 A 
ATOM     20  H20 GEV d   1      19.406  64.917  20.616  0.00  0.00     0.170 HD
ATOM     21  O29 GEV d   1      21.231  65.803  18.827  0.00  0.00    -0.164 OA
ATOM     22  S30 GEV d   1      20.008  63.728  17.471  0.00  0.00    -0.044 SA
BRANCH  17  23
ATOM     23  O26 GEV d   1      17.624  62.957  20.373  0.00  0.00    -0.345 OA
ATOM     24  H22 GEV d   1      18.055  62.665  21.168  0.00  0.00     0.219 HD
ENDBRANCH  17  23
ENDBRANCH  13  16
ENDBRANCH   7  13
ENDBRANCH   1   3
BRANCH   1  25
ATOM     25  C14 GEV d   1      16.088  62.025  11.346  0.00  0.00    -0.032 C 
ATOM     26  H14 GEV d   1      15.523  61.110  11.576  0.00  0.00     0.037 H 
ATOM     27  H15 GEV d   1      15.560  62.896  11.761  0.00  0.00     0.037 H 
BRANCH  25  28
ATOM     28  C13 GEV d   1      16.271  62.177   9.846  0.00  0.00    -0.020 C 
ATOM     29  H2  GEV d   1      16.882  61.340   9.478  0.00  0.00     0.042 H 
ATOM     30  H3  GEV d   1      15.282  62.149   9.364  0.00  0.00     0.042 H 
BRANCH  28  31
ATOM     31  C03 GEV d   1      16.966  63.498   9.473  0.00  0.00     0.067 A 
ATOM     32  C02 GEV d   1      18.324  63.740   9.178  0.00  0.00     0.076 A 
ATOM     33  O06 GEV d   1      18.430  65.017   8.895  0.00  0.00    -0.294 OA
ATOM     34  C05 GEV d   1      17.276  65.604   8.994  0.00  0.00     0.180 A 
ATOM     35  N04 GEV d   1      16.352  64.715   9.337  0.00  0.00    -0.226 NA
BRANCH  32  36
ATOM     36  C01 GEV d   1      19.488  62.747   9.171  0.00  0.00    -0.029 C 
ATOM     37  H7  GEV d   1      20.415  63.271   8.896  0.00  0.00     0.036 H 
ATOM     38  H8  GEV d   1      19.286  61.951   8.440  0.00  0.00     0.036 H 
ATOM     39  H9  GEV d   1      19.599  62.306  10.172  0.00  0.00     0.036 H 
ENDBRANCH  32  36
BRANCH  34  40
ATOM     40  C07 GEV d   1      17.024  67.074   8.718  0.00  0.00     0.017 A 
ATOM     41  C08 GEV d   1      18.070  67.870   8.283  0.00  0.00    -0.069 A 
ATOM     42  C09 GEV d   1      17.834  69.207   8.023  0.00  0.00    -0.082 A 
ATOM     43  H10 GEV d   1      19.060  67.451   8.148  0.00  0.00     0.085 H 
ATOM     44  C10 GEV d   1      16.557  69.728   8.188  0.00  0.00    -0.083 A 
ATOM     45  H11 GEV d   1      18.643  69.847   7.691  0.00  0.00     0.083 H 
ATOM     46  C11 GEV d   1      15.510  68.923   8.614  0.00  0.00    -0.082 A 
ATOM     47  H1  GEV d   1      16.376  70.777   7.981  0.00  0.00     0.083 H 
ATOM     48  C12 GEV d   1      15.751  67.590   8.872  0.00  0.00    -0.069 A 
ATOM     49  H12 GEV d   1      14.516  69.336   8.742  0.00  0.00     0.083 H 
ATOM     50  H13 GEV d   1      14.941  66.946   9.196  0.00  0.00     0.085 H 
ENDBRANCH  34  40
ENDBRANCH  28  31
ENDBRANCH  25  28
ENDBRANCH   1  25
BRANCH   1  51
ATOM     51  O16 GEV d   1      18.249  60.963  11.255  0.00  0.00    -0.391 OA
ATOM     52  H21 GEV d   1      19.121  60.938  11.631  0.00  0.00     0.210 HD
ENDBRANCH   1  51
TORSDOF 10
