REMARK  16 active torsions:
REMARK  status: ('A' for Active; 'I' for Inactive)
REMARK    1  A    between atoms: C17_1  and  C16_16 
REMARK    2  A    between atoms: N18_22  and  C17_1 
REMARK    3  A    between atoms: C22_3  and  C21_2 
REMARK    4  A    between atoms: C21_2  and  C19_17 
REMARK    5  A    between atoms: C23_18  and  C22_3 
REMARK    6  A    between atoms: C24_4  and  C23_18 
REMARK    7  A    between atoms: C25_19  and  C24_4 
REMARK    8  A    between atoms: C27_20  and  C26_5 
REMARK    9  A    between atoms: O15_25  and  C03_8 
REMARK   10  A    between atoms: C06_11  and  C07_12 
REMARK   11  A    between atoms: C07_12  and  C08_13 
REMARK   12  A    between atoms: C09_14  and  O10_23 
REMARK   13  A    between atoms: C16_16  and  O15_25 
REMARK       I    between atoms: C19_17  and  N18_22 
REMARK   14  A    between atoms: S29_29  and  C25_19 
REMARK   15  A    between atoms: S28_28  and  C27_20 
REMARK   16  A    between atoms: S28_28  and  S29_29 
ROOT
ATOM      1  C17 GBV d   1      17.069  60.994  10.656  0.00  0.00     0.015 C 
ATOM      2  H1  GBV d   1      16.395  60.287  11.162  0.00  0.00     0.067 H 
ATOM      3  H2  GBV d   1      17.449  60.539   9.729  0.00  0.00     0.067 H 
ENDROOT
BRANCH   1   4
ATOM      4  C16 GBV d   1      18.224  61.366  11.572  0.00  0.00     0.041 C 
ATOM      5  H18 GBV d   1      17.972  62.275  12.137  0.00  0.00     0.077 H 
ATOM      6  H19 GBV d   1      19.130  61.545  10.974  0.00  0.00     0.077 H 
BRANCH   4   7
ATOM      7  O15 GBV d   1      18.442  60.316  12.448  0.00  0.00    -0.350 OA
BRANCH   7   8
ATOM      8  C03 GBV d   1      18.254  60.765  13.733  0.00  0.00     0.068 A 
ATOM      9  C02 GBV d   1      17.035  61.354  13.984  0.00  0.00    -0.050 A 
ATOM     10  C01 GBV d   1      16.786  61.813  15.257  0.00  0.00    -0.074 A 
ATOM     11  H13 GBV d   1      16.292  61.453  13.201  0.00  0.00     0.087 H 
ATOM     12  C06 GBV d   1      17.751  61.683  16.237  0.00  0.00    -0.053 A 
ATOM     13  H12 GBV d   1      15.834  62.276  15.491  0.00  0.00     0.084 H 
ATOM     14  C05 GBV d   1      18.977  61.087  15.974  0.00  0.00    -0.074 A 
ATOM     15  C04 GBV d   1      19.245  60.630  14.694  0.00  0.00    -0.050 A 
ATOM     16  H15 GBV d   1      19.715  60.981  16.761  0.00  0.00     0.084 H 
ATOM     17  H14 GBV d   1      20.201  60.180  14.451  0.00  0.00     0.087 H 
BRANCH  12  18
ATOM     18  C07 GBV d   1      17.403  62.243  17.606  0.00  0.00    -0.007 C 
ATOM     19  H16 GBV d   1      16.957  61.437  18.208  0.00  0.00     0.048 H 
ATOM     20  H17 GBV d   1      16.669  63.052  17.474  0.00  0.00     0.048 H 
BRANCH  18  21
ATOM     21  C08 GBV d   1      18.599  62.799  18.360  0.00  0.00     0.042 A 
ATOM     22  C09 GBV d   1      18.659  62.871  19.756  0.00  0.00     0.156 A 
ATOM     23  N11 GBV d   1      19.814  63.371  20.258  0.00  0.00    -0.309 N 
ATOM     24  C12 GBV d   1      20.701  63.733  19.335  0.00  0.00     0.223 A 
ATOM     25  H26 GBV d   1      19.985  63.460  21.239  0.00  0.00     0.170 HD
ATOM     26  O13 GBV d   1      21.943  64.268  19.628  0.00  0.00    -0.164 OA
ATOM     27  S14 GBV d   1      20.059  63.459  17.790  0.00  0.00    -0.044 SA
BRANCH  22  28
ATOM     28  O10 GBV d   1      17.606  62.452  20.560  0.00  0.00    -0.345 OA
ATOM     29  H28 GBV d   1      17.903  61.751  21.129  0.00  0.00     0.219 HD
ENDBRANCH  22  28
ENDBRANCH  18  21
ENDBRANCH  12  18
ENDBRANCH   7   8
ENDBRANCH   4   7
ENDBRANCH   1   4
BRANCH   1  30
ATOM     30  N18 GBV d   1      16.374  62.222  10.360  0.00  0.00    -0.359 N 
ATOM     31  C19 GBV d   1      17.132  63.278   9.744  0.00  0.00     0.217 C 
ATOM     32  O20 GBV d   1      18.292  63.125   9.478  0.00  0.00    -0.274 OA
ATOM     33  H27 GBV d   1      15.404  62.335  10.574  0.00  0.00     0.162 HD
BRANCH  31  34
ATOM     34  C21 GBV d   1      16.374  64.572   9.460  0.00  0.00     0.009 C 
ATOM     35  H3  GBV d   1      15.721  64.426   8.587  0.00  0.00     0.047 H 
ATOM     36  H4  GBV d   1      15.762  64.834  10.336  0.00  0.00     0.047 H 
BRANCH  34  37
ATOM     37  C22 GBV d   1      17.358  65.712   9.171  0.00  0.00    -0.057 C 
ATOM     38  H5  GBV d   1      17.616  65.703   8.102  0.00  0.00     0.033 H 
ATOM     39  H6  GBV d   1      18.269  65.562   9.769  0.00  0.00     0.033 H 
BRANCH  37  40
ATOM     40  C23 GBV d   1      16.745  67.059   9.525  0.00  0.00    -0.064 C 
ATOM     41  H20 GBV d   1      17.433  67.601  10.190  0.00  0.00     0.033 H 
ATOM     42  H21 GBV d   1      15.789  66.892  10.044  0.00  0.00     0.033 H 
BRANCH  40  43
ATOM     43  C24 GBV d   1      16.493  67.899   8.283  0.00  0.00    -0.056 C 
ATOM     44  H7  GBV d   1      15.589  68.508   8.432  0.00  0.00     0.034 H 
ATOM     45  H8  GBV d   1      16.349  67.236   7.418  0.00  0.00     0.034 H 
BRANCH  43  46
ATOM     46  C25 GBV d   1      17.584  68.741   8.045  0.00  0.00    -0.013 C 
ATOM     47  H22 GBV d   1      18.486  68.292   8.487  0.00  0.00     0.050 H 
ATOM     48  H23 GBV d   1      17.392  69.717   8.515  0.00  0.00     0.050 H 
BRANCH  46  49
ATOM     49  S29 GBV d   1      17.816  68.948   6.535  0.00  0.00    -0.098 SA
BRANCH  49  50
ATOM     50  S28 GBV d   1      18.936  70.516   6.505  0.00  0.00    -0.098 SA
BRANCH  50  51
ATOM     51  C27 GBV d   1      18.338  71.493   7.944  0.00  0.00    -0.017 C 
ATOM     52  H24 GBV d   1      19.174  71.726   8.620  0.00  0.00     0.049 H 
ATOM     53  H25 GBV d   1      17.872  72.429   7.601  0.00  0.00     0.049 H 
BRANCH  51  54
ATOM     54  C26 GBV d   1      17.259  70.579   8.693  0.00  0.00    -0.067 C 
ATOM     55  H9  GBV d   1      16.866  71.118   9.568  0.00  0.00     0.028 H 
ATOM     56  H10 GBV d   1      17.736  69.644   9.022  0.00  0.00     0.028 H 
ATOM     57  H11 GBV d   1      16.434  70.347   8.004  0.00  0.00     0.028 H 
ENDBRANCH  51  54
ENDBRANCH  50  51
ENDBRANCH  49  50
ENDBRANCH  46  49
ENDBRANCH  43  46
ENDBRANCH  40  43
ENDBRANCH  37  40
ENDBRANCH  34  37
ENDBRANCH  31  34
ENDBRANCH   1  30
TORSDOF 16
