REMARK  7 active torsions:
REMARK  status: ('A' for Active; 'I' for Inactive)
REMARK    1  A    between atoms: C12_14  and  C15_3 
REMARK    2  A    between atoms: C15_3  and  C16_16 
REMARK    3  A    between atoms: C17_4  and  O18_19 
REMARK    4  A    between atoms: C06_10  and  C03_8 
REMARK    5  A    between atoms: C07_11  and  C06_10 
REMARK    6  A    between atoms: O08_18  and  C07_11 
REMARK    7  A    between atoms: C09_12  and  O08_18 
ROOT
ATOM      1  C10 GDY d   1      18.650  61.569  13.079  0.00  0.00    -0.050 A 
ATOM      2  C13 GDY d   1      16.673  61.955  14.972  0.00  0.00    -0.074 A 
ATOM      3  C09 GDY d   1      17.350  61.812  12.647  0.00  0.00     0.068 A 
ATOM      4  C11 GDY d   1      18.969  61.517  14.445  0.00  0.00    -0.074 A 
ATOM      5  C12 GDY d   1      17.983  61.736  15.406  0.00  0.00    -0.053 A 
ATOM      6  C14 GDY d   1      16.362  62.002  13.609  0.00  0.00    -0.050 A 
ATOM      7  H1  GDY d   1      19.433  61.417  12.345  0.00  0.00     0.087 H 
ATOM      8  H2  GDY d   1      15.885  62.091  15.704  0.00  0.00     0.084 H 
ATOM      9  H12 GDY d   1      19.986  61.306  14.754  0.00  0.00     0.084 H 
ATOM     10  H13 GDY d   1      15.340  62.188  13.299  0.00  0.00     0.087 H 
ENDROOT
BRANCH   3  11
ATOM     11  O08 GDY d   1      17.015  61.859  11.272  0.00  0.00    -0.351 OA
BRANCH  11  12
ATOM     12  C07 GDY d   1      17.655  62.827  10.463  0.00  0.00     0.030 C 
ATOM     13  H10 GDY d   1      18.345  63.425  11.077  0.00  0.00     0.075 H 
ATOM     14  H11 GDY d   1      18.218  62.326   9.661  0.00  0.00     0.075 H 
BRANCH  12  15
ATOM     15  C06 GDY d   1      16.583  63.741   9.850  0.00  0.00    -0.015 C 
ATOM     16  H8  GDY d   1      16.184  63.223   8.965  0.00  0.00     0.044 H 
ATOM     17  H9  GDY d   1      15.786  63.853  10.600  0.00  0.00     0.044 H 
BRANCH  15  18
ATOM     18  C03 GDY d   1      16.987  65.161   9.401  0.00  0.00    -0.016 A 
ATOM     19  C02 GDY d   1      18.194  65.587   8.817  0.00  0.00    -0.070 A 
ATOM     20  C01 GDY d   1      18.228  66.995   8.518  0.00  0.00    -0.076 A 
ATOM     21  H6  GDY d   1      19.025  64.914   8.610  0.00  0.00     0.085 H 
ATOM     22  C05 GDY d   1      17.065  67.714   8.834  0.00  0.00    -0.045 A 
ATOM     23  H5  GDY d   1      19.101  67.472   8.075  0.00  0.00     0.084 H 
ATOM     24  S04 GDY d   1      16.018  66.559   9.491  0.00  0.00    -0.106 SA
ATOM     25  H7  GDY d   1      16.878  68.777   8.689  0.00  0.00     0.095 H 
ENDBRANCH  15  18
ENDBRANCH  12  15
ENDBRANCH  11  12
ENDBRANCH   3  11
BRANCH   5  26
ATOM     26  C15 GDY d   1      18.281  61.644  16.924  0.00  0.00    -0.007 C 
ATOM     27  H3  GDY d   1      18.874  60.727  17.051  0.00  0.00     0.048 H 
ATOM     28  H4  GDY d   1      17.301  61.517  17.407  0.00  0.00     0.048 H 
BRANCH  26  29
ATOM     29  C16 GDY d   1      19.013  62.726  17.755  0.00  0.00     0.042 A 
ATOM     30  C17 GDY d   1      18.821  63.038  19.137  0.00  0.00     0.156 A 
ATOM     31  N19 GDY d   1      19.638  64.003  19.649  0.00  0.00    -0.309 N 
ATOM     32  C20 GDY d   1      20.519  64.539  18.799  0.00  0.00     0.223 A 
ATOM     33  H14 GDY d   1      19.581  64.292  20.605  0.00  0.00     0.170 HD
ATOM     34  O21 GDY d   1      21.436  65.551  19.099  0.00  0.00    -0.164 OA
ATOM     35  S22 GDY d   1      20.284  63.778  17.304  0.00  0.00    -0.044 SA
BRANCH  30  36
ATOM     36  O18 GDY d   1      17.876  62.438  19.984  0.00  0.00    -0.345 OA
ATOM     37  H15 GDY d   1      18.324  62.017  20.708  0.00  0.00     0.219 HD
ENDBRANCH  30  36
ENDBRANCH  26  29
ENDBRANCH   5  26
TORSDOF 7
