REMARK  17 active torsions:
REMARK  status: ('A' for Active; 'I' for Inactive)
REMARK    1  A    between atoms: C2_2  and  N1_1 
REMARK    2  A    between atoms: S8_8  and  C5_5 
REMARK    3  A    between atoms: N11_11  and  S8_8 
REMARK    4  A    between atoms: N11_11  and  C12_12 
REMARK    5  A    between atoms: C16_16  and  N11_11 
REMARK    6  A    between atoms: C12_12  and  C13_13 
REMARK    7  A    between atoms: C13_13  and  C14_14 
REMARK    8  A    between atoms: C13_13  and  C15_15 
REMARK    9  A    between atoms: C15_15  and  C18_18 
REMARK   10  A    between atoms: C17_17  and  C16_16 
REMARK   11  A    between atoms: C17_17  and  O18_19 
REMARK   12  A    between atoms: C19_20  and  C17_17 
REMARK   13  A    between atoms: C19_20  and  N20_21 
REMARK   14  A    between atoms: C32_33  and  C19_20 
REMARK       I    between atoms: N20_21  and  C21_22 
REMARK   15  A    between atoms: C21_22  and  O23_24 
REMARK   16  A    between atoms: O23_24  and  C24_25 
REMARK   17  A    between atoms: C38_39  and  C32_33 
ROOT
ATOM      1  C17 K13 d   1     122.771  57.587  15.219  0.00  0.00     0.071 C 
ATOM      2  H17 K13 d   1     123.814  57.244  15.153  0.00  0.00     0.088 H 
ENDROOT
BRANCH   1   3
ATOM      3  C16 K13 d   1     121.842  56.464  14.756  0.00  0.00     0.031 C 
ATOM      4  H15 K13 d   1     120.799  56.745  14.966  0.00  0.00     0.069 H 
ATOM      5  H16 K13 d   1     121.969  56.310  13.674  0.00  0.00     0.069 H 
BRANCH   3   6
ATOM      6  N11 K13 d   1     122.157  55.231  15.457  0.00  0.00    -0.304 N 
BRANCH   6   7
ATOM      7  S8  K13 d   1     120.925  54.662  16.494  0.00  0.00     0.260 S 
ATOM      8  O9  K13 d   1     120.277  55.751  17.227  0.00  0.00    -0.200 OA
ATOM      9  O10 K13 d   1     121.452  53.820  17.567  0.00  0.00    -0.200 OA
BRANCH   7  10
ATOM     10  C5  K13 d   1     119.772  53.802  15.405  0.00  0.00     0.079 A 
ATOM     11  C4  K13 d   1     118.636  54.601  14.785  0.00  0.00    -0.058 A 
ATOM     12  C3  K13 d   1     117.661  53.910  13.851  0.00  0.00    -0.056 A 
ATOM     13  H4  K13 d   1     118.524  55.656  15.009  0.00  0.00     0.086 H 
ATOM     14  C2  K13 d   1     117.825  52.435  13.526  0.00  0.00     0.025 A 
ATOM     15  H3  K13 d   1     116.843  54.471  13.413  0.00  0.00     0.086 H 
ATOM     16  C7  K13 d   1     118.971  51.643  14.144  0.00  0.00    -0.056 A 
ATOM     17  C6  K13 d   1     119.954  52.326  15.082  0.00  0.00    -0.058 A 
ATOM     18  H6  K13 d   1     119.086  50.590  13.914  0.00  0.00     0.086 H 
ATOM     19  H5  K13 d   1     120.775  51.767  15.516  0.00  0.00     0.086 H 
BRANCH  14  20
ATOM     20  N1  K13 d   1     116.882  51.795  12.636  0.00  0.00    -0.399 N 
ATOM     21  H1  K13 d   1     116.111  52.340  12.224  0.00  0.00     0.156 HD
ATOM     22  H2  K13 d   1     116.981  50.794  12.414  0.00  0.00     0.156 HD
ENDBRANCH  14  20
ENDBRANCH   7  10
ENDBRANCH   6   7
BRANCH   6  23
ATOM     23  C12 K13 d   1     122.814  54.178  14.696  0.00  0.00     0.008 C 
ATOM     24  H7  K13 d   1     122.313  54.080  13.722  0.00  0.00     0.066 H 
ATOM     25  H8  K13 d   1     122.725  53.232  15.251  0.00  0.00     0.066 H 
BRANCH  23  26
ATOM     26  C13 K13 d   1     124.292  54.471  14.460  0.00  0.00    -0.042 C 
ATOM     27  H9  K13 d   1     124.395  55.441  13.952  0.00  0.00     0.042 H 
BRANCH  26  28
ATOM     28  C14 K13 d   1     125.028  54.532  15.798  0.00  0.00    -0.071 C 
ATOM     29  H10 K13 d   1     126.093  54.743  15.621  0.00  0.00     0.028 H 
ATOM     30  H11 K13 d   1     124.927  53.567  16.316  0.00  0.00     0.028 H 
ATOM     31  H12 K13 d   1     124.594  55.329  16.419  0.00  0.00     0.028 H 
ENDBRANCH  26  28
BRANCH  26  32
ATOM     32  C15 K13 d   1     124.872  53.370  13.564  0.00  0.00    -0.064 C 
ATOM     33  H13 K13 d   1     125.840  53.709  13.167  0.00  0.00     0.033 H 
ATOM     34  H14 K13 d   1     124.177  53.189  12.730  0.00  0.00     0.033 H 
BRANCH  32  35
ATOM     35  C18 K13 d   1     125.083  52.057  14.325  0.00  0.00    -0.076 C 
ATOM     36  H18 K13 d   1     125.499  51.301  13.643  0.00  0.00     0.027 H 
ATOM     37  H19 K13 d   1     124.119  51.704  14.721  0.00  0.00     0.027 H 
ATOM     38  H20 K13 d   1     125.782  52.224  15.158  0.00  0.00     0.027 H 
ENDBRANCH  32  35
ENDBRANCH  26  32
ENDBRANCH  23  26
ENDBRANCH   6  23
ENDBRANCH   3   6
ENDBRANCH   1   3
BRANCH   1  39
ATOM     39  O18 K13 d   1     122.598  58.709  14.397  0.00  0.00    -0.392 OA
ATOM     40  H21 K13 d   1     122.805  58.477  13.499  0.00  0.00     0.210 HD
ENDBRANCH   1  39
BRANCH   1  41
ATOM     41  C19 K13 d   1     122.457  57.968  16.663  0.00  0.00     0.044 C 
ATOM     42  H22 K13 d   1     122.454  57.071  17.299  0.00  0.00     0.077 H 
BRANCH  41  43
ATOM     43  N20 K13 d   1     123.478  58.901  17.083  0.00  0.00    -0.329 N 
ATOM     44  C21 K13 d   1     124.443  58.597  18.114  0.00  0.00     0.361 C 
ATOM     45  O22 K13 d   1     124.427  57.564  18.698  0.00  0.00    -0.238 OA
ATOM     46  H23 K13 d   1     123.518  59.797  16.640  0.00  0.00     0.165 HD
BRANCH  44  47
ATOM     47  O23 K13 d   1     125.387  59.593  18.368  0.00  0.00    -0.296 OA
BRANCH  47  48
ATOM     48  C24 K13 d   1     126.246  59.505  19.595  0.00  0.00     0.078 C 
ATOM     49  C25 K13 d   1     127.399  59.904  19.252  0.00  0.00     0.048 C 
ATOM     50  O26 K13 d   1     127.245  61.539  19.199  0.00  0.00    -0.358 OA
ATOM     51  H25 K13 d   1     127.675  59.504  18.265  0.00  0.00     0.078 H 
ATOM     52  H26 K13 d   1     128.154  59.605  19.994  0.00  0.00     0.078 H 
ATOM     53  C27 K13 d   1     126.442  61.867  20.156  0.00  0.00     0.137 C 
ATOM     54  O28 K13 d   1     125.243  62.759  19.652  0.00  0.00    -0.361 OA
ATOM     55  C31 K13 d   1     125.813  60.557  20.652  0.00  0.00     0.023 C 
ATOM     56  H27 K13 d   1     126.992  62.382  20.957  0.00  0.00     0.129 H 
ATOM     57  C29 K13 d   1     124.177  61.991  19.646  0.00  0.00     0.023 C 
ATOM     58  C30 K13 d   1     124.485  60.761  20.664  0.00  0.00    -0.035 C 
ATOM     59  H28 K13 d   1     123.992  61.607  18.632  0.00  0.00     0.074 H 
ATOM     60  H29 K13 d   1     123.299  62.557  19.990  0.00  0.00     0.074 H 
ATOM     61  H30 K13 d   1     123.962  59.854  20.328  0.00  0.00     0.037 H 
ATOM     62  H31 K13 d   1     124.153  61.021  21.680  0.00  0.00     0.037 H 
ATOM     63  H32 K13 d   1     126.169  60.277  21.654  0.00  0.00     0.051 H 
ATOM     64  H24 K13 d   1     126.250  58.485  20.007  0.00  0.00     0.088 H 
ENDBRANCH  47  48
ENDBRANCH  44  47
ENDBRANCH  41  43
BRANCH  41  65
ATOM     65  C32 K13 d   1     121.116  58.697  16.774  0.00  0.00    -0.020 C 
ATOM     66  H33 K13 d   1     120.304  58.019  16.472  0.00  0.00     0.043 H 
ATOM     67  H34 K13 d   1     121.122  59.578  16.116  0.00  0.00     0.043 H 
BRANCH  65  68
ATOM     68  C38 K13 d   1     120.898  59.142  18.221  0.00  0.00    -0.056 A 
ATOM     69  C33 K13 d   1     120.639  58.099  19.306  0.00  0.00    -0.077 A 
ATOM     70  C34 K13 d   1     120.422  58.534  20.755  0.00  0.00    -0.082 A 
ATOM     71  H35 K13 d   1     120.609  57.047  19.048  0.00  0.00     0.084 H 
ATOM     72  C35 K13 d   1     120.463  60.015  21.120  0.00  0.00    -0.083 A 
ATOM     73  H36 K13 d   1     120.239  57.791  21.523  0.00  0.00     0.083 H 
ATOM     74  C36 K13 d   1     120.719  61.062  20.039  0.00  0.00    -0.082 A 
ATOM     75  H37 K13 d   1     120.310  60.324  22.148  0.00  0.00     0.083 H 
ATOM     76  C37 K13 d   1     120.937  60.624  18.590  0.00  0.00    -0.077 A 
ATOM     77  H38 K13 d   1     120.746  62.114  20.298  0.00  0.00     0.083 H 
ATOM     78  H39 K13 d   1     121.120  61.367  17.823  0.00  0.00     0.084 H 
ENDBRANCH  65  68
ENDBRANCH  41  65
ENDBRANCH   1  41
TORSDOF 17
