REMARK  18 active torsions:
REMARK  status: ('A' for Active; 'I' for Inactive)
REMARK    1  A    between atoms: C2_2  and  N1_1 
REMARK    2  A    between atoms: S8_8  and  C5_5 
REMARK    3  A    between atoms: N11_11  and  S8_8 
REMARK    4  A    between atoms: N11_11  and  C12_12 
REMARK    5  A    between atoms: C16_16  and  N11_11 
REMARK    6  A    between atoms: C12_12  and  C13_13 
REMARK    7  A    between atoms: C13_13  and  C14_14 
REMARK    8  A    between atoms: C13_13  and  C15_15 
REMARK    9  A    between atoms: C14_14  and  C20_21 
REMARK   10  A    between atoms: C15_15  and  C18_18 
REMARK   11  A    between atoms: C17_17  and  C16_16 
REMARK   12  A    between atoms: C17_17  and  O18_19 
REMARK   13  A    between atoms: C19_20  and  C17_17 
REMARK   14  A    between atoms: C19_20  and  N20_22 
REMARK   15  A    between atoms: C32_34  and  C19_20 
REMARK       I    between atoms: N20_22  and  C21_23 
REMARK   16  A    between atoms: C21_23  and  O23_25 
REMARK   17  A    between atoms: O23_25  and  C24_26 
REMARK   18  A    between atoms: C38_40  and  C32_34 
ROOT
ATOM      1  C19 A60 d   1     122.409  57.808  16.652  0.00  0.00     0.041 C 
ATOM      2  H21 A60 d   1     122.404  56.904  17.278  0.00  0.00     0.076 H 
ENDROOT
BRANCH   1   3
ATOM      3  C17 A60 d   1     122.755  57.450  15.214  0.00  0.00     0.071 C 
ATOM      4  H16 A60 d   1     123.780  57.053  15.178  0.00  0.00     0.088 H 
BRANCH   3   5
ATOM      5  C16 A60 d   1     121.767  56.359  14.694  0.00  0.00     0.031 C 
ATOM      6  H14 A60 d   1     120.732  56.670  14.901  0.00  0.00     0.069 H 
ATOM      7  H15 A60 d   1     121.900  56.227  13.610  0.00  0.00     0.069 H 
BRANCH   5   8
ATOM      8  N11 A60 d   1     122.054  55.065  15.397  0.00  0.00    -0.304 N 
BRANCH   8   9
ATOM      9  S8  A60 d   1     120.828  54.499  16.441  0.00  0.00     0.260 S 
ATOM     10  O9  A60 d   1     120.168  55.586  17.136  0.00  0.00    -0.200 OA
ATOM     11  O10 A60 d   1     121.373  53.673  17.494  0.00  0.00    -0.200 OA
BRANCH   9  12
ATOM     12  C5  A60 d   1     119.680  53.601  15.355  0.00  0.00     0.079 A 
ATOM     13  C4  A60 d   1     119.893  52.111  15.037  0.00  0.00    -0.058 A 
ATOM     14  C3  A60 d   1     118.911  51.420  14.103  0.00  0.00    -0.056 A 
ATOM     15  H4  A60 d   1     120.724  51.566  15.469  0.00  0.00     0.086 H 
ATOM     16  C2  A60 d   1     117.738  52.224  13.491  0.00  0.00     0.025 A 
ATOM     17  H3  A60 d   1     119.032  50.369  13.867  0.00  0.00     0.086 H 
ATOM     18  C7  A60 d   1     117.556  53.695  13.813  0.00  0.00    -0.056 A 
ATOM     19  C6  A60 d   1     118.537  54.400  14.747  0.00  0.00    -0.058 A 
ATOM     20  H6  A60 d   1     116.729  54.246  13.380  0.00  0.00     0.086 H 
ATOM     21  H5  A60 d   1     118.421  55.454  14.973  0.00  0.00     0.086 H 
BRANCH  16  22
ATOM     22  N1  A60 d   1     116.802  51.587  12.606  0.00  0.00    -0.399 N 
ATOM     23  H1  A60 d   1     116.909  50.589  12.375  0.00  0.00     0.156 HD
ATOM     24  H2  A60 d   1     116.024  52.129  12.202  0.00  0.00     0.156 HD
ENDBRANCH  16  22
ENDBRANCH   9  12
ENDBRANCH   8   9
BRANCH   8  25
ATOM     25  C12 A60 d   1     122.749  54.014  14.651  0.00  0.00     0.009 C 
ATOM     26  H7  A60 d   1     122.368  53.991  13.619  0.00  0.00     0.066 H 
ATOM     27  H8  A60 d   1     122.560  53.044  15.133  0.00  0.00     0.066 H 
BRANCH  25  28
ATOM     28  C13 A60 d   1     124.318  54.288  14.624  0.00  0.00    -0.039 C 
ATOM     29  H9  A60 d   1     124.499  55.300  14.233  0.00  0.00     0.042 H 
BRANCH  28  30
ATOM     30  C14 A60 d   1     124.987  53.265  13.647  0.00  0.00    -0.064 C 
ATOM     31  H10 A60 d   1     126.045  53.540  13.523  0.00  0.00     0.033 H 
ATOM     32  H11 A60 d   1     124.476  53.324  12.675  0.00  0.00     0.033 H 
BRANCH  30  33
ATOM     33  C20 A60 d   1     124.914  51.803  14.155  0.00  0.00    -0.076 C 
ATOM     34  H22 A60 d   1     125.400  51.137  13.427  0.00  0.00     0.027 H 
ATOM     35  H23 A60 d   1     123.861  51.509  14.276  0.00  0.00     0.027 H 
ATOM     36  H24 A60 d   1     125.430  51.725  15.123  0.00  0.00     0.027 H 
ENDBRANCH  30  33
ENDBRANCH  28  30
BRANCH  28  37
ATOM     37  C15 A60 d   1     124.865  54.231  16.069  0.00  0.00    -0.064 C 
ATOM     38  H12 A60 d   1     124.715  53.219  16.473  0.00  0.00     0.033 H 
ATOM     39  H13 A60 d   1     124.322  54.958  16.690  0.00  0.00     0.033 H 
BRANCH  37  40
ATOM     40  C18 A60 d   1     126.385  54.572  16.093  0.00  0.00    -0.076 C 
ATOM     41  H17 A60 d   1     126.755  54.526  17.128  0.00  0.00     0.027 H 
ATOM     42  H18 A60 d   1     126.540  55.585  15.693  0.00  0.00     0.027 H 
ATOM     43  H19 A60 d   1     126.933  53.846  15.475  0.00  0.00     0.027 H 
ENDBRANCH  37  40
ENDBRANCH  28  37
ENDBRANCH  25  28
ENDBRANCH   8  25
ENDBRANCH   5   8
ENDBRANCH   3   5
BRANCH   3  44
ATOM     44  O18 A60 d   1     122.681  58.580  14.417  0.00  0.00    -0.392 OA
ATOM     45  H20 A60 d   1     122.910  58.352  13.524  0.00  0.00     0.210 HD
ENDBRANCH   3  44
ENDBRANCH   1   3
BRANCH   1  46
ATOM     46  N20 A60 d   1     123.447  58.748  17.086  0.00  0.00    -0.330 N 
ATOM     47  C21 A60 d   1     124.458  58.374  18.099  0.00  0.00     0.361 C 
ATOM     48  O22 A60 d   1     124.462  57.304  18.620  0.00  0.00    -0.238 OA
ATOM     49  H25 A60 d   1     123.472  59.665  16.687  0.00  0.00     0.165 HD
BRANCH  47  50
ATOM     50  O23 A60 d   1     125.408  59.401  18.371  0.00  0.00    -0.296 OA
BRANCH  50  51
ATOM     51  C24 A60 d   1     126.293  59.287  19.579  0.00  0.00     0.078 C 
ATOM     52  C25 A60 d   1     127.446  59.696  19.232  0.00  0.00     0.048 C 
ATOM     53  O26 A60 d   1     127.253  61.325  19.145  0.00  0.00    -0.358 OA
ATOM     54  H27 A60 d   1     127.735  59.280  18.256  0.00  0.00     0.078 H 
ATOM     55  H28 A60 d   1     128.203  59.428  19.984  0.00  0.00     0.078 H 
ATOM     56  C27 A60 d   1     126.441  61.646  20.111  0.00  0.00     0.137 C 
ATOM     57  O28 A60 d   1     125.223  62.498  19.597  0.00  0.00    -0.361 OA
ATOM     58  C31 A60 d   1     125.829  60.334  20.634  0.00  0.00     0.023 C 
ATOM     59  H29 A60 d   1     126.983  62.184  20.902  0.00  0.00     0.129 H 
ATOM     60  C29 A60 d   1     124.168  61.710  19.590  0.00  0.00     0.023 C 
ATOM     61  C30 A60 d   1     124.488  60.516  20.641  0.00  0.00    -0.035 C 
ATOM     62  H30 A60 d   1     124.006  61.298  18.583  0.00  0.00     0.074 H 
ATOM     63  H31 A60 d   1     123.274  62.267  19.906  0.00  0.00     0.074 H 
ATOM     64  H32 A60 d   1     123.979  59.592  20.330  0.00  0.00     0.037 H 
ATOM     65  H33 A60 d   1     124.150  60.799  21.649  0.00  0.00     0.037 H 
ATOM     66  H34 A60 d   1     126.188  60.072  21.640  0.00  0.00     0.051 H 
ATOM     67  H26 A60 d   1     126.307  58.263  19.981  0.00  0.00     0.088 H 
ENDBRANCH  50  51
ENDBRANCH  47  50
ENDBRANCH   1  46
BRANCH   1  68
ATOM     68  C32 A60 d   1     121.079  58.516  16.762  0.00  0.00    -0.040 C 
ATOM     69  H35 A60 d   1     120.269  57.830  16.474  0.00  0.00     0.036 H 
ATOM     70  H36 A60 d   1     121.070  59.394  16.099  0.00  0.00     0.036 H 
BRANCH  68  71
ATOM     71  C38 A60 d   1     120.883  58.970  18.236  0.00  0.00    -0.052 A 
ATOM     72  C33 A60 d   1     120.568  57.926  19.318  0.00  0.00    -0.062 A 
ATOM     73  C34 A60 d   1     120.380  58.368  20.784  0.00  0.00    -0.065 A 
ATOM     74  H37 A60 d   1     119.636  57.426  19.015  0.00  0.00     0.033 H 
ATOM     75  H38 A60 d   1     121.394  57.200  19.309  0.00  0.00     0.033 H 
ATOM     76  C35 A60 d   1     120.505  59.864  21.165  0.00  0.00    -0.065 A 
ATOM     77  H39 A60 d   1     121.130  57.826  21.378  0.00  0.00     0.033 H 
ATOM     78  H40 A60 d   1     119.372  58.047  21.085  0.00  0.00     0.033 H 
ATOM     79  C36 A60 d   1     120.813  60.905  20.081  0.00  0.00    -0.065 A 
ATOM     80  H41 A60 d   1     121.309  59.936  21.913  0.00  0.00     0.033 H 
ATOM     81  H42 A60 d   1     119.549  60.156  21.625  0.00  0.00     0.033 H 
ATOM     82  C37 A60 d   1     121.004  60.462  18.617  0.00  0.00    -0.062 A 
ATOM     83  H43 A60 d   1     121.741  61.412  20.383  0.00  0.00     0.033 H 
ATOM     84  H44 A60 d   1     119.982  61.626  20.088  0.00  0.00     0.033 H 
ATOM     85  H45 A60 d   1     122.012  60.785  18.317  0.00  0.00     0.033 H 
ATOM     86  H46 A60 d   1     120.254  61.003  18.022  0.00  0.00     0.033 H 
ATOM     87  H47 A60 d   1     119.807  59.106  18.051  0.00  0.00     0.040 H 
ENDBRANCH  68  71
ENDBRANCH   1  68
TORSDOF 18
