REMARK  16 active torsions:
REMARK  status: ('A' for Active; 'I' for Inactive)
REMARK    1  A    between atoms: C2_2  and  N1_1 
REMARK    2  A    between atoms: S8_8  and  C5_5 
REMARK    3  A    between atoms: N11_11  and  S8_8 
REMARK    4  A    between atoms: N11_11  and  C12_12 
REMARK    5  A    between atoms: C16_16  and  N11_11 
REMARK    6  A    between atoms: C12_12  and  C13_13 
REMARK    7  A    between atoms: C13_13  and  C14_14 
REMARK    8  A    between atoms: C13_13  and  C15_15 
REMARK    9  A    between atoms: C17_17  and  C16_16 
REMARK   10  A    between atoms: C17_17  and  O18_18 
REMARK   11  A    between atoms: C19_19  and  C17_17 
REMARK   12  A    between atoms: C19_19  and  N20_20 
REMARK   13  A    between atoms: C32_32  and  C19_19 
REMARK       I    between atoms: N20_20  and  C21_21 
REMARK   14  A    between atoms: C21_21  and  O23_23 
REMARK   15  A    between atoms: O23_23  and  C24_24 
REMARK   16  A    between atoms: C38_38  and  C32_32 
ROOT
ATOM      1  C19 017 d   1      70.859  58.078  16.618  0.00  0.00     0.044 C 
ATOM      2  H20 017 d   1      70.878  57.169  17.238  0.00  0.00     0.077 H 
ENDROOT
BRANCH   1   3
ATOM      3  C17 017 d   1      71.223  57.716  15.163  0.00  0.00     0.071 C 
ATOM      4  H18 017 d   1      72.260  57.349  15.144  0.00  0.00     0.088 H 
BRANCH   3   5
ATOM      5  C16 017 d   1      70.277  56.603  14.619  0.00  0.00     0.031 C 
ATOM      6  H16 017 d   1      69.231  56.891  14.801  0.00  0.00     0.069 H 
ATOM      7  H17 017 d   1      70.441  56.480  13.538  0.00  0.00     0.069 H 
BRANCH   5   8
ATOM      8  N11 017 d   1      70.573  55.272  15.336  0.00  0.00    -0.304 N 
BRANCH   8   9
ATOM      9  S8  017 d   1      69.290  54.694  16.336  0.00  0.00     0.260 S 
ATOM     10  O9  017 d   1      69.786  53.881  17.425  0.00  0.00    -0.200 OA
ATOM     11  O10 017 d   1      68.587  55.815  17.012  0.00  0.00    -0.200 OA
BRANCH   9  12
ATOM     12  C5  017 d   1      68.128  53.821  15.221  0.00  0.00     0.079 A 
ATOM     13  C4  017 d   1      68.336  52.482  14.886  0.00  0.00    -0.058 A 
ATOM     14  C3  017 d   1      67.456  51.852  14.038  0.00  0.00    -0.056 A 
ATOM     15  H4  017 d   1      69.185  51.943  15.291  0.00  0.00     0.086 H 
ATOM     16  C2  017 d   1      66.383  52.549  13.518  0.00  0.00     0.025 A 
ATOM     17  H3  017 d   1      67.604  50.810  13.778  0.00  0.00     0.086 H 
ATOM     18  C7  017 d   1      66.183  53.877  13.848  0.00  0.00    -0.056 A 
ATOM     19  C6  017 d   1      67.074  54.515  14.706  0.00  0.00    -0.058 A 
ATOM     20  H6  017 d   1      65.337  54.418  13.441  0.00  0.00     0.086 H 
ATOM     21  H5  017 d   1      66.930  55.558  14.963  0.00  0.00     0.086 H 
BRANCH  16  22
ATOM     22  N1  017 d   1      65.431  51.859  12.596  0.00  0.00    -0.399 N 
ATOM     23  H1  017 d   1      65.579  50.870  12.349  0.00  0.00     0.156 HD
ATOM     24  H2  017 d   1      64.627  52.372  12.207  0.00  0.00     0.156 HD
ENDBRANCH  16  22
ENDBRANCH   9  12
ENDBRANCH   8   9
BRANCH   8  25
ATOM     25  C12 017 d   1      71.358  54.249  14.614  0.00  0.00     0.008 C 
ATOM     26  H7  017 d   1      70.981  54.169  13.584  0.00  0.00     0.066 H 
ATOM     27  H8  017 d   1      71.240  53.281  15.123  0.00  0.00     0.066 H 
BRANCH  25  28
ATOM     28  C13 017 d   1      72.845  54.613  14.574  0.00  0.00    -0.045 C 
ATOM     29  H9  017 d   1      72.939  55.612  14.123  0.00  0.00     0.041 H 
BRANCH  28  30
ATOM     30  C14 017 d   1      73.444  54.689  16.020  0.00  0.00    -0.072 C 
ATOM     31  H10 017 d   1      74.511  54.952  15.962  0.00  0.00     0.028 H 
ATOM     32  H11 017 d   1      73.333  53.713  16.515  0.00  0.00     0.028 H 
ATOM     33  H12 017 d   1      72.909  55.456  16.599  0.00  0.00     0.028 H 
ENDBRANCH  28  30
BRANCH  28  34
ATOM     34  C15 017 d   1      73.611  53.615  13.672  0.00  0.00    -0.072 C 
ATOM     35  H13 017 d   1      73.153  53.599  12.672  0.00  0.00     0.028 H 
ATOM     36  H14 017 d   1      73.562  52.609  14.114  0.00  0.00     0.028 H 
ATOM     37  H15 017 d   1      74.662  53.928  13.589  0.00  0.00     0.028 H 
ENDBRANCH  28  34
ENDBRANCH  25  28
ENDBRANCH   8  25
ENDBRANCH   5   8
ENDBRANCH   3   5
BRANCH   3  38
ATOM     38  O18 017 d   1      71.119  58.811  14.331  0.00  0.00    -0.392 OA
ATOM     39  H19 017 d   1      71.376  58.564  13.450  0.00  0.00     0.210 HD
ENDBRANCH   3  38
ENDBRANCH   1   3
BRANCH   1  40
ATOM     40  N20 017 d   1      71.824  59.039  17.086  0.00  0.00    -0.329 N 
ATOM     41  C21 017 d   1      72.847  58.694  18.073  0.00  0.00     0.361 C 
ATOM     42  O22 017 d   1      72.858  57.639  18.634  0.00  0.00    -0.238 OA
ATOM     43  H21 017 d   1      71.794  59.971  16.725  0.00  0.00     0.165 HD
BRANCH  41  44
ATOM     44  O23 017 d   1      73.786  59.695  18.315  0.00  0.00    -0.296 OA
BRANCH  44  45
ATOM     45  C24 017 d   1      74.500  59.665  19.534  0.00  0.00     0.078 C 
ATOM     46  C25 017 d   1      75.981  60.318  19.194  0.00  0.00     0.048 C 
ATOM     47  O26 017 d   1      75.719  61.620  19.036  0.00  0.00    -0.358 OA
ATOM     48  H23 017 d   1      76.399  59.886  18.273  0.00  0.00     0.078 H 
ATOM     49  H24 017 d   1      76.682  60.156  20.026  0.00  0.00     0.078 H 
ATOM     50  C27 017 d   1      74.618  61.919  20.117  0.00  0.00     0.137 C 
ATOM     51  O28 017 d   1      73.696  62.626  19.641  0.00  0.00    -0.361 OA
ATOM     52  C31 017 d   1      74.007  60.495  20.473  0.00  0.00     0.023 C 
ATOM     53  H25 017 d   1      75.056  62.406  21.001  0.00  0.00     0.129 H 
ATOM     54  C29 017 d   1      72.320  61.749  19.661  0.00  0.00     0.023 C 
ATOM     55  C30 017 d   1      72.524  60.713  20.446  0.00  0.00    -0.035 C 
ATOM     56  H26 017 d   1      72.077  61.408  18.644  0.00  0.00     0.074 H 
ATOM     57  H27 017 d   1      71.492  62.358  20.051  0.00  0.00     0.074 H 
ATOM     58  H28 017 d   1      72.015  59.824  20.045  0.00  0.00     0.037 H 
ATOM     59  H29 017 d   1      72.151  60.923  21.459  0.00  0.00     0.037 H 
ATOM     60  H30 017 d   1      74.314  60.150  21.471  0.00  0.00     0.051 H 
ATOM     61  H22 017 d   1      74.568  58.636  19.916  0.00  0.00     0.088 H 
ENDBRANCH  44  45
ENDBRANCH  41  44
ENDBRANCH   1  40
BRANCH   1  62
ATOM     62  C32 017 d   1      69.499  58.757  16.739  0.00  0.00    -0.020 C 
ATOM     63  H31 017 d   1      68.715  58.031  16.477  0.00  0.00     0.043 H 
ATOM     64  H32 017 d   1      69.462  59.606  16.040  0.00  0.00     0.043 H 
BRANCH  62  65
ATOM     65  C38 017 d   1      69.240  59.274  18.160  0.00  0.00    -0.056 A 
ATOM     66  C33 017 d   1      68.923  58.391  19.165  0.00  0.00    -0.077 A 
ATOM     67  C34 017 d   1      68.688  58.856  20.471  0.00  0.00    -0.082 A 
ATOM     68  H33 017 d   1      68.854  57.331  18.950  0.00  0.00     0.084 H 
ATOM     69  C35 017 d   1      68.770  60.232  20.756  0.00  0.00    -0.083 A 
ATOM     70  H34 017 d   1      68.443  58.154  21.260  0.00  0.00     0.083 H 
ATOM     71  C36 017 d   1      69.086  61.121  19.752  0.00  0.00    -0.082 A 
ATOM     72  H35 017 d   1      68.585  60.591  21.762  0.00  0.00     0.083 H 
ATOM     73  C37 017 d   1      69.325  60.659  18.449  0.00  0.00    -0.077 A 
ATOM     74  H36 017 d   1      69.150  62.181  19.970  0.00  0.00     0.083 H 
ATOM     75  H37 017 d   1      69.575  61.362  17.663  0.00  0.00     0.084 H 
ENDBRANCH  62  65
ENDBRANCH   1  62
TORSDOF 16
