REMARK  17 active torsions:
REMARK  status: ('A' for Active; 'I' for Inactive)
REMARK    1  A    between atoms: C2_2  and  N1_1 
REMARK    2  A    between atoms: S8_8  and  C5_5 
REMARK    3  A    between atoms: N11_11  and  S8_8 
REMARK    4  A    between atoms: N11_11  and  C12_12 
REMARK    5  A    between atoms: C16_16  and  N11_11 
REMARK    6  A    between atoms: C12_12  and  C13_13 
REMARK    7  A    between atoms: C13_13  and  C14_14 
REMARK    8  A    between atoms: C13_13  and  C15_15 
REMARK    9  A    between atoms: C15_15  and  C18_18 
REMARK   10  A    between atoms: C17_17  and  C16_16 
REMARK   11  A    between atoms: C17_17  and  O18_19 
REMARK   12  A    between atoms: C19_20  and  C17_17 
REMARK   13  A    between atoms: C19_20  and  N20_21 
REMARK   14  A    between atoms: C32_33  and  C19_20 
REMARK       I    between atoms: N20_21  and  C21_22 
REMARK   15  A    between atoms: C21_22  and  O23_24 
REMARK   16  A    between atoms: O23_24  and  C24_25 
REMARK   17  A    between atoms: C38_39  and  C32_33 
ROOT
ATOM      1  C17 K13 d   1      71.135  57.528  15.285  0.00  0.00     0.071 C 
ATOM      2  H17 K13 d   1      72.171  57.159  15.287  0.00  0.00     0.088 H 
ENDROOT
BRANCH   1   3
ATOM      3  C16 K13 d   1      70.204  56.419  14.807  0.00  0.00     0.031 C 
ATOM      4  H15 K13 d   1      69.160  56.719  14.980  0.00  0.00     0.069 H 
ATOM      5  H16 K13 d   1      70.363  56.247  13.732  0.00  0.00     0.069 H 
BRANCH   3   6
ATOM      6  N11 K13 d   1      70.481  55.192  15.539  0.00  0.00    -0.304 N 
BRANCH   6   7
ATOM      7  S8  K13 d   1      69.194  54.633  16.481  0.00  0.00     0.260 S 
ATOM      8  O9  K13 d   1      68.488  55.778  17.105  0.00  0.00    -0.200 OA
ATOM      9  O10 K13 d   1      69.669  53.771  17.556  0.00  0.00    -0.200 OA
BRANCH   7  10
ATOM     10  C5  K13 d   1      68.099  53.750  15.393  0.00  0.00     0.079 A 
ATOM     11  C4  K13 d   1      68.372  52.306  15.018  0.00  0.00    -0.058 A 
ATOM     12  C3  K13 d   1      67.438  51.601  14.074  0.00  0.00    -0.056 A 
ATOM     13  H4  K13 d   1      69.232  51.788  15.427  0.00  0.00     0.086 H 
ATOM     14  C2  K13 d   1      66.258  52.361  13.501  0.00  0.00     0.025 A 
ATOM     15  H3  K13 d   1      67.606  50.564  13.807  0.00  0.00     0.086 H 
ATOM     16  C7  K13 d   1      66.007  53.789  13.881  0.00  0.00    -0.056 A 
ATOM     17  C6  K13 d   1      66.936  54.506  14.830  0.00  0.00    -0.058 A 
ATOM     18  H6  K13 d   1      65.150  54.312  13.470  0.00  0.00     0.086 H 
ATOM     19  H5  K13 d   1      66.765  55.543  15.097  0.00  0.00     0.086 H 
BRANCH  14  20
ATOM     20  N1  K13 d   1      65.344  51.716  12.597  0.00  0.00    -0.399 N 
ATOM     21  H1  K13 d   1      65.497  50.735  12.322  0.00  0.00     0.156 HD
ATOM     22  H2  K13 d   1      64.536  52.235  12.224  0.00  0.00     0.156 HD
ENDBRANCH  14  20
ENDBRANCH   7  10
ENDBRANCH   6   7
BRANCH   6  23
ATOM     23  C12 K13 d   1      71.218  54.133  14.887  0.00  0.00     0.008 C 
ATOM     24  H7  K13 d   1      70.752  53.919  13.914  0.00  0.00     0.066 H 
ATOM     25  H8  K13 d   1      71.182  53.232  15.517  0.00  0.00     0.066 H 
BRANCH  23  26
ATOM     26  C13 K13 d   1      72.677  54.525  14.664  0.00  0.00    -0.042 C 
ATOM     27  H9  K13 d   1      72.716  55.549  14.264  0.00  0.00     0.042 H 
BRANCH  26  28
ATOM     28  C14 K13 d   1      73.431  54.484  15.994  0.00  0.00    -0.071 C 
ATOM     29  H10 K13 d   1      74.481  54.767  15.829  0.00  0.00     0.028 H 
ATOM     30  H11 K13 d   1      73.386  53.467  16.410  0.00  0.00     0.028 H 
ATOM     31  H12 K13 d   1      72.968  55.189  16.700  0.00  0.00     0.028 H 
ENDBRANCH  26  28
BRANCH  26  32
ATOM     32  C15 K13 d   1      73.321  53.575  13.652  0.00  0.00    -0.064 C 
ATOM     33  H13 K13 d   1      74.327  53.946  13.404  0.00  0.00     0.033 H 
ATOM     34  H14 K13 d   1      72.704  53.551  12.742  0.00  0.00     0.033 H 
BRANCH  32  35
ATOM     35  C18 K13 d   1      73.438  52.158  14.209  0.00  0.00    -0.076 C 
ATOM     36  H18 K13 d   1      73.904  51.505  13.456  0.00  0.00     0.027 H 
ATOM     37  H19 K13 d   1      72.436  51.777  14.455  0.00  0.00     0.027 H 
ATOM     38  H20 K13 d   1      74.058  52.171  15.117  0.00  0.00     0.027 H 
ENDBRANCH  32  35
ENDBRANCH  26  32
ENDBRANCH  23  26
ENDBRANCH   6  23
ENDBRANCH   3   6
ENDBRANCH   1   3
BRANCH   1  39
ATOM     39  O18 K13 d   1      71.032  58.602  14.396  0.00  0.00    -0.392 OA
ATOM     40  H21 K13 d   1      71.285  58.317  13.526  0.00  0.00     0.210 HD
ENDBRANCH   1  39
BRANCH   1  41
ATOM     41  C19 K13 d   1      70.760  57.948  16.700  0.00  0.00     0.044 C 
ATOM     42  H22 K13 d   1      70.713  57.070  17.360  0.00  0.00     0.077 H 
BRANCH  41  43
ATOM     43  N20 K13 d   1      71.758  58.881  17.134  0.00  0.00    -0.329 N 
ATOM     44  C21 K13 d   1      72.742  58.528  18.108  0.00  0.00     0.361 C 
ATOM     45  O22 K13 d   1      72.715  57.468  18.674  0.00  0.00    -0.238 OA
ATOM     46  H23 K13 d   1      71.766  59.802  16.745  0.00  0.00     0.165 HD
BRANCH  44  47
ATOM     47  O23 K13 d   1      73.706  59.527  18.302  0.00  0.00    -0.296 OA
BRANCH  47  48
ATOM     48  C24 K13 d   1      74.594  59.472  19.500  0.00  0.00     0.078 C 
ATOM     49  C25 K13 d   1      75.746  59.956  19.183  0.00  0.00     0.048 C 
ATOM     50  O26 K13 d   1      75.584  61.569  19.293  0.00  0.00    -0.358 OA
ATOM     51  H25 K13 d   1      76.016  59.666  18.157  0.00  0.00     0.078 H 
ATOM     52  H26 K13 d   1      76.518  59.599  19.880  0.00  0.00     0.078 H 
ATOM     53  C27 K13 d   1      74.712  61.778  20.226  0.00  0.00     0.137 C 
ATOM     54  O28 K13 d   1      73.537  62.645  19.692  0.00  0.00    -0.361 OA
ATOM     55  C31 K13 d   1      74.065  60.426  20.593  0.00  0.00     0.023 C 
ATOM     56  H27 K13 d   1      75.188  62.249  21.098  0.00  0.00     0.129 H 
ATOM     57  C29 K13 d   1      72.477  61.873  19.591  0.00  0.00     0.023 C 
ATOM     58  C30 K13 d   1      72.730  60.621  20.566  0.00  0.00    -0.035 C 
ATOM     59  H28 K13 d   1      72.355  61.528  18.553  0.00  0.00     0.074 H 
ATOM     60  H29 K13 d   1      71.576  62.422  19.903  0.00  0.00     0.074 H 
ATOM     61  H30 K13 d   1      72.222  59.726  20.177  0.00  0.00     0.037 H 
ATOM     62  H31 K13 d   1      72.357  60.844  21.577  0.00  0.00     0.037 H 
ATOM     63  H32 K13 d   1      74.371  60.077  21.590  0.00  0.00     0.051 H 
ATOM     64  H24 K13 d   1      74.676  58.440  19.873  0.00  0.00     0.088 H 
ENDBRANCH  47  48
ENDBRANCH  44  47
ENDBRANCH  41  43
BRANCH  41  65
ATOM     65  C32 K13 d   1      69.440  58.711  16.728  0.00  0.00    -0.020 C 
ATOM     66  H33 K13 d   1      68.616  58.044  16.436  0.00  0.00     0.043 H 
ATOM     67  H34 K13 d   1      69.486  59.563  16.034  0.00  0.00     0.043 H 
BRANCH  65  68
ATOM     68  C38 K13 d   1      69.221  59.212  18.149  0.00  0.00    -0.056 A 
ATOM     69  C33 K13 d   1      68.862  58.249  19.271  0.00  0.00    -0.077 A 
ATOM     70  C34 K13 d   1      68.650  58.778  20.679  0.00  0.00    -0.082 A 
ATOM     71  H35 K13 d   1      68.758  57.190  19.066  0.00  0.00     0.084 H 
ATOM     72  C35 K13 d   1      68.770  60.270  20.959  0.00  0.00    -0.083 A 
ATOM     73  H36 K13 d   1      68.413  58.093  21.485  0.00  0.00     0.083 H 
ATOM     74  C36 K13 d   1      69.115  61.232  19.836  0.00  0.00    -0.082 A 
ATOM     75  H37 K13 d   1      68.609  60.646  21.963  0.00  0.00     0.083 H 
ATOM     76  C37 K13 d   1      69.335  60.703  18.430  0.00  0.00    -0.077 A 
ATOM     77  H38 K13 d   1      69.204  62.293  20.038  0.00  0.00     0.083 H 
ATOM     78  H39 K13 d   1      69.574  61.389  17.625  0.00  0.00     0.084 H 
ENDBRANCH  65  68
ENDBRANCH  41  65
ENDBRANCH   1  41
TORSDOF 17
