REMARK  18 active torsions:
REMARK  status: ('A' for Active; 'I' for Inactive)
REMARK    1  A    between atoms: C2_2  and  N1_1 
REMARK    2  A    between atoms: S8_8  and  C5_5 
REMARK    3  A    between atoms: N11_11  and  S8_8 
REMARK    4  A    between atoms: N11_11  and  C12_12 
REMARK    5  A    between atoms: C16_16  and  N11_11 
REMARK    6  A    between atoms: C12_12  and  C13_13 
REMARK    7  A    between atoms: C13_13  and  C14_14 
REMARK    8  A    between atoms: C13_13  and  C15_15 
REMARK    9  A    between atoms: C14_14  and  C20_21 
REMARK   10  A    between atoms: C15_15  and  C18_18 
REMARK   11  A    between atoms: C17_17  and  C16_16 
REMARK   12  A    between atoms: C17_17  and  O18_19 
REMARK   13  A    between atoms: C19_20  and  C17_17 
REMARK   14  A    between atoms: C19_20  and  N20_22 
REMARK   15  A    between atoms: C32_34  and  C19_20 
REMARK       I    between atoms: N20_22  and  C21_23 
REMARK   16  A    between atoms: C21_23  and  O23_25 
REMARK   17  A    between atoms: O23_25  and  C24_26 
REMARK   18  A    between atoms: C38_40  and  C32_34 
ROOT
ATOM      1  C19 A60 d   1      71.601 114.225  16.808  0.00  0.00     0.041 C 
ATOM      2  H21 A60 d   1      71.511 113.394  17.523  0.00  0.00     0.076 H 
ENDROOT
BRANCH   1   3
ATOM      3  C17 A60 d   1      72.019 113.682  15.442  0.00  0.00     0.071 C 
ATOM      4  H16 A60 d   1      73.049 113.301  15.502  0.00  0.00     0.088 H 
BRANCH   3   5
ATOM      5  C16 A60 d   1      71.060 112.516  15.023  0.00  0.00     0.031 C 
ATOM      6  H14 A60 d   1      70.020 112.875  15.037  0.00  0.00     0.069 H 
ATOM      7  H15 A60 d   1      71.317 112.178  14.008  0.00  0.00     0.069 H 
BRANCH   5   8
ATOM      8  N11 A60 d   1      71.206 111.373  15.981  0.00  0.00    -0.304 N 
BRANCH   8   9
ATOM      9  S8  A60 d   1      69.840 111.042  16.954  0.00  0.00     0.260 S 
ATOM     10  O9  A60 d   1      69.220 112.258  17.465  0.00  0.00    -0.200 OA
ATOM     11  O10 A60 d   1      70.239 110.273  18.120  0.00  0.00    -0.200 OA
BRANCH   9  12
ATOM     12  C5  A60 d   1      68.716 110.096  15.857  0.00  0.00     0.079 A 
ATOM     13  C4  A60 d   1      67.573 110.828  15.142  0.00  0.00    -0.058 A 
ATOM     14  C3  A60 d   1      66.647 110.053  14.216  0.00  0.00    -0.056 A 
ATOM     15  H4  A60 d   1      67.426 111.891  15.296  0.00  0.00     0.086 H 
ATOM     16  C2  A60 d   1      66.878 108.535  13.995  0.00  0.00     0.025 A 
ATOM     17  H3  A60 d   1      65.831 110.559  13.714  0.00  0.00     0.086 H 
ATOM     18  C7  A60 d   1      68.018 107.813  14.705  0.00  0.00    -0.056 A 
ATOM     19  C6  A60 d   1      68.952 108.594  15.641  0.00  0.00    -0.058 A 
ATOM     20  H6  A60 d   1      68.169 106.751  14.549  0.00  0.00     0.086 H 
ATOM     21  H5  A60 d   1      69.769 108.090  16.144  0.00  0.00     0.086 H 
BRANCH  16  22
ATOM     22  N1  A60 d   1      66.004 107.801  13.121  0.00  0.00    -0.399 N 
ATOM     23  H1  A60 d   1      65.233 108.284  12.639  0.00  0.00     0.156 HD
ATOM     24  H2  A60 d   1      66.149 106.792  12.976  0.00  0.00     0.156 HD
ENDBRANCH  16  22
ENDBRANCH   9  12
ENDBRANCH   8   9
BRANCH   8  25
ATOM     25  C12 A60 d   1      71.930 110.184  15.524  0.00  0.00     0.009 C 
ATOM     26  H7  A60 d   1      71.608 109.939  14.501  0.00  0.00     0.066 H 
ATOM     27  H8  A60 d   1      71.698 109.343  16.194  0.00  0.00     0.066 H 
BRANCH  25  28
ATOM     28  C13 A60 d   1      73.506 110.433  15.528  0.00  0.00    -0.039 C 
ATOM     29  H9  A60 d   1      73.757 111.251  14.836  0.00  0.00     0.042 H 
BRANCH  28  30
ATOM     30  C14 A60 d   1      74.224 109.120  15.082  0.00  0.00    -0.064 C 
ATOM     31  H10 A60 d   1      73.791 108.267  15.625  0.00  0.00     0.033 H 
ATOM     32  H11 A60 d   1      75.296 109.196  15.314  0.00  0.00     0.033 H 
BRANCH  30  33
ATOM     33  C20 A60 d   1      74.046 108.902  13.565  0.00  0.00    -0.076 C 
ATOM     34  H22 A60 d   1      74.556 107.975  13.265  0.00  0.00     0.027 H 
ATOM     35  H23 A60 d   1      74.480 109.752  13.019  0.00  0.00     0.027 H 
ATOM     36  H24 A60 d   1      72.975 108.823  13.329  0.00  0.00     0.027 H 
ENDBRANCH  30  33
ENDBRANCH  28  30
BRANCH  28  37
ATOM     37  C15 A60 d   1      73.962 110.799  16.959  0.00  0.00    -0.064 C 
ATOM     38  H12 A60 d   1      73.899 109.908  17.601  0.00  0.00     0.033 H 
ATOM     39  H13 A60 d   1      73.307 111.587  17.360  0.00  0.00     0.033 H 
BRANCH  37  40
ATOM     40  C18 A60 d   1      75.434 111.314  16.934  0.00  0.00    -0.076 C 
ATOM     41  H17 A60 d   1      75.750 111.572  17.956  0.00  0.00     0.027 H 
ATOM     42  H18 A60 d   1      75.499 112.206  16.294  0.00  0.00     0.027 H 
ATOM     43  H19 A60 d   1      76.091 110.527  16.535  0.00  0.00     0.027 H 
ENDBRANCH  37  40
ENDBRANCH  28  37
ENDBRANCH  25  28
ENDBRANCH   8  25
ENDBRANCH   5   8
ENDBRANCH   3   5
BRANCH   3  44
ATOM     44  O18 A60 d   1      71.961 114.691  14.503  0.00  0.00    -0.392 OA
ATOM     45  H20 A60 d   1      71.071 115.019  14.447  0.00  0.00     0.210 HD
ENDBRANCH   3  44
ENDBRANCH   1   3
BRANCH   1  46
ATOM     46  N20 A60 d   1      72.628 115.184  17.248  0.00  0.00    -0.330 N 
ATOM     47  C21 A60 d   1      73.660 114.817  18.270  0.00  0.00     0.361 C 
ATOM     48  O22 A60 d   1      73.583 113.837  18.932  0.00  0.00    -0.238 OA
ATOM     49  H25 A60 d   1      72.637 116.103  16.855  0.00  0.00     0.165 HD
BRANCH  47  50
ATOM     50  O23 A60 d   1      74.746 115.730  18.398  0.00  0.00    -0.296 OA
BRANCH  50  51
ATOM     51  C24 A60 d   1      75.599 115.642  19.640  0.00  0.00     0.078 C 
ATOM     52  C25 A60 d   1      76.778 115.986  19.325  0.00  0.00     0.048 C 
ATOM     53  O26 A60 d   1      76.681 117.616  19.192  0.00  0.00    -0.358 OA
ATOM     54  H27 A60 d   1      77.078 115.531  18.369  0.00  0.00     0.078 H 
ATOM     55  H28 A60 d   1      77.494 115.698  20.109  0.00  0.00     0.078 H 
ATOM     56  C27 A60 d   1      75.869 117.997  20.124  0.00  0.00     0.137 C 
ATOM     57  O28 A60 d   1      74.712 118.910  19.556  0.00  0.00    -0.361 OA
ATOM     58  C31 A60 d   1      75.164 116.741  20.658  0.00  0.00     0.023 C 
ATOM     59  H29 A60 d   1      76.421 118.520  20.919  0.00  0.00     0.129 H 
ATOM     60  C29 A60 d   1      73.629 118.169  19.508  0.00  0.00     0.023 C 
ATOM     61  C30 A60 d   1      73.838 117.007  20.630  0.00  0.00    -0.035 C 
ATOM     62  H30 A60 d   1      73.515 117.722  18.510  0.00  0.00     0.074 H 
ATOM     63  H31 A60 d   1      72.740 118.773  19.743  0.00  0.00     0.074 H 
ATOM     64  H32 A60 d   1      73.274 116.104  20.353  0.00  0.00     0.037 H 
ATOM     65  H33 A60 d   1      73.500 117.363  21.614  0.00  0.00     0.037 H 
ATOM     66  H34 A60 d   1      75.481 116.481  21.679  0.00  0.00     0.051 H 
ATOM     67  H26 A60 d   1      75.558 114.634  20.079  0.00  0.00     0.088 H 
ENDBRANCH  50  51
ENDBRANCH  47  50
ENDBRANCH   1  46
BRANCH   1  68
ATOM     68  C32 A60 d   1      70.301 114.992  16.744  0.00  0.00    -0.040 C 
ATOM     69  H35 A60 d   1      69.476 114.308  16.498  0.00  0.00     0.036 H 
ATOM     70  H36 A60 d   1      70.368 115.776  15.976  0.00  0.00     0.036 H 
BRANCH  68  71
ATOM     71  C38 A60 d   1      70.053 115.638  18.136  0.00  0.00    -0.052 A 
ATOM     72  C33 A60 d   1      69.724 114.742  19.338  0.00  0.00    -0.062 A 
ATOM     73  C34 A60 d   1      69.482 115.375  20.725  0.00  0.00    -0.065 A 
ATOM     74  H37 A60 d   1      68.812 114.184  19.079  0.00  0.00     0.033 H 
ATOM     75  H38 A60 d   1      70.563 114.040  19.451  0.00  0.00     0.033 H 
ATOM     76  C35 A60 d   1      69.575 116.914  20.907  0.00  0.00    -0.065 A 
ATOM     77  H39 A60 d   1      70.219 114.930  21.409  0.00  0.00     0.033 H 
ATOM     78  H40 A60 d   1      68.469 115.080  21.035  0.00  0.00     0.033 H 
ATOM     79  C36 A60 d   1      69.910 117.808  19.705  0.00  0.00    -0.065 A 
ATOM     80  H41 A60 d   1      70.350 117.098  21.666  0.00  0.00     0.033 H 
ATOM     81  H42 A60 d   1      68.600 117.249  21.290  0.00  0.00     0.033 H 
ATOM     82  C37 A60 d   1      70.150 117.177  18.320  0.00  0.00    -0.062 A 
ATOM     83  H43 A60 d   1      70.825 118.361  19.965  0.00  0.00     0.033 H 
ATOM     84  H44 A60 d   1      69.075 118.514  19.592  0.00  0.00     0.033 H 
ATOM     85  H45 A60 d   1      71.164 117.470  18.010  0.00  0.00     0.033 H 
ATOM     86  H46 A60 d   1      69.414 117.625  17.636  0.00  0.00     0.033 H 
ATOM     87  H47 A60 d   1      68.981 115.731  17.905  0.00  0.00     0.040 H 
ENDBRANCH  68  71
ENDBRANCH   1  68
TORSDOF 18
