REMARK  15 active torsions:
REMARK  status: ('A' for Active; 'I' for Inactive)
REMARK    1  A    between atoms: C3_3  and  C20_20 
REMARK    2  A    between atoms: C4_4  and  O8_8 
REMARK    3  A    between atoms: C6_6  and  C9_9 
REMARK    4  A    between atoms: C6_6  and  C12_12 
REMARK    5  A    between atoms: C9_9  and  C10_10 
REMARK    6  A    between atoms: C10_10  and  C11_11 
REMARK    7  A    between atoms: C12_12  and  C13_13 
REMARK    8  A    between atoms: C13_13  and  C14_14 
REMARK    9  A    between atoms: C20_20  and  C21_21 
REMARK   10  A    between atoms: C20_20  and  C23_23 
REMARK   11  A    between atoms: C21_21  and  C22_22 
REMARK   12  A    between atoms: C27_27  and  N28_28 
REMARK   13  A    between atoms: N28_28  and  S30_30 
REMARK   14  A    between atoms: S30_30  and  C33_33 
REMARK   15  A    between atoms: C36_36  and  C39_39 
ROOT
ATOM      1  O1  TPV d   1      13.268  21.876  62.689  0.00  0.00    -0.306 OA
ATOM      2  C2  TPV d   1      12.141  21.177  62.914  0.00  0.00     0.293 C 
ATOM      3  C3  TPV d   1      12.130  19.897  63.514  0.00  0.00     0.055 C 
ATOM      4  C4  TPV d   1      13.400  19.390  63.775  0.00  0.00     0.059 C 
ATOM      5  C5  TPV d   1      14.603  20.016  63.388  0.00  0.00     0.009 C 
ATOM      6  C6  TPV d   1      14.517  21.530  63.280  0.00  0.00     0.077 C 
ATOM      7  O7  TPV d   1      11.109  21.781  62.517  0.00  0.00    -0.259 OA
ATOM      8  H1  TPV d   1      14.898  19.617  62.406  0.00  0.00     0.047 H 
ATOM      9  H2  TPV d   1      15.375  19.767  64.131  0.00  0.00     0.047 H 
ENDROOT
BRANCH   3  10
ATOM     10  C20 TPV d   1      10.875  19.220  63.699  0.00  0.00     0.005 C 
ATOM     11  H20 TPV d   1      10.139  20.038  63.695  0.00  0.00     0.055 H 
BRANCH  10  12
ATOM     12  C21 TPV d   1      10.707  18.549  65.047  0.00  0.00    -0.057 C 
ATOM     13  H21 TPV d   1      11.440  17.731  65.110  0.00  0.00     0.033 H 
ATOM     14  H22 TPV d   1       9.690  18.134  65.092  0.00  0.00     0.033 H 
BRANCH  12  15
ATOM     15  C22 TPV d   1      10.900  19.444  66.264  0.00  0.00    -0.076 C 
ATOM     16  H23 TPV d   1      10.755  18.853  67.180  0.00  0.00     0.027 H 
ATOM     17  H24 TPV d   1      10.167  20.264  66.236  0.00  0.00     0.027 H 
ATOM     18  H25 TPV d   1      11.918  19.862  66.254  0.00  0.00     0.027 H 
ENDBRANCH  12  15
ENDBRANCH  10  12
BRANCH  10  19
ATOM     19  C23 TPV d   1      10.448  18.364  62.688  0.00  0.00    -0.047 A 
ATOM     20  C24 TPV d   1      11.334  17.810  61.776  0.00  0.00    -0.076 A 
ATOM     21  C25 TPV d   1      10.910  16.938  60.750  0.00  0.00    -0.080 A 
ATOM     22  H26 TPV d   1      12.387  18.055  61.854  0.00  0.00     0.084 H 
ATOM     23  C26 TPV d   1       9.580  16.588  60.583  0.00  0.00    -0.057 A 
ATOM     24  H27 TPV d   1      11.649  16.529  60.071  0.00  0.00     0.083 H 
ATOM     25  C27 TPV d   1       8.646  17.121  61.486  0.00  0.00     0.043 A 
ATOM     26  H28 TPV d   1       9.271  15.925  59.783  0.00  0.00     0.086 H 
ATOM     27  C29 TPV d   1       9.100  17.961  62.482  0.00  0.00    -0.050 A 
ATOM     28  H30 TPV d   1       8.360  18.350  63.172  0.00  0.00     0.087 H 
BRANCH  25  29
ATOM     29  N28 TPV d   1       7.303  16.819  61.312  0.00  0.00    -0.279 N 
ATOM     30  H29 TPV d   1       6.704  17.420  60.784  0.00  0.00     0.179 HD
BRANCH  29  31
ATOM     31  S30 TPV d   1       6.739  15.469  61.988  0.00  0.00     0.280 S 
ATOM     32  O31 TPV d   1       5.299  15.344  61.562  0.00  0.00    -0.199 OA
ATOM     33  O32 TPV d   1       7.631  14.295  61.584  0.00  0.00    -0.199 OA
BRANCH  31  34
ATOM     34  C33 TPV d   1       6.823  15.717  63.758  0.00  0.00     0.171 A 
ATOM     35  N34 TPV d   1       7.868  15.249  64.466  0.00  0.00    -0.247 NA
ATOM     36  C35 TPV d   1       8.049  15.632  65.794  0.00  0.00     0.018 A 
ATOM     37  C36 TPV d   1       7.128  16.494  66.418  0.00  0.00     0.065 A 
ATOM     38  H31 TPV d   1       8.904  15.264  66.349  0.00  0.00     0.116 H 
ATOM     39  C37 TPV d   1       6.036  16.906  65.667  0.00  0.00    -0.064 A 
ATOM     40  C38 TPV d   1       5.860  16.518  64.335  0.00  0.00    -0.041 A 
ATOM     41  H32 TPV d   1       5.295  17.549  66.128  0.00  0.00     0.085 H 
ATOM     42  H33 TPV d   1       4.991  16.838  63.772  0.00  0.00     0.088 H 
BRANCH  37  43
ATOM     43  C39 TPV d   1       7.277  16.914  67.722  0.00  0.00     0.418 C 
ATOM     44  F40 TPV d   1       7.890  16.033  68.524  0.00  0.00    -0.166 F 
ATOM     45  F41 TPV d   1       6.252  17.368  68.403  0.00  0.00    -0.166 F 
ATOM     46  F42 TPV d   1       8.130  17.972  67.764  0.00  0.00    -0.166 F 
ENDBRANCH  37  43
ENDBRANCH  31  34
ENDBRANCH  29  31
ENDBRANCH  25  29
ENDBRANCH  10  19
ENDBRANCH   3  10
BRANCH   4  47
ATOM     47  O8  TPV d   1      13.509  18.154  64.360  0.00  0.00    -0.364 OA
ATOM     48  H3  TPV d   1      12.643  17.830  64.578  0.00  0.00     0.217 HD
ENDBRANCH   4  47
BRANCH   6  49
ATOM     49  C9  TPV d   1      14.582  22.028  64.743  0.00  0.00    -0.035 C 
ATOM     50  H4  TPV d   1      15.498  21.620  65.195  0.00  0.00     0.037 H 
ATOM     51  H5  TPV d   1      13.703  21.630  65.272  0.00  0.00     0.037 H 
BRANCH  49  52
ATOM     52  C10 TPV d   1      14.599  23.534  64.941  0.00  0.00    -0.066 C 
ATOM     53  H6  TPV d   1      13.690  23.976  64.507  0.00  0.00     0.032 H 
ATOM     54  H7  TPV d   1      15.485  23.963  64.451  0.00  0.00     0.032 H 
BRANCH  52  55
ATOM     55  C11 TPV d   1      14.649  23.830  66.467  0.00  0.00    -0.076 C 
ATOM     56  H8  TPV d   1      14.662  24.918  66.629  0.00  0.00     0.027 H 
ATOM     57  H9  TPV d   1      15.558  23.384  66.897  0.00  0.00     0.027 H 
ATOM     58  H10 TPV d   1      13.763  23.397  66.954  0.00  0.00     0.027 H 
ENDBRANCH  52  55
ENDBRANCH  49  52
ENDBRANCH   6  49
BRANCH   6  59
ATOM     59  C12 TPV d   1      15.605  22.173  62.431  0.00  0.00    -0.032 C 
ATOM     60  H11 TPV d   1      16.575  21.903  62.874  0.00  0.00     0.037 H 
ATOM     61  H12 TPV d   1      15.467  23.263  62.486  0.00  0.00     0.037 H 
BRANCH  59  62
ATOM     62  C13 TPV d   1      15.651  21.791  60.964  0.00  0.00    -0.038 C 
ATOM     63  H13 TPV d   1      14.711  22.108  60.489  0.00  0.00     0.040 H 
ATOM     64  H14 TPV d   1      15.749  20.698  60.889  0.00  0.00     0.040 H 
BRANCH  62  65
ATOM     65  C14 TPV d   1      16.719  22.383  60.279  0.00  0.00    -0.058 A 
ATOM     66  C15 TPV d   1      16.484  23.495  59.477  0.00  0.00    -0.077 A 
ATOM     67  C16 TPV d   1      17.505  24.131  58.814  0.00  0.00    -0.082 A 
ATOM     68  H15 TPV d   1      15.472  23.868  59.373  0.00  0.00     0.084 H 
ATOM     69  C17 TPV d   1      18.806  23.633  58.945  0.00  0.00    -0.083 A 
ATOM     70  H16 TPV d   1      17.307  25.003  58.201  0.00  0.00     0.083 H 
ATOM     71  C18 TPV d   1      19.065  22.508  59.728  0.00  0.00    -0.082 A 
ATOM     72  H17 TPV d   1      19.623  24.128  58.432  0.00  0.00     0.083 H 
ATOM     73  C19 TPV d   1      18.024  21.879  60.400  0.00  0.00    -0.077 A 
ATOM     74  H18 TPV d   1      20.076  22.125  59.812  0.00  0.00     0.083 H 
ATOM     75  H19 TPV d   1      18.218  21.006  61.013  0.00  0.00     0.084 H 
ENDBRANCH  62  65
ENDBRANCH  59  62
ENDBRANCH   6  59
TORSDOF 15
