REMARK  15 active torsions:
REMARK  status: ('A' for Active; 'I' for Inactive)
REMARK    1  A    between atoms: C3_3  and  C20_20 
REMARK    2  A    between atoms: C4_4  and  O8_8 
REMARK    3  A    between atoms: C6_6  and  C9_9 
REMARK    4  A    between atoms: C6_6  and  C12_12 
REMARK    5  A    between atoms: C9_9  and  C10_10 
REMARK    6  A    between atoms: C10_10  and  C11_11 
REMARK    7  A    between atoms: C12_12  and  C13_13 
REMARK    8  A    between atoms: C13_13  and  C14_14 
REMARK    9  A    between atoms: C20_20  and  C21_21 
REMARK   10  A    between atoms: C20_20  and  C23_23 
REMARK   11  A    between atoms: C21_21  and  C22_22 
REMARK   12  A    between atoms: C27_27  and  N28_28 
REMARK   13  A    between atoms: N28_28  and  S30_30 
REMARK   14  A    between atoms: S30_30  and  C33_33 
REMARK   15  A    between atoms: C36_36  and  C39_39 
ROOT
ATOM      1  O1  TPV d   1      13.329  21.895  62.853  0.00  0.00    -0.306 OA
ATOM      2  C2  TPV d   1      12.184  21.223  63.102  0.00  0.00     0.293 C 
ATOM      3  C3  TPV d   1      12.169  19.929  63.658  0.00  0.00     0.055 C 
ATOM      4  C4  TPV d   1      13.441  19.429  63.960  0.00  0.00     0.059 C 
ATOM      5  C5  TPV d   1      14.641  20.024  63.561  0.00  0.00     0.009 C 
ATOM      6  C6  TPV d   1      14.556  21.547  63.480  0.00  0.00     0.077 C 
ATOM      7  O7  TPV d   1      11.146  21.826  62.718  0.00  0.00    -0.259 OA
ATOM      8  H1  TPV d   1      14.912  19.635  62.568  0.00  0.00     0.047 H 
ATOM      9  H2  TPV d   1      15.423  19.755  64.286  0.00  0.00     0.047 H 
ENDROOT
BRANCH   3  10
ATOM     10  C20 TPV d   1      10.971  19.231  63.852  0.00  0.00     0.005 C 
ATOM     11  H20 TPV d   1      10.226  20.040  63.859  0.00  0.00     0.055 H 
BRANCH  10  12
ATOM     12  C21 TPV d   1      10.781  18.536  65.189  0.00  0.00    -0.057 C 
ATOM     13  H21 TPV d   1      11.557  17.762  65.282  0.00  0.00     0.033 H 
ATOM     14  H22 TPV d   1       9.788  18.062  65.187  0.00  0.00     0.033 H 
BRANCH  12  15
ATOM     15  C22 TPV d   1      10.868  19.436  66.411  0.00  0.00    -0.076 C 
ATOM     16  H23 TPV d   1      10.717  18.835  67.320  0.00  0.00     0.027 H 
ATOM     17  H24 TPV d   1      10.091  20.212  66.351  0.00  0.00     0.027 H 
ATOM     18  H25 TPV d   1      11.859  19.912  66.446  0.00  0.00     0.027 H 
ENDBRANCH  12  15
ENDBRANCH  10  12
BRANCH  10  19
ATOM     19  C23 TPV d   1      10.530  18.375  62.844  0.00  0.00    -0.047 C 
ATOM     20  C24 TPV d   1      11.405  17.765  61.960  0.00  0.00    -0.076 C 
ATOM     21  C25 TPV d   1      10.945  16.902  60.947  0.00  0.00    -0.080 C 
ATOM     22  H26 TPV d   1      12.468  17.956  62.050  0.00  0.00     0.084 H 
ATOM     23  C26 TPV d   1       9.594  16.653  60.758  0.00  0.00    -0.057 C 
ATOM     24  H27 TPV d   1      11.666  16.419  60.297  0.00  0.00     0.083 H 
ATOM     25  C27 TPV d   1       8.684  17.158  61.716  0.00  0.00     0.043 C 
ATOM     26  H28 TPV d   1       9.245  16.088  59.901  0.00  0.00     0.086 H 
ATOM     27  C29 TPV d   1       9.162  18.045  62.667  0.00  0.00    -0.050 C 
ATOM     28  H30 TPV d   1       8.440  18.520  63.322  0.00  0.00     0.087 H 
BRANCH  25  29
ATOM     29  N28 TPV d   1       7.360  16.988  61.499  0.00  0.00    -0.279 N 
ATOM     30  H29 TPV d   1       6.822  17.646  60.972  0.00  0.00     0.179 HD
BRANCH  29  31
ATOM     31  S30 TPV d   1       6.681  15.627  62.157  0.00  0.00     0.280 S 
ATOM     32  O31 TPV d   1       5.278  15.410  61.655  0.00  0.00    -0.199 OA
ATOM     33  O32 TPV d   1       7.589  14.417  61.774  0.00  0.00    -0.199 OA
BRANCH  31  34
ATOM     34  C33 TPV d   1       6.845  15.937  63.877  0.00  0.00     0.171 A 
ATOM     35  N34 TPV d   1       7.840  15.360  64.580  0.00  0.00    -0.247 NA
ATOM     36  C35 TPV d   1       7.967  15.639  65.951  0.00  0.00     0.018 A 
ATOM     37  C36 TPV d   1       7.042  16.457  66.607  0.00  0.00     0.065 A 
ATOM     38  H31 TPV d   1       8.794  15.214  66.508  0.00  0.00     0.116 H 
ATOM     39  C37 TPV d   1       6.003  17.037  65.860  0.00  0.00    -0.064 A 
ATOM     40  C38 TPV d   1       5.895  16.725  64.504  0.00  0.00    -0.041 A 
ATOM     41  H32 TPV d   1       5.298  17.714  66.328  0.00  0.00     0.085 H 
ATOM     42  H33 TPV d   1       5.055  17.105  63.934  0.00  0.00     0.088 H 
BRANCH  37  43
ATOM     43  C39 TPV d   1       7.204  16.885  67.918  0.00  0.00     0.418 C 
ATOM     44  F40 TPV d   1       7.823  16.032  68.715  0.00  0.00    -0.166 F 
ATOM     45  F41 TPV d   1       6.057  17.325  68.407  0.00  0.00    -0.166 F 
ATOM     46  F42 TPV d   1       8.022  17.960  67.881  0.00  0.00    -0.166 F 
ENDBRANCH  37  43
ENDBRANCH  31  34
ENDBRANCH  29  31
ENDBRANCH  25  29
ENDBRANCH  10  19
ENDBRANCH   3  10
BRANCH   4  47
ATOM     47  O8  TPV d   1      13.598  18.201  64.499  0.00  0.00    -0.364 OA
ATOM     48  H3  TPV d   1      12.749  17.855  64.748  0.00  0.00     0.217 HD
ENDBRANCH   4  47
BRANCH   6  49
ATOM     49  C9  TPV d   1      14.702  22.010  64.941  0.00  0.00    -0.035 C 
ATOM     50  H4  TPV d   1      15.705  21.720  65.286  0.00  0.00     0.037 H 
ATOM     51  H5  TPV d   1      13.942  21.483  65.537  0.00  0.00     0.037 H 
BRANCH  49  52
ATOM     52  C10 TPV d   1      14.540  23.485  65.191  0.00  0.00    -0.066 C 
ATOM     53  H6  TPV d   1      13.546  23.796  64.836  0.00  0.00     0.032 H 
ATOM     54  H7  TPV d   1      15.316  24.025  64.628  0.00  0.00     0.032 H 
BRANCH  52  55
ATOM     55  C11 TPV d   1      14.667  23.849  66.677  0.00  0.00    -0.076 C 
ATOM     56  H8  TPV d   1      14.541  24.935  66.801  0.00  0.00     0.027 H 
ATOM     57  H9  TPV d   1      15.660  23.551  67.044  0.00  0.00     0.027 H 
ATOM     58  H10 TPV d   1      13.891  23.322  67.251  0.00  0.00     0.027 H 
ENDBRANCH  52  55
ENDBRANCH  49  52
ENDBRANCH   6  49
BRANCH   6  59
ATOM     59  C12 TPV d   1      15.680  22.148  62.615  0.00  0.00    -0.032 C 
ATOM     60  H11 TPV d   1      16.640  21.848  63.061  0.00  0.00     0.037 H 
ATOM     61  H12 TPV d   1      15.583  23.243  62.656  0.00  0.00     0.037 H 
BRANCH  59  62
ATOM     62  C13 TPV d   1      15.706  21.742  61.148  0.00  0.00    -0.038 C 
ATOM     63  H13 TPV d   1      14.752  22.030  60.682  0.00  0.00     0.040 H 
ATOM     64  H14 TPV d   1      15.831  20.651  61.083  0.00  0.00     0.040 H 
BRANCH  62  65
ATOM     65  C14 TPV d   1      16.750  22.358  60.456  0.00  0.00    -0.058 C 
ATOM     66  C15 TPV d   1      16.538  23.495  59.682  0.00  0.00    -0.077 C 
ATOM     67  C16 TPV d   1      17.589  24.067  58.976  0.00  0.00    -0.082 C 
ATOM     68  H15 TPV d   1      15.549  23.936  59.630  0.00  0.00     0.084 H 
ATOM     69  C17 TPV d   1      18.891  23.588  59.114  0.00  0.00    -0.083 C 
ATOM     70  H16 TPV d   1      17.394  24.898  58.308  0.00  0.00     0.083 H 
ATOM     71  C18 TPV d   1      19.102  22.407  59.825  0.00  0.00    -0.082 C 
ATOM     72  H17 TPV d   1      19.725  24.124  58.676  0.00  0.00     0.083 H 
ATOM     73  C19 TPV d   1      18.045  21.862  60.538  0.00  0.00    -0.077 C 
ATOM     74  H18 TPV d   1      20.073  21.925  59.820  0.00  0.00     0.083 H 
ATOM     75  H19 TPV d   1      18.237  21.014  61.186  0.00  0.00     0.084 H 
ENDBRANCH  62  65
ENDBRANCH  59  62
ENDBRANCH   6  59
TORSDOF 15
