REMARK  20 active torsions:
REMARK  status: ('A' for Active; 'I' for Inactive)
REMARK    1  A    between atoms: C10_13  and  N1_3 
REMARK    2  A    between atoms: C29_37  and  C4_6 
REMARK    3  A    between atoms: C11_14  and  C10_13 
REMARK    4  A    between atoms: C10_13  and  C13_17 
REMARK       I    between atoms: N3_15  and  C11_14 
REMARK    5  A    between atoms: C12_16  and  N3_15 
REMARK    6  A    between atoms: C12_16  and  C22_27 
REMARK    7  A    between atoms: C23_28  and  C12_16 
REMARK    8  A    between atoms: C13_17  and  C14_18 
REMARK    9  A    between atoms: C13_17  and  C15_19 
REMARK   10  A    between atoms: C22_27  and  C20_25 
REMARK   11  A    between atoms: C24_29  and  C23_28 
REMARK   12  A    between atoms: C25_30  and  C24_29 
REMARK   13  A    between atoms: C24_29  and  O4_36 
REMARK   14  A    between atoms: C25_30  and  N4_31 
REMARK   15  A    between atoms: C25_30  and  C29_37 
REMARK       I    between atoms: N4_31  and  C26_32 
REMARK   16  A    between atoms: C26_32  and  C27_33 
REMARK   17  A    between atoms: C27_33  and  O3_34 
REMARK   18  A    between atoms: O3_34  and  C28_35 
REMARK   19  A    between atoms: C30_39  and  C36_45 
REMARK   20  A    between atoms: C34_43  and  C35_44 
ROOT
ATOM      1  C23 AB1 d   1      12.625  18.812  65.867  0.00  0.00    -0.020 C 
ATOM      2  H28 AB1 d   1      12.696  17.909  66.491  0.00  0.00     0.040 H 
ATOM      3  H29 AB1 d   1      13.042  19.670  66.415  0.00  0.00     0.040 H 
ENDROOT
BRANCH   1   4
ATOM      4  C12 AB1 d   1      11.144  19.092  65.612  0.00  0.00     0.018 C 
ATOM      5  H13 AB1 d   1      11.024  20.076  65.136  0.00  0.00     0.073 H 
BRANCH   4   6
ATOM      6  N3  AB1 d   1      10.646  18.043  64.714  0.00  0.00    -0.354 N 
ATOM      7  C11 AB1 d   1       9.893  18.283  63.624  0.00  0.00     0.241 C 
ATOM      8  O2  AB1 d   1       9.580  19.404  63.195  0.00  0.00    -0.271 OA
ATOM      9  H12 AB1 d   1      10.880  17.094  64.924  0.00  0.00     0.162 HD
BRANCH   7  10
ATOM     10  C10 AB1 d   1       9.357  17.079  62.883  0.00  0.00     0.096 C 
ATOM     11  H11 AB1 d   1       9.915  16.197  63.229  0.00  0.00     0.088 H 
BRANCH  10  12
ATOM     12  N1  AB1 d   1       7.929  16.883  63.238  0.00  0.00    -0.320 N 
ATOM     13  C2  AB1 d   1       6.905  17.828  62.730  0.00  0.00     0.002 C 
ATOM     14  C37 AB1 d   1       5.605  17.105  62.487  0.00  0.00    -0.035 C 
ATOM     15  H3  AB1 d   1       7.256  18.272  61.787  0.00  0.00     0.064 H 
ATOM     16  H4  AB1 d   1       6.745  18.624  63.472  0.00  0.00     0.064 H 
ATOM     17  C1  AB1 d   1       5.169  16.366  63.749  0.00  0.00    -0.002 C 
ATOM     18  H47 AB1 d   1       4.830  17.834  62.207  0.00  0.00     0.037 H 
ATOM     19  H48 AB1 d   1       5.739  16.381  61.670  0.00  0.00     0.037 H 
ATOM     20  N2  AB1 d   1       6.281  15.664  64.358  0.00  0.00    -0.343 N 
ATOM     21  H1  AB1 d   1       4.766  17.093  64.469  0.00  0.00     0.064 H 
ATOM     22  H2  AB1 d   1       4.387  15.639  63.486  0.00  0.00     0.064 H 
ATOM     23  C3  AB1 d   1       7.616  15.875  64.046  0.00  0.00     0.319 C 
ATOM     24  H5  AB1 d   1       6.071  14.977  65.054  0.00  0.00     0.164 HD
ATOM     25  O1  AB1 d   1       8.478  15.097  64.534  0.00  0.00    -0.247 OA
ENDBRANCH  10  12
BRANCH  10  26
ATOM     26  C13 AB1 d   1       9.560  17.178  61.378  0.00  0.00    -0.033 C 
ATOM     27  H14 AB1 d   1       8.980  18.025  60.983  0.00  0.00     0.042 H 
BRANCH  26  28
ATOM     28  C14 AB1 d   1      11.055  17.398  61.104  0.00  0.00    -0.071 C 
ATOM     29  H15 AB1 d   1      11.222  17.472  60.019  0.00  0.00     0.028 H 
ATOM     30  H16 AB1 d   1      11.630  16.551  61.506  0.00  0.00     0.028 H 
ATOM     31  H17 AB1 d   1      11.384  18.328  61.590  0.00  0.00     0.028 H 
ENDBRANCH  26  28
BRANCH  26  32
ATOM     32  C15 AB1 d   1       9.107  15.886  60.692  0.00  0.00    -0.071 C 
ATOM     33  H18 AB1 d   1       8.036  15.724  60.886  0.00  0.00     0.028 H 
ATOM     34  H19 AB1 d   1       9.684  15.038  61.090  0.00  0.00     0.028 H 
ATOM     35  H20 AB1 d   1       9.275  15.968  59.608  0.00  0.00     0.028 H 
ENDBRANCH  26  32
ENDBRANCH  10  26
ENDBRANCH   7  10
ENDBRANCH   4   6
BRANCH   4  36
ATOM     36  C22 AB1 d   1      10.379  19.076  66.946  0.00  0.00    -0.022 C 
ATOM     37  H26 AB1 d   1      10.827  19.833  67.606  0.00  0.00     0.043 H 
ATOM     38  H27 AB1 d   1      10.499  18.080  67.397  0.00  0.00     0.043 H 
BRANCH  36  39
ATOM     39  C20 AB1 d   1       9.027  19.341  66.846  0.00  0.00    -0.056 A 
ATOM     40  C19 AB1 d   1       8.077  18.338  66.801  0.00  0.00    -0.077 A 
ATOM     41  C18 AB1 d   1       6.702  18.602  66.722  0.00  0.00    -0.082 A 
ATOM     42  H24 AB1 d   1       8.408  17.306  66.828  0.00  0.00     0.084 H 
ATOM     43  C17 AB1 d   1       6.271  19.921  66.752  0.00  0.00    -0.083 A 
ATOM     44  H23 AB1 d   1       5.988  17.790  66.639  0.00  0.00     0.083 H 
ATOM     45  C16 AB1 d   1       7.207  20.941  66.842  0.00  0.00    -0.082 A 
ATOM     46  H22 AB1 d   1       5.213  20.152  66.706  0.00  0.00     0.083 H 
ATOM     47  C21 AB1 d   1       8.567  20.661  66.908  0.00  0.00    -0.077 A 
ATOM     48  H21 AB1 d   1       6.873  21.972  66.861  0.00  0.00     0.083 H 
ATOM     49  H25 AB1 d   1       9.278  21.473  67.008  0.00  0.00     0.084 H 
ENDBRANCH  36  39
ENDBRANCH   4  36
ENDBRANCH   1   4
BRANCH   1  50
ATOM     50  C24 AB1 d   1      13.483  18.589  64.617  0.00  0.00     0.057 C 
ATOM     51  H30 AB1 d   1      12.951  17.848  64.002  0.00  0.00     0.086 H 
BRANCH  50  52
ATOM     52  C25 AB1 d   1      13.746  19.799  63.727  0.00  0.00     0.041 C 
ATOM     53  H31 AB1 d   1      12.772  20.178  63.384  0.00  0.00     0.076 H 
BRANCH  52  54
ATOM     54  N4  AB1 d   1      14.442  20.877  64.459  0.00  0.00    -0.352 N 
ATOM     55  C26 AB1 d   1      13.871  22.072  64.695  0.00  0.00     0.242 C 
ATOM     56  O5  AB1 d   1      12.692  22.317  64.462  0.00  0.00    -0.271 OA
ATOM     57  H32 AB1 d   1      15.371  20.712  64.791  0.00  0.00     0.163 HD
BRANCH  55  58
ATOM     58  C27 AB1 d   1      14.800  23.145  65.266  0.00  0.00     0.099 C 
ATOM     59  H33 AB1 d   1      14.287  23.653  66.096  0.00  0.00     0.089 H 
ATOM     60  H34 AB1 d   1      15.028  23.875  64.475  0.00  0.00     0.089 H 
BRANCH  58  61
ATOM     61  O3  AB1 d   1      16.038  22.587  65.755  0.00  0.00    -0.341 OA
BRANCH  61  62
ATOM     62  C28 AB1 d   1      16.877  23.573  66.105  0.00  0.00     0.081 C 
ATOM     63  C30 AB1 d   1      16.807  24.150  67.365  0.00  0.00    -0.028 C 
ATOM     64  C31 AB1 d   1      17.709  25.167  67.651  0.00  0.00    -0.074 C 
ATOM     65  C32 AB1 d   1      18.628  25.640  66.702  0.00  0.00    -0.082 C 
ATOM     66  H38 AB1 d   1      17.703  25.610  68.640  0.00  0.00     0.084 H 
ATOM     67  C33 AB1 d   1      18.687  25.021  65.447  0.00  0.00    -0.074 C 
ATOM     68  H39 AB1 d   1      19.282  26.472  66.937  0.00  0.00     0.083 H 
ATOM     69  C34 AB1 d   1      17.845  23.925  65.190  0.00  0.00    -0.028 C 
ATOM     70  H40 AB1 d   1      19.370  25.381  64.687  0.00  0.00     0.084 H 
BRANCH  63  71
ATOM     71  C36 AB1 d   1      15.858  23.790  68.346  0.00  0.00    -0.049 C 
ATOM     72  H44 AB1 d   1      15.226  22.976  67.963  0.00  0.00     0.033 H 
ATOM     73  H45 AB1 d   1      15.230  24.661  68.585  0.00  0.00     0.033 H 
ATOM     74  H46 AB1 d   1      16.379  23.453  69.254  0.00  0.00     0.033 H 
ENDBRANCH  63  71
BRANCH  69  75
ATOM     75  C35 AB1 d   1      17.819  23.316  63.924  0.00  0.00    -0.049 C 
ATOM     76  H41 AB1 d   1      17.100  22.484  63.932  0.00  0.00     0.033 H 
ATOM     77  H42 AB1 d   1      18.821  22.932  63.681  0.00  0.00     0.033 H 
ATOM     78  H43 AB1 d   1      17.516  24.055  63.168  0.00  0.00     0.033 H 
ENDBRANCH  69  75
ENDBRANCH  61  62
ENDBRANCH  58  61
ENDBRANCH  55  58
ENDBRANCH  52  54
BRANCH  52  79
ATOM     79  C29 AB1 d   1      14.596  19.457  62.496  0.00  0.00    -0.020 C 
ATOM     80  H36 AB1 d   1      15.541  19.014  62.844  0.00  0.00     0.043 H 
ATOM     81  H37 AB1 d   1      14.046  18.720  61.893  0.00  0.00     0.043 H 
BRANCH  79  82
ATOM     82  C4  AB1 d   1      14.903  20.557  61.673  0.00  0.00    -0.056 C 
ATOM     83  C5  AB1 d   1      16.180  21.041  61.533  0.00  0.00    -0.077 C 
ATOM     84  C6  AB1 d   1      16.514  22.089  60.671  0.00  0.00    -0.082 C 
ATOM     85  H6  AB1 d   1      16.970  20.587  62.121  0.00  0.00     0.084 H 
ATOM     86  C7  AB1 d   1      15.524  22.711  59.903  0.00  0.00    -0.083 C 
ATOM     87  H7  AB1 d   1      17.543  22.421  60.597  0.00  0.00     0.083 H 
ATOM     88  C8  AB1 d   1      14.232  22.235  60.034  0.00  0.00    -0.082 C 
ATOM     89  H8  AB1 d   1      15.759  23.531  59.234  0.00  0.00     0.083 H 
ATOM     90  C9  AB1 d   1      13.937  21.130  60.837  0.00  0.00    -0.077 C 
ATOM     91  H9  AB1 d   1      13.429  22.731  59.501  0.00  0.00     0.083 H 
ATOM     92  H10 AB1 d   1      12.939  20.707  60.812  0.00  0.00     0.084 H 
ENDBRANCH  79  82
ENDBRANCH  52  79
ENDBRANCH  50  52
BRANCH  50  93
ATOM     93  O4  AB1 d   1      14.779  18.032  64.989  0.00  0.00    -0.393 OA
ATOM     94  H35 AB1 d   1      14.648  17.274  65.546  0.00  0.00     0.210 HD
ENDBRANCH  50  93
ENDBRANCH   1  50
TORSDOF 20
