REMARK  20 active torsions:
REMARK  status: ('A' for Active; 'I' for Inactive)
REMARK    1  A    between atoms: C10_13  and  N1_3 
REMARK    2  A    between atoms: C29_37  and  C4_6 
REMARK    3  A    between atoms: C11_14  and  C10_13 
REMARK    4  A    between atoms: C10_13  and  C13_17 
REMARK       I    between atoms: N3_15  and  C11_14 
REMARK    5  A    between atoms: C12_16  and  N3_15 
REMARK    6  A    between atoms: C12_16  and  C22_27 
REMARK    7  A    between atoms: C23_28  and  C12_16 
REMARK    8  A    between atoms: C13_17  and  C14_18 
REMARK    9  A    between atoms: C13_17  and  C15_19 
REMARK   10  A    between atoms: C22_27  and  C20_25 
REMARK   11  A    between atoms: C24_29  and  C23_28 
REMARK   12  A    between atoms: C25_30  and  C24_29 
REMARK   13  A    between atoms: C24_29  and  O4_36 
REMARK   14  A    between atoms: C25_30  and  N4_31 
REMARK   15  A    between atoms: C25_30  and  C29_37 
REMARK       I    between atoms: N4_31  and  C26_32 
REMARK   16  A    between atoms: C26_32  and  C27_33 
REMARK   17  A    between atoms: C27_33  and  O3_34 
REMARK   18  A    between atoms: O3_34  and  C28_35 
REMARK   19  A    between atoms: C30_39  and  C36_45 
REMARK   20  A    between atoms: C34_43  and  C35_44 
ROOT
ATOM      1  C23 AB1 d   1      12.534  18.855  66.100  0.00  0.00    -0.020 C 
ATOM      2  H28 AB1 d   1      12.607  17.974  66.755  0.00  0.00     0.040 H 
ATOM      3  H29 AB1 d   1      12.952  19.732  66.616  0.00  0.00     0.040 H 
ENDROOT
BRANCH   1   4
ATOM      4  C12 AB1 d   1      11.052  19.125  65.840  0.00  0.00     0.018 C 
ATOM      5  H13 AB1 d   1      10.949  20.093  65.328  0.00  0.00     0.073 H 
BRANCH   4   6
ATOM      6  N3  AB1 d   1      10.488  18.061  64.988  0.00  0.00    -0.354 N 
ATOM      7  C11 AB1 d   1       9.726  18.329  63.933  0.00  0.00     0.241 C 
ATOM      8  O2  AB1 d   1       9.448  19.452  63.495  0.00  0.00    -0.271 OA
ATOM      9  H12 AB1 d   1      10.686  17.107  65.212  0.00  0.00     0.162 HD
BRANCH   7  10
ATOM     10  C10 AB1 d   1       9.199  17.104  63.199  0.00  0.00     0.096 C 
ATOM     11  H11 AB1 d   1       9.803  16.235  63.500  0.00  0.00     0.088 H 
BRANCH  10  12
ATOM     12  N1  AB1 d   1       7.798  16.903  63.660  0.00  0.00    -0.320 N 
ATOM     13  C2  AB1 d   1       6.789  17.929  63.285  0.00  0.00     0.002 C 
ATOM     14  C37 AB1 d   1       5.437  17.280  63.035  0.00  0.00    -0.035 C 
ATOM     15  H3  AB1 d   1       7.118  18.443  62.370  0.00  0.00     0.064 H 
ATOM     16  H4  AB1 d   1       6.694  18.659  64.102  0.00  0.00     0.064 H 
ATOM     17  C1  AB1 d   1       5.007  16.507  64.272  0.00  0.00    -0.002 C 
ATOM     18  H47 AB1 d   1       4.692  18.059  62.812  0.00  0.00     0.037 H 
ATOM     19  H48 AB1 d   1       5.514  16.591  62.181  0.00  0.00     0.037 H 
ATOM     20  N2  AB1 d   1       6.128  15.672  64.775  0.00  0.00    -0.343 N 
ATOM     21  H1  AB1 d   1       4.703  17.217  65.056  0.00  0.00     0.064 H 
ATOM     22  H2  AB1 d   1       4.157  15.857  64.016  0.00  0.00     0.064 H 
ATOM     23  C3  AB1 d   1       7.440  15.862  64.407  0.00  0.00     0.319 C 
ATOM     24  H5  AB1 d   1       5.918  14.933  65.415  0.00  0.00     0.164 HD
ATOM     25  O1  AB1 d   1       8.308  15.044  64.766  0.00  0.00    -0.247 OA
ENDBRANCH  10  12
BRANCH  10  26
ATOM     26  C13 AB1 d   1       9.268  17.204  61.682  0.00  0.00    -0.033 C 
ATOM     27  H14 AB1 d   1       8.651  18.041  61.323  0.00  0.00     0.042 H 
BRANCH  26  28
ATOM     28  C14 AB1 d   1      10.741  17.415  61.309  0.00  0.00    -0.071 C 
ATOM     29  H15 AB1 d   1      10.835  17.493  60.216  0.00  0.00     0.028 H 
ATOM     30  H16 AB1 d   1      11.336  16.562  61.668  0.00  0.00     0.028 H 
ATOM     31  H17 AB1 d   1      11.108  18.341  61.775  0.00  0.00     0.028 H 
ENDBRANCH  26  28
BRANCH  26  32
ATOM     32  C15 AB1 d   1       8.795  15.893  61.056  0.00  0.00    -0.071 C 
ATOM     33  H18 AB1 d   1       7.739  15.724  61.313  0.00  0.00     0.028 H 
ATOM     34  H19 AB1 d   1       9.404  15.062  61.442  0.00  0.00     0.028 H 
ATOM     35  H20 AB1 d   1       8.902  15.949  59.963  0.00  0.00     0.028 H 
ENDBRANCH  26  32
ENDBRANCH  10  26
ENDBRANCH   7  10
ENDBRANCH   4   6
BRANCH   4  36
ATOM     36  C22 AB1 d   1      10.279  19.168  67.153  0.00  0.00    -0.022 C 
ATOM     37  H26 AB1 d   1      10.716  19.968  67.768  0.00  0.00     0.043 H 
ATOM     38  H27 AB1 d   1      10.424  18.200  67.654  0.00  0.00     0.043 H 
BRANCH  36  39
ATOM     39  C20 AB1 d   1       8.912  19.399  67.077  0.00  0.00    -0.056 C 
ATOM     40  C19 AB1 d   1       7.956  18.399  67.187  0.00  0.00    -0.077 C 
ATOM     41  C18 AB1 d   1       6.579  18.661  67.141  0.00  0.00    -0.082 C 
ATOM     42  H24 AB1 d   1       8.287  17.375  67.314  0.00  0.00     0.084 H 
ATOM     43  C17 AB1 d   1       6.143  19.993  67.113  0.00  0.00    -0.083 C 
ATOM     44  H23 AB1 d   1       5.864  17.847  67.127  0.00  0.00     0.083 H 
ATOM     45  C16 AB1 d   1       7.107  20.987  67.095  0.00  0.00    -0.082 C 
ATOM     46  H22 AB1 d   1       5.087  20.237  67.106  0.00  0.00     0.083 H 
ATOM     47  C21 AB1 d   1       8.449  20.729  67.091  0.00  0.00    -0.077 C 
ATOM     48  H21 AB1 d   1       6.781  22.021  67.084  0.00  0.00     0.083 H 
ATOM     49  H25 AB1 d   1       9.158  21.549  67.099  0.00  0.00     0.084 H 
ENDBRANCH  36  39
ENDBRANCH   4  36
ENDBRANCH   1   4
BRANCH   1  50
ATOM     50  C24 AB1 d   1      13.378  18.592  64.870  0.00  0.00     0.057 C 
ATOM     51  H30 AB1 d   1      12.845  17.847  64.261  0.00  0.00     0.086 H 
BRANCH  50  52
ATOM     52  C25 AB1 d   1      13.667  19.793  63.971  0.00  0.00     0.041 C 
ATOM     53  H31 AB1 d   1      12.702  20.196  63.631  0.00  0.00     0.076 H 
BRANCH  52  54
ATOM     54  N4  AB1 d   1      14.403  20.862  64.678  0.00  0.00    -0.352 N 
ATOM     55  C26 AB1 d   1      13.812  22.057  64.909  0.00  0.00     0.242 C 
ATOM     56  O5  AB1 d   1      12.617  22.315  64.677  0.00  0.00    -0.271 OA
ATOM     57  H32 AB1 d   1      15.341  20.702  64.987  0.00  0.00     0.163 HD
BRANCH  55  58
ATOM     58  C27 AB1 d   1      14.696  23.155  65.495  0.00  0.00     0.099 C 
ATOM     59  H33 AB1 d   1      14.180  23.633  66.341  0.00  0.00     0.089 H 
ATOM     60  H34 AB1 d   1      14.911  23.908  64.723  0.00  0.00     0.089 H 
BRANCH  58  61
ATOM     61  O3  AB1 d   1      15.936  22.560  65.954  0.00  0.00    -0.341 OA
BRANCH  61  62
ATOM     62  C28 AB1 d   1      16.798  23.545  66.308  0.00  0.00     0.081 A 
ATOM     63  C30 AB1 d   1      16.674  24.096  67.572  0.00  0.00    -0.028 A 
ATOM     64  C31 AB1 d   1      17.595  25.081  67.900  0.00  0.00    -0.074 A 
ATOM     65  C32 AB1 d   1      18.553  25.534  67.012  0.00  0.00    -0.082 A 
ATOM     66  H38 AB1 d   1      17.562  25.513  68.894  0.00  0.00     0.084 H 
ATOM     67  C33 AB1 d   1      18.664  24.960  65.737  0.00  0.00    -0.074 A 
ATOM     68  H39 AB1 d   1      19.221  26.337  67.302  0.00  0.00     0.083 H 
ATOM     69  C34 AB1 d   1      17.768  23.927  65.392  0.00  0.00    -0.028 A 
ATOM     70  H40 AB1 d   1      19.418  25.301  65.036  0.00  0.00     0.084 H 
BRANCH  63  71
ATOM     71  C36 AB1 d   1      15.764  23.657  68.574  0.00  0.00    -0.049 C 
ATOM     72  H44 AB1 d   1      15.106  22.880  68.157  0.00  0.00     0.033 H 
ATOM     73  H45 AB1 d   1      15.156  24.508  68.915  0.00  0.00     0.033 H 
ATOM     74  H46 AB1 d   1      16.326  23.244  69.424  0.00  0.00     0.033 H 
ENDBRANCH  63  71
BRANCH  69  75
ATOM     75  C35 AB1 d   1      17.831  23.397  64.107  0.00  0.00    -0.049 C 
ATOM     76  H41 AB1 d   1      17.073  22.607  63.998  0.00  0.00     0.033 H 
ATOM     77  H42 AB1 d   1      18.831  22.972  63.934  0.00  0.00     0.033 H 
ATOM     78  H43 AB1 d   1      17.639  24.193  63.372  0.00  0.00     0.033 H 
ENDBRANCH  69  75
ENDBRANCH  61  62
ENDBRANCH  58  61
ENDBRANCH  55  58
ENDBRANCH  52  54
BRANCH  52  79
ATOM     79  C29 AB1 d   1      14.491  19.412  62.756  0.00  0.00    -0.020 C 
ATOM     80  H36 AB1 d   1      15.446  18.995  63.108  0.00  0.00     0.043 H 
ATOM     81  H37 AB1 d   1      13.939  18.643  62.197  0.00  0.00     0.043 H 
BRANCH  79  82
ATOM     82  C4  AB1 d   1      14.776  20.471  61.876  0.00  0.00    -0.056 A 
ATOM     83  C5  AB1 d   1      16.060  20.953  61.748  0.00  0.00    -0.077 A 
ATOM     84  C6  AB1 d   1      16.453  21.984  60.927  0.00  0.00    -0.082 A 
ATOM     85  H6  AB1 d   1      16.828  20.478  62.347  0.00  0.00     0.084 H 
ATOM     86  C7  AB1 d   1      15.442  22.605  60.151  0.00  0.00    -0.083 A 
ATOM     87  H7  AB1 d   1      17.487  22.306  60.876  0.00  0.00     0.083 H 
ATOM     88  C8  AB1 d   1      14.172  22.109  60.189  0.00  0.00    -0.082 A 
ATOM     89  H8  AB1 d   1      15.676  23.465  59.534  0.00  0.00     0.083 H 
ATOM     90  C9  AB1 d   1      13.827  21.066  61.044  0.00  0.00    -0.077 A 
ATOM     91  H9  AB1 d   1      13.416  22.536  59.540  0.00  0.00     0.083 H 
ATOM     92  H10 AB1 d   1      12.803  20.710  61.064  0.00  0.00     0.084 H 
ENDBRANCH  79  82
ENDBRANCH  52  79
ENDBRANCH  50  52
BRANCH  50  93
ATOM     93  O4  AB1 d   1      14.630  18.042  65.289  0.00  0.00    -0.393 OA
ATOM     94  H35 AB1 d   1      14.473  17.292  65.851  0.00  0.00     0.210 HD
ENDBRANCH  50  93
ENDBRANCH   1  50
TORSDOF 20
