REMARK  17 active torsions:
REMARK  status: ('A' for Active; 'I' for Inactive)
REMARK    1  A    between atoms: C2_1  and  O39_38 
REMARK    2  A    between atoms: S8_7  and  C5_4 
REMARK    3  A    between atoms: N11_10  and  S8_7 
REMARK    4  A    between atoms: N11_10  and  C12_11 
REMARK    5  A    between atoms: C16_15  and  N11_10 
REMARK    6  A    between atoms: C12_11  and  C13_12 
REMARK    7  A    between atoms: C13_12  and  C14_13 
REMARK    8  A    between atoms: C13_12  and  C15_14 
REMARK    9  A    between atoms: C17_16  and  C16_15 
REMARK   10  A    between atoms: C17_16  and  O18_17 
REMARK   11  A    between atoms: C19_18  and  C17_16 
REMARK   12  A    between atoms: C19_18  and  N20_19 
REMARK   13  A    between atoms: C32_31  and  C19_18 
REMARK       I    between atoms: N20_19  and  C21_20 
REMARK   14  A    between atoms: C21_20  and  O23_22 
REMARK   15  A    between atoms: O23_22  and  C24_23 
REMARK   16  A    between atoms: C38_37  and  C32_31 
REMARK   17  A    between atoms: O39_38  and  C40_39 
ROOT
ATOM      1  C19 G52 d   1      15.082  22.875  17.001  0.00  0.00     0.044 C 
ATOM      2  H18 G52 d   1      16.001  22.337  16.725  0.00  0.00     0.077 H 
ENDROOT
BRANCH   1   3
ATOM      3  C17 G52 d   1      15.417  24.034  17.943  0.00  0.00     0.067 C 
ATOM      4  H16 G52 d   1      15.716  23.591  18.904  0.00  0.00     0.088 H 
BRANCH   3   5
ATOM      5  C16 G52 d   1      16.600  24.864  17.465  0.00  0.00     0.019 C 
ATOM      6  H14 G52 d   1      16.412  25.210  16.438  0.00  0.00     0.061 H 
ATOM      7  H15 G52 d   1      16.728  25.733  18.127  0.00  0.00     0.061 H 
BRANCH   5   8
ATOM      8  N11 G52 d   1      17.814  24.052  17.489  0.00  0.00    -0.204 NA
BRANCH   8   9
ATOM      9  S8  G52 d   1      18.509  23.909  16.016  0.00  0.00     0.243 S 
ATOM     10  O9  G52 d   1      17.444  23.758  14.980  0.00  0.00    -0.206 OA
ATOM     11  O10 G52 d   1      19.415  22.723  16.072  0.00  0.00    -0.206 OA
BRANCH   9  12
ATOM     12  C5  G52 d   1      19.448  25.342  15.634  0.00  0.00     0.074 A 
ATOM     13  C4  G52 d   1      18.865  26.417  14.959  0.00  0.00    -0.058 A 
ATOM     14  C3  G52 d   1      19.630  27.547  14.692  0.00  0.00    -0.049 A 
ATOM     15  H2  G52 d   1      17.828  26.371  14.647  0.00  0.00     0.086 H 
ATOM     16  C2  G52 d   1      20.983  27.606  15.038  0.00  0.00     0.068 A 
ATOM     17  H1  G52 d   1      19.168  28.399  14.206  0.00  0.00     0.087 H 
ATOM     18  C7  G52 d   1      21.571  26.521  15.683  0.00  0.00    -0.049 A 
ATOM     19  C6  G52 d   1      20.794  25.402  15.971  0.00  0.00    -0.058 A 
ATOM     20  H4  G52 d   1      22.619  26.547  15.957  0.00  0.00     0.087 H 
ATOM     21  H3  G52 d   1      21.251  24.556  16.471  0.00  0.00     0.086 H 
BRANCH  16  22
ATOM     22  O39 G52 d   1      21.704  28.733  14.783  0.00  0.00    -0.356 OA
BRANCH  22  23
ATOM     23  C40 G52 d   1      23.093  28.541  15.022  0.00  0.00     0.010 C 
ATOM     24  H34 G52 d   1      23.635  29.473  14.804  0.00  0.00     0.066 H 
ATOM     25  H35 G52 d   1      23.469  27.738  14.372  0.00  0.00     0.066 H 
ATOM     26  H36 G52 d   1      23.249  28.264  16.075  0.00  0.00     0.066 H 
ENDBRANCH  22  23
ENDBRANCH  16  22
ENDBRANCH   9  12
ENDBRANCH   8   9
BRANCH   8  27
ATOM     27  C12 G52 d   1      18.762  24.474  18.515  0.00  0.00    -0.004 C 
ATOM     28  H5  G52 d   1      18.637  25.551  18.702  0.00  0.00     0.058 H 
ATOM     29  H6  G52 d   1      19.786  24.280  18.163  0.00  0.00     0.058 H 
BRANCH  27  30
ATOM     30  C13 G52 d   1      18.523  23.704  19.820  0.00  0.00    -0.049 C 
ATOM     31  H7  G52 d   1      17.616  24.122  20.282  0.00  0.00     0.040 H 
BRANCH  30  32
ATOM     32  C14 G52 d   1      18.271  22.215  19.578  0.00  0.00    -0.072 C 
ATOM     33  H8  G52 d   1      18.106  21.710  20.541  0.00  0.00     0.028 H 
ATOM     34  H9  G52 d   1      19.144  21.772  19.076  0.00  0.00     0.028 H 
ATOM     35  H10 G52 d   1      17.382  22.092  18.942  0.00  0.00     0.028 H 
ENDBRANCH  30  32
BRANCH  30  36
ATOM     36  C15 G52 d   1      19.677  23.893  20.810  0.00  0.00    -0.072 C 
ATOM     37  H11 G52 d   1      19.847  24.967  20.974  0.00  0.00     0.028 H 
ATOM     38  H12 G52 d   1      20.590  23.436  20.401  0.00  0.00     0.028 H 
ATOM     39  H13 G52 d   1      19.423  23.412  21.766  0.00  0.00     0.028 H 
ENDBRANCH  30  36
ENDBRANCH  27  30
ENDBRANCH   8  27
ENDBRANCH   5   8
ENDBRANCH   3   5
BRANCH   3  40
ATOM     40  O18 G52 d   1      14.256  24.817  18.189  0.00  0.00    -0.392 OA
ATOM     41  H17 G52 d   1      13.997  25.257  17.388  0.00  0.00     0.210 HD
ENDBRANCH   3  40
ENDBRANCH   1   3
BRANCH   1  42
ATOM     42  N20 G52 d   1      14.140  21.980  17.698  0.00  0.00    -0.329 N 
ATOM     43  C21 G52 d   1      14.358  20.700  17.996  0.00  0.00     0.361 C 
ATOM     44  O22 G52 d   1      15.405  20.109  17.731  0.00  0.00    -0.238 OA
ATOM     45  H19 G52 d   1      13.260  22.368  17.971  0.00  0.00     0.165 HD
BRANCH  43  46
ATOM     46  O23 G52 d   1      13.339  20.045  18.622  0.00  0.00    -0.296 OA
BRANCH  46  47
ATOM     47  C24 G52 d   1      13.637  18.666  18.850  0.00  0.00     0.078 C 
ATOM     48  C25 G52 d   1      13.205  18.339  20.283  0.00  0.00     0.048 C 
ATOM     49  O26 G52 d   1      11.772  18.319  20.233  0.00  0.00    -0.358 OA
ATOM     50  H21 G52 d   1      13.558  19.112  20.981  0.00  0.00     0.078 H 
ATOM     51  H22 G52 d   1      13.597  17.359  20.593  0.00  0.00     0.078 H 
ATOM     52  C27 G52 d   1      11.374  17.924  18.924  0.00  0.00     0.140 C 
ATOM     53  O28 G52 d   1      10.520  18.900  18.352  0.00  0.00    -0.331 OA
ATOM     54  C31 G52 d   1      12.616  17.835  18.058  0.00  0.00     0.030 C 
ATOM     55  H23 G52 d   1      10.862  16.951  18.965  0.00  0.00     0.129 H 
ATOM     56  C29 G52 d   1      11.012  19.352  17.099  0.00  0.00     0.138 C 
ATOM     57  C30 G52 d   1      12.213  18.495  16.736  0.00  0.00     0.006 C 
ATOM     58  O41 G52 d   1      10.030  19.077  16.087  0.00  0.00    -0.361 OA
ATOM     59  H24 G52 d   1      11.268  20.421  17.136  0.00  0.00     0.129 H 
ATOM     60  C43 G52 d   1      11.631  17.442  15.782  0.00  0.00    -0.037 C 
ATOM     61  H25 G52 d   1      13.039  19.062  16.282  0.00  0.00     0.048 H 
ATOM     62  C42 G52 d   1      10.122  17.654  15.888  0.00  0.00     0.023 C 
ATOM     63  H39 G52 d   1      11.908  16.427  16.102  0.00  0.00     0.036 H 
ATOM     64  H40 G52 d   1      11.979  17.610  14.752  0.00  0.00     0.036 H 
ATOM     65  H37 G52 d   1       9.610  17.346  14.964  0.00  0.00     0.074 H 
ATOM     66  H38 G52 d   1       9.701  17.103  16.742  0.00  0.00     0.074 H 
ATOM     67  H26 G52 d   1      12.966  16.804  17.900  0.00  0.00     0.052 H 
ATOM     68  H20 G52 d   1      14.685  18.417  18.629  0.00  0.00     0.088 H 
ENDBRANCH  46  47
ENDBRANCH  43  46
ENDBRANCH   1  42
BRANCH   1  69
ATOM     69  C32 G52 d   1      14.364  23.383  15.739  0.00  0.00    -0.020 C 
ATOM     70  H27 G52 d   1      15.018  24.084  15.201  0.00  0.00     0.043 H 
ATOM     71  H28 G52 d   1      13.434  23.896  16.026  0.00  0.00     0.043 H 
BRANCH  69  72
ATOM     72  C38 G52 d   1      14.033  22.189  14.831  0.00  0.00    -0.056 A 
ATOM     73  C33 G52 d   1      12.727  21.712  14.790  0.00  0.00    -0.077 A 
ATOM     74  C34 G52 d   1      12.408  20.632  13.980  0.00  0.00    -0.082 A 
ATOM     75  H29 G52 d   1      11.958  22.184  15.391  0.00  0.00     0.084 H 
ATOM     76  C35 G52 d   1      13.397  20.013  13.220  0.00  0.00    -0.083 A 
ATOM     77  H30 G52 d   1      11.387  20.269  13.939  0.00  0.00     0.083 H 
ATOM     78  C36 G52 d   1      14.703  20.482  13.269  0.00  0.00    -0.082 A 
ATOM     79  H31 G52 d   1      13.148  19.166  12.591  0.00  0.00     0.083 H 
ATOM     80  C37 G52 d   1      15.021  21.574  14.076  0.00  0.00    -0.077 A 
ATOM     81  H32 G52 d   1      15.475  20.000  12.680  0.00  0.00     0.083 H 
ATOM     82  H33 G52 d   1      16.040  21.942  14.113  0.00  0.00     0.084 H 
ENDBRANCH  69  72
ENDBRANCH   1  69
TORSDOF 17
