REMARK  16 active torsions:
REMARK  status: ('A' for Active; 'I' for Inactive)
REMARK    1  A    between atoms: C2_2  and  N1_1 
REMARK    2  A    between atoms: S8_8  and  C5_5 
REMARK    3  A    between atoms: N11_11  and  S8_8 
REMARK    4  A    between atoms: N11_11  and  C12_12 
REMARK    5  A    between atoms: C16_16  and  N11_11 
REMARK    6  A    between atoms: C12_12  and  C13_13 
REMARK    7  A    between atoms: C13_13  and  C14_14 
REMARK    8  A    between atoms: C13_13  and  C15_15 
REMARK    9  A    between atoms: C17_17  and  C16_16 
REMARK   10  A    between atoms: C17_17  and  O18_18 
REMARK   11  A    between atoms: C19_19  and  C17_17 
REMARK   12  A    between atoms: C19_19  and  N20_20 
REMARK   13  A    between atoms: C32_32  and  C19_19 
REMARK       I    between atoms: N20_20  and  C21_21 
REMARK   14  A    between atoms: C21_21  and  O23_23 
REMARK   15  A    between atoms: O23_23  and  C24_24 
REMARK   16  A    between atoms: C38_38  and  C32_32 
ROOT
ATOM      1  C19 G10 d   1      13.905  20.184  17.150  0.00  0.00     0.044 C 
ATOM      2  H20 G10 d   1      13.004  20.726  16.826  0.00  0.00     0.077 H 
ENDROOT
BRANCH   1   3
ATOM      3  C17 G10 d   1      13.483  19.028  18.066  0.00  0.00     0.071 C 
ATOM      4  H18 G10 d   1      13.099  19.489  18.988  0.00  0.00     0.088 H 
BRANCH   3   5
ATOM      5  C16 G10 d   1      12.356  18.155  17.535  0.00  0.00     0.031 C 
ATOM      6  H16 G10 d   1      12.571  17.893  16.488  0.00  0.00     0.069 H 
ATOM      7  H17 G10 d   1      12.301  17.237  18.139  0.00  0.00     0.069 H 
BRANCH   5   8
ATOM      8  N11 G10 d   1      11.084  18.832  17.596  0.00  0.00    -0.304 N 
BRANCH   8   9
ATOM      9  S8  G10 d   1      10.467  19.196  16.123  0.00  0.00     0.260 S 
ATOM     10  O9  G10 d   1      11.524  19.411  15.153  0.00  0.00    -0.200 OA
ATOM     11  O10 G10 d   1       9.532  20.307  16.353  0.00  0.00    -0.200 OA
BRANCH   9  12
ATOM     12  C5  G10 d   1       9.522  17.789  15.620  0.00  0.00     0.079 A 
ATOM     13  C4  G10 d   1      10.116  16.767  14.878  0.00  0.00    -0.058 A 
ATOM     14  C3  G10 d   1       9.313  15.698  14.525  0.00  0.00    -0.056 A 
ATOM     15  H4  G10 d   1      11.161  16.809  14.591  0.00  0.00     0.086 H 
ATOM     16  C2  G10 d   1       7.968  15.603  14.862  0.00  0.00     0.025 A 
ATOM     17  H3  G10 d   1       9.757  14.890  13.954  0.00  0.00     0.086 H 
ATOM     18  C7  G10 d   1       7.394  16.618  15.629  0.00  0.00    -0.056 A 
ATOM     19  C6  G10 d   1       8.191  17.701  15.992  0.00  0.00    -0.058 A 
ATOM     20  H6  G10 d   1       6.355  16.565  15.934  0.00  0.00     0.086 H 
ATOM     21  H5  G10 d   1       7.756  18.499  16.583  0.00  0.00     0.086 H 
BRANCH  16  22
ATOM     22  N1  G10 d   1       7.243  14.544  14.492  0.00  0.00    -0.399 N 
ATOM     23  H1  G10 d   1       7.672  13.798  13.926  0.00  0.00     0.156 HD
ATOM     24  H2  G10 d   1       6.255  14.473  14.773  0.00  0.00     0.156 HD
ENDBRANCH  16  22
ENDBRANCH   9  12
ENDBRANCH   8   9
BRANCH   8  25
ATOM     25  C12 G10 d   1      10.112  18.531  18.614  0.00  0.00     0.008 C 
ATOM     26  H7  G10 d   1      10.076  17.441  18.756  0.00  0.00     0.066 H 
ATOM     27  H8  G10 d   1       9.128  18.890  18.279  0.00  0.00     0.066 H 
BRANCH  25  28
ATOM     28  C13 G10 d   1      10.446  19.192  19.960  0.00  0.00    -0.045 C 
ATOM     29  H9  G10 d   1      11.463  18.885  20.244  0.00  0.00     0.041 H 
BRANCH  28  30
ATOM     30  C14 G10 d   1      10.431  20.718  19.838  0.00  0.00    -0.072 C 
ATOM     31  H10 G10 d   1      10.673  21.166  20.813  0.00  0.00     0.028 H 
ATOM     32  H11 G10 d   1       9.432  21.051  19.519  0.00  0.00     0.028 H 
ATOM     33  H12 G10 d   1      11.177  21.034  19.094  0.00  0.00     0.028 H 
ENDBRANCH  28  30
BRANCH  28  34
ATOM     34  C15 G10 d   1       9.482  18.720  21.066  0.00  0.00    -0.072 C 
ATOM     35  H13 G10 d   1       9.511  17.622  21.134  0.00  0.00     0.028 H 
ATOM     36  H14 G10 d   1       8.459  19.046  20.825  0.00  0.00     0.028 H 
ATOM     37  H15 G10 d   1       9.788  19.155  22.029  0.00  0.00     0.028 H 
ENDBRANCH  28  34
ENDBRANCH  25  28
ENDBRANCH   8  25
ENDBRANCH   5   8
ENDBRANCH   3   5
BRANCH   3  38
ATOM     38  O18 G10 d   1      14.635  18.247  18.434  0.00  0.00    -0.392 OA
ATOM     39  H19 G10 d   1      14.954  17.777  17.672  0.00  0.00     0.210 HD
ENDBRANCH   3  38
ENDBRANCH   1   3
BRANCH   1  40
ATOM     40  N20 G10 d   1      14.798  21.101  17.867  0.00  0.00    -0.329 N 
ATOM     41  C21 G10 d   1      14.487  22.348  18.248  0.00  0.00     0.361 C 
ATOM     42  O22 G10 d   1      13.365  22.838  18.009  0.00  0.00    -0.238 OA
ATOM     43  H21 G10 d   1      15.714  20.768  18.090  0.00  0.00     0.165 HD
BRANCH  41  44
ATOM     44  O23 G10 d   1      15.506  22.983  18.880  0.00  0.00    -0.296 OA
BRANCH  44  45
ATOM     45  C24 G10 d   1      15.318  24.368  19.215  0.00  0.00     0.084 C 
ATOM     46  C25 G10 d   1      15.920  24.591  20.602  0.00  0.00     0.048 C 
ATOM     47  O26 G10 d   1      17.341  24.613  20.425  0.00  0.00    -0.358 OA
ATOM     48  H23 G10 d   1      15.633  23.772  21.278  0.00  0.00     0.078 H 
ATOM     49  H24 G10 d   1      15.573  25.548  21.018  0.00  0.00     0.078 H 
ATOM     50  C27 G10 d   1      17.597  25.154  19.134  0.00  0.00     0.142 C 
ATOM     51  O28 G10 d   1      18.425  24.222  18.436  0.00  0.00    -0.355 OA
ATOM     52  C31 G10 d   1      16.291  25.230  18.381  0.00  0.00     0.086 C 
ATOM     53  H25 G10 d   1      18.075  26.142  19.205  0.00  0.00     0.130 H 
ATOM     54  C29 G10 d   1      17.809  23.722  17.250  0.00  0.00     0.084 C 
ATOM     55  C30 G10 d   1      16.665  24.687  17.026  0.00  0.00     0.275 C 
ATOM     56  H26 G10 d   1      17.438  22.697  17.399  0.00  0.00     0.083 H 
ATOM     57  H27 G10 d   1      18.511  23.738  16.403  0.00  0.00     0.083 H 
ATOM     58  F39 G10 d   1      15.606  24.119  16.406  0.00  0.00    -0.203 F 
ATOM     59  F40 G10 d   1      17.130  25.685  16.231  0.00  0.00    -0.203 F 
ATOM     60  H28 G10 d   1      15.906  26.256  18.291  0.00  0.00     0.060 H 
ATOM     61  H22 G10 d   1      14.266  24.676  19.127  0.00  0.00     0.088 H 
ENDBRANCH  44  45
ENDBRANCH  41  44
ENDBRANCH   1  40
BRANCH   1  62
ATOM     62  C32 G10 d   1      14.662  19.677  15.916  0.00  0.00    -0.020 C 
ATOM     63  H29 G10 d   1      14.020  18.966  15.375  0.00  0.00     0.043 H 
ATOM     64  H30 G10 d   1      15.577  19.166  16.248  0.00  0.00     0.043 H 
BRANCH  62  65
ATOM     65  C38 G10 d   1      15.049  20.807  14.967  0.00  0.00    -0.056 A 
ATOM     66  C33 G10 d   1      16.407  21.137  14.855  0.00  0.00    -0.077 A 
ATOM     67  C34 G10 d   1      16.814  22.162  14.027  0.00  0.00    -0.082 A 
ATOM     68  H31 G10 d   1      17.144  20.582  15.424  0.00  0.00     0.084 H 
ATOM     69  C35 G10 d   1      15.881  22.905  13.301  0.00  0.00    -0.083 A 
ATOM     70  H32 G10 d   1      17.869  22.393  13.939  0.00  0.00     0.083 H 
ATOM     71  C36 G10 d   1      14.541  22.553  13.374  0.00  0.00    -0.082 A 
ATOM     72  H33 G10 d   1      16.198  23.743  12.691  0.00  0.00     0.083 H 
ATOM     73  C37 G10 d   1      14.109  21.520  14.214  0.00  0.00    -0.077 A 
ATOM     74  H34 G10 d   1      13.816  23.087  12.770  0.00  0.00     0.083 H 
ATOM     75  H35 G10 d   1      13.055  21.274  14.281  0.00  0.00     0.084 H 
ENDBRANCH  62  65
ENDBRANCH   1  62
TORSDOF 16
