REMARK  4 active torsions:
REMARK  status: ('A' for Active; 'I' for Inactive)
REMARK    1  A    between atoms: C1_1  and  C_19 
REMARK    2  A    between atoms: C4_4  and  C5_5 
REMARK    3  A    between atoms: C7_20  and  C6_14 
REMARK    4  A    between atoms: C7_20  and  C8_21 
ROOT
ATOM      1  C1  GUJ d   1      12.129   3.895  -0.938  0.00  0.00     0.131 A 
ATOM      2  C2  GUJ d   1      12.999   5.264   0.518  0.00  0.00     0.159 A 
ATOM      3  C3  GUJ d   1      10.587   5.561   0.160  0.00  0.00     0.093 A 
ATOM      4  C4  GUJ d   1       8.245   6.465   0.039  0.00  0.00    -0.012 A 
ATOM      5  C14 GUJ d   1      10.126   6.090   1.386  0.00  0.00     0.007 A 
ATOM      6  C16 GUJ d   1      13.042   6.180   1.703  0.00  0.00     0.076 C 
ATOM      7  C15 GUJ d   1      10.875   6.169   2.680  0.00  0.00     0.047 C 
ATOM      8  S   GUJ d   1       9.372   5.727  -1.063  0.00  0.00    -0.076 SA
ATOM      9  C6  GUJ d   1       8.777   6.590   1.289  0.00  0.00    -0.030 A 
ATOM     10  O   GUJ d   1      12.201   5.666   2.726  0.00  0.00    -0.379 OA
ATOM     11  N1  GUJ d   1      13.967   4.516   0.064  0.00  0.00    -0.132 NA
ATOM     12  N   GUJ d   1      13.409   3.641  -0.853  0.00  0.00    -0.135 NA
ATOM     13  N2  GUJ d   1      11.817   4.932  -0.099  0.00  0.00    -0.276 N 
ATOM     14  H8  GUJ d   1      12.691   7.180   1.407  0.00  0.00     0.086 H 
ATOM     15  H9  GUJ d   1      14.074   6.249   2.076  0.00  0.00     0.086 H 
ATOM     16  H10 GUJ d   1      10.291   5.613   3.428  0.00  0.00     0.082 H 
ATOM     17  H11 GUJ d   1      10.920   7.231   2.965  0.00  0.00     0.082 H 
ENDROOT
BRANCH   9  18
ATOM     18  C7  GUJ d   1       8.019   7.098   2.487  0.00  0.00    -0.015 C 
ATOM     19  H15 GUJ d   1       7.095   7.582   2.138  0.00  0.00     0.047 H 
ATOM     20  H16 GUJ d   1       8.644   7.836   3.011  0.00  0.00     0.047 H 
BRANCH  18  21
ATOM     21  C8  GUJ d   1       7.651   6.000   3.460  0.00  0.00    -0.054 A 
ATOM     22  C13 GUJ d   1       8.034   6.071   4.795  0.00  0.00    -0.077 A 
ATOM     23  C12 GUJ d   1       7.741   5.038   5.672  0.00  0.00    -0.082 A 
ATOM     24  H7  GUJ d   1       8.568   6.944   5.154  0.00  0.00     0.084 H 
ATOM     25  C11 GUJ d   1       7.032   3.935   5.235  0.00  0.00    -0.083 A 
ATOM     26  H6  GUJ d   1       8.069   5.096   6.704  0.00  0.00     0.083 H 
ATOM     27  C10 GUJ d   1       6.644   3.852   3.912  0.00  0.00    -0.082 A 
ATOM     28  H5  GUJ d   1       6.782   3.139   5.927  0.00  0.00     0.083 H 
ATOM     29  C9  GUJ d   1       6.958   4.874   3.028  0.00  0.00    -0.077 A 
ATOM     30  H4  GUJ d   1       6.093   2.986   3.564  0.00  0.00     0.083 H 
ATOM     31  H17 GUJ d   1       6.660   4.794   1.989  0.00  0.00     0.084 H 
ENDBRANCH  18  21
ENDBRANCH   9  18
BRANCH   4  32
ATOM     32  C5  GUJ d   1       6.888   6.852  -0.464  0.00  0.00    -0.045 C 
ATOM     33  H1  GUJ d   1       6.308   7.301   0.355  0.00  0.00     0.034 H 
ATOM     34  H2  GUJ d   1       6.366   5.958  -0.836  0.00  0.00     0.034 H 
ATOM     35  H3  GUJ d   1       6.994   7.581  -1.281  0.00  0.00     0.034 H 
ENDBRANCH   4  32
BRANCH   1  36
ATOM     36  C   GUJ d   1      11.163   3.160  -1.796  0.00  0.00    -0.019 C 
ATOM     37  H12 GUJ d   1      11.694   2.380  -2.361  0.00  0.00     0.037 H 
ATOM     38  H13 GUJ d   1      10.688   3.862  -2.497  0.00  0.00     0.037 H 
ATOM     39  H14 GUJ d   1      10.392   2.694  -1.164  0.00  0.00     0.037 H 
ENDBRANCH   1  36
TORSDOF 4
