REMARK  7 active torsions:
REMARK  status: ('A' for Active; 'I' for Inactive)
REMARK    1  A    between atoms: N14_19  and  C13_2 
REMARK    2  A    between atoms: C24_6  and  O25_22 
REMARK    3  A    between atoms: N02_16  and  C01_7 
REMARK    4  A    between atoms: S07_23  and  C06_9 
REMARK    5  A    between atoms: C08_10  and  S07_23 
REMARK    6  A    between atoms: S15_24  and  C18_14 
REMARK    7  A    between atoms: N14_19  and  S15_24 
ROOT
ATOM      1  C10 H7M d   1      19.333   7.272 -29.315  0.00  0.00    -0.082 A 
ATOM      2  C13 H7M d   1      19.960   6.463 -26.765  0.00  0.00     0.059 A 
ATOM      3  C08 H7M d   1      20.888   6.314 -27.783  0.00  0.00     0.035 A 
ATOM      4  C09 H7M d   1      20.596   6.715 -29.060  0.00  0.00    -0.064 A 
ATOM      5  C11 H7M d   1      18.409   7.423 -28.302  0.00  0.00    -0.081 A 
ATOM      6  C12 H7M d   1      18.699   7.018 -27.024  0.00  0.00    -0.055 A 
ATOM      7  H1  H7M d   1      19.081   7.588 -30.321  0.00  0.00     0.083 H 
ATOM      8  H8  H7M d   1      21.324   6.605 -29.856  0.00  0.00     0.085 H 
ATOM      9  H9  H7M d   1      17.444   7.866 -28.518  0.00  0.00     0.083 H 
ATOM     10  H10 H7M d   1      17.968   7.125 -26.231  0.00  0.00     0.087 H 
ENDROOT
BRANCH   2  11
ATOM     11  N14 H7M d   1      20.338   5.991 -25.430  0.00  0.00    -0.279 N 
ATOM     12  H12 H7M d   1      20.332   5.013 -25.222  0.00  0.00     0.179 HD
BRANCH  11  13
ATOM     13  S15 H7M d   1      20.785   7.110 -24.242  0.00  0.00     0.266 S 
ATOM     14  O16 H7M d   1      21.638   6.382 -23.293  0.00  0.00    -0.200 OA
ATOM     15  O17 H7M d   1      21.609   8.174 -24.832  0.00  0.00    -0.200 OA
BRANCH  13  16
ATOM     16  C18 H7M d   1      19.232   7.787 -23.562  0.00  0.00     0.114 A 
ATOM     17  C24 H7M d   1      18.278   6.838 -23.109  0.00  0.00     0.110 A 
ATOM     18  C22 H7M d   1      17.081   7.299 -22.615  0.00  0.00     0.068 A 
ATOM     19  C21 H7M d   1      16.822   8.663 -22.583  0.00  0.00    -0.059 A 
ATOM     20 CL2  H7M d   1      15.817   6.201 -21.994  0.00  0.00    -0.081 Cl
ATOM     21  C20 H7M d   1      17.778   9.591 -23.050  0.00  0.00    -0.080 A 
ATOM     22  H3  H7M d   1      15.875   9.019 -22.195  0.00  0.00     0.086 H 
ATOM     23  C19 H7M d   1      18.982   9.146 -23.544  0.00  0.00    -0.057 A 
ATOM     24  H2  H7M d   1      17.563  10.653 -23.019  0.00  0.00     0.083 H 
ATOM     25  H11 H7M d   1      19.721   9.848 -23.912  0.00  0.00     0.086 H 
BRANCH  17  26
ATOM     26  O25 H7M d   1      18.639   5.419 -23.203  0.00  0.00    -0.357 OA
ATOM     27  H13 H7M d   1      19.420   5.257 -22.687  0.00  0.00     0.217 HD
ENDBRANCH  17  26
ENDBRANCH  13  16
ENDBRANCH  11  13
ENDBRANCH   2  11
BRANCH   3  28
ATOM     28  S07 H7M d   1      22.504   5.550 -27.374  0.00  0.00    -0.048 SA
BRANCH  28  29
ATOM     29  C06 H7M d   1      23.553   5.828 -28.857  0.00  0.00     0.195 A 
ATOM     30  N02 H7M d   1      24.412   6.819 -29.014  0.00  0.00    -0.322 N 
ATOM     31  C03 H7M d   1      24.970   6.692 -30.207  0.00  0.00     0.089 A 
ATOM     32  N04 H7M d   1      24.462   5.624 -30.794  0.00  0.00    -0.143 NA
ATOM     33  H7  H7M d   1      25.721   7.356 -30.633  0.00  0.00     0.146 H 
ATOM     34  N05 H7M d   1      23.560   5.077 -29.937  0.00  0.00    -0.123 NA
BRANCH  30  35
ATOM     35  C01 H7M d   1      24.687   7.862 -28.046  0.00  0.00    -0.011 C 
ATOM     36  H4  H7M d   1      25.446   8.547 -28.451  0.00  0.00     0.057 H 
ATOM     37  H5  H7M d   1      25.061   7.410 -27.116  0.00  0.00     0.057 H 
ATOM     38  H6  H7M d   1      23.763   8.421 -27.836  0.00  0.00     0.057 H 
ENDBRANCH  30  35
ENDBRANCH  28  29
ENDBRANCH   3  28
TORSDOF 7
