REMARK  6 active torsions:
REMARK  status: ('A' for Active; 'I' for Inactive)
REMARK    1  A    between atoms: C20_3  and  O21_20 
REMARK    2  A    between atoms: C04_6  and  C02_5 
REMARK    3  A    between atoms: C05_7  and  C04_6 
REMARK    4  A    between atoms: N10_15  and  C09_11 
REMARK    5  A    between atoms: S11_21  and  C14_12 
REMARK    6  A    between atoms: N10_15  and  S11_21 
ROOT
ATOM      1  N10 H7G d   1      21.038   5.408 -25.286  0.00  0.00    -0.281 N 
ATOM      2  H10 H7G d   1      20.902   4.449 -25.037  0.00  0.00     0.179 HD
ENDROOT
BRANCH   1   3
ATOM      3  C09 H7G d   1      20.926   5.847 -26.673  0.00  0.00     0.043 A 
ATOM      4  C22 H7G d   1      21.977   5.611 -27.547  0.00  0.00    -0.050 A 
ATOM      5  C05 H7G d   1      21.876   5.998 -28.875  0.00  0.00    -0.046 A 
ATOM      6  H3  H7G d   1      22.878   5.124 -27.192  0.00  0.00     0.087 H 
ATOM      7  C06 H7G d   1      20.732   6.638 -29.320  0.00  0.00    -0.076 A 
ATOM      8  C07 H7G d   1      19.674   6.877 -28.448  0.00  0.00    -0.080 A 
ATOM      9  H6  H7G d   1      20.660   6.955 -30.354  0.00  0.00     0.084 H 
ATOM     10  C08 H7G d   1      19.776   6.484 -27.116  0.00  0.00    -0.057 A 
ATOM     11  H7  H7G d   1      18.775   7.367 -28.804  0.00  0.00     0.083 H 
ATOM     12  H8  H7G d   1      18.960   6.675 -26.428  0.00  0.00     0.086 H 
BRANCH   5  13
ATOM     13  C04 H7G d   1      23.043   5.729 -29.828  0.00  0.00     0.040 C 
ATOM     14  H4  H7G d   1      23.357   6.694 -30.253  0.00  0.00     0.056 H 
ATOM     15  H5  H7G d   1      23.867   5.303 -29.237  0.00  0.00     0.056 H 
BRANCH  13  16
ATOM     16  C02 H7G d   1      22.760   4.767 -31.002  0.00  0.00     0.176 C 
ATOM     17  O01 H7G d   1      23.652   4.605 -31.876  0.00  0.00    -0.648 OA
ATOM     18  O03 H7G d   1      21.670   4.132 -31.126  0.00  0.00    -0.648 OA
ENDBRANCH  13  16
ENDBRANCH   5  13
ENDBRANCH   1   3
BRANCH   1  19
ATOM     19  S11 H7G d   1      21.409   6.581 -24.098  0.00  0.00     0.266 S 
ATOM     20  O12 H7G d   1      21.983   5.952 -22.912  0.00  0.00    -0.200 OA
ATOM     21  O13 H7G d   1      22.447   7.466 -24.616  0.00  0.00    -0.200 OA
BRANCH  19  22
ATOM     22  C14 H7G d   1      19.879   7.441 -23.613  0.00  0.00     0.114 A 
ATOM     23  C15 H7G d   1      19.769   8.819 -23.691  0.00  0.00    -0.057 A 
ATOM     24  C16 H7G d   1      18.589   9.439 -23.313  0.00  0.00    -0.080 A 
ATOM     25  H1  H7G d   1      20.604   9.411 -24.047  0.00  0.00     0.086 H 
ATOM     26  C17 H7G d   1      17.511   8.694 -22.847  0.00  0.00    -0.059 A 
ATOM     27  H9  H7G d   1      18.505  10.518 -23.381  0.00  0.00     0.083 H 
ATOM     28  C18 H7G d   1      17.632   7.310 -22.767  0.00  0.00     0.068 A 
ATOM     29  H2  H7G d   1      16.591   9.184 -22.551  0.00  0.00     0.086 H 
ATOM     30  C20 H7G d   1      18.811   6.687 -23.152  0.00  0.00     0.110 A 
ATOM     31 CL1  H7G d   1      16.272   6.315 -22.173  0.00  0.00    -0.081 Cl
BRANCH  30  32
ATOM     32  O21 H7G d   1      18.918   5.283 -23.081  0.00  0.00    -0.357 OA
ATOM     33  H11 H7G d   1      18.790   5.002 -22.183  0.00  0.00     0.217 HD
ENDBRANCH  30  32
ENDBRANCH  19  22
ENDBRANCH   1  19
TORSDOF 6
