REMARK  6 active torsions:
REMARK  status: ('A' for Active; 'I' for Inactive)
REMARK    1  A    between atoms: C22_6  and  C23_16 
REMARK    2  A    between atoms: C02_8  and  C01_7 
REMARK    3  A    between atoms: C04_9  and  C05_10 
REMARK    4  A    between atoms: S07_25  and  C06_11 
REMARK    5  A    between atoms: N10_18  and  C11_12 
REMARK    6  A    between atoms: N10_18  and  S07_25 
ROOT
ATOM      1  N10 H7A d   1      20.852   5.641 -25.476  0.00  0.00    -0.306 N 
ATOM      2  H15 H7A d   1      20.193   4.929 -25.234  0.00  0.00     0.173 HD
ENDROOT
BRANCH   1   3
ATOM      3  C11 H7A d   1      21.197   5.726 -26.911  0.00  0.00     0.050 C 
ATOM      4  C21 H7A d   1      20.044   6.413 -27.697  0.00  0.00     0.001 A 
ATOM      5  C15 H7A d   1      20.256   6.580 -29.057  0.00  0.00     0.077 A 
ATOM      6  C20 H7A d   1      18.855   6.800 -27.079  0.00  0.00    -0.035 A 
ATOM      7  C16 H7A d   1      19.248   7.155 -29.841  0.00  0.00    -0.047 A 
ATOM      8  O14 H7A d   1      21.509   6.142 -29.628  0.00  0.00    -0.350 OA
ATOM      9  C17 H7A d   1      18.057   7.555 -29.233  0.00  0.00    -0.043 A 
ATOM     10  H14 H7A d   1      19.391   7.288 -30.907  0.00  0.00     0.087 H 
ATOM     11  C18 H7A d   1      17.853   7.378 -27.852  0.00  0.00     0.117 A 
ATOM     12  H3  H7A d   1      17.277   8.009 -29.834  0.00  0.00     0.088 H 
ATOM     13  F19 H7A d   1      16.676   7.765 -27.260  0.00  0.00    -0.206 F 
ATOM     14  C13 H7A d   1      22.671   6.181 -28.831  0.00  0.00     0.028 C 
ATOM     15  C12 H7A d   1      22.525   6.281 -27.328  0.00  0.00    -0.021 C 
ATOM     16  H1  H7A d   1      23.236   5.261 -29.040  0.00  0.00     0.075 H 
ATOM     17  H2  H7A d   1      23.257   7.053 -29.157  0.00  0.00     0.075 H 
ATOM     18  H12 H7A d   1      22.592   7.336 -27.024  0.00  0.00     0.039 H 
ATOM     19  H13 H7A d   1      23.329   5.708 -26.844  0.00  0.00     0.039 H 
ATOM     20  H4  H7A d   1      18.714   6.653 -26.014  0.00  0.00     0.089 H 
ATOM     21  H11 H7A d   1      21.221   4.680 -27.250  0.00  0.00     0.081 H 
ENDBRANCH   1   3
BRANCH   1  22
ATOM     22  S07 H7A d   1      21.419   6.586 -24.178  0.00  0.00     0.263 S 
ATOM     23  O08 H7A d   1      21.671   5.721 -23.034  0.00  0.00    -0.200 OA
ATOM     24  O09 H7A d   1      22.742   7.157 -24.457  0.00  0.00    -0.200 OA
BRANCH  22  25
ATOM     25  C06 H7A d   1      20.197   7.834 -23.694  0.00  0.00     0.128 A 
ATOM     26  C22 H7A d   1      18.908   7.649 -23.189  0.00  0.00     0.095 A 
ATOM     27  C02 H7A d   1      18.376   8.922 -22.985  0.00  0.00     0.068 A 
ATOM     28  O03 H7A d   1      19.308   9.831 -23.347  0.00  0.00    -0.317 OA
ATOM     29  C04 H7A d   1      20.414   9.194 -23.775  0.00  0.00     0.073 A 
BRANCH  26  30
ATOM     30  C23 H7A d   1      18.184   6.322 -22.917  0.00  0.00     0.213 C 
ATOM     31  O24 H7A d   1      17.138   6.295 -22.212  0.00  0.00    -0.644 OA
ATOM     32  O25 H7A d   1      18.644   5.237 -23.375  0.00  0.00    -0.644 OA
ENDBRANCH  26  30
BRANCH  27  33
ATOM     33  C01 H7A d   1      16.985   9.247 -22.438  0.00  0.00    -0.030 C 
ATOM     34  H5  H7A d   1      16.855  10.338 -22.392  0.00  0.00     0.036 H 
ATOM     35  H6  H7A d   1      16.879   8.822 -21.429  0.00  0.00     0.036 H 
ATOM     36  H7  H7A d   1      16.220   8.815 -23.100  0.00  0.00     0.036 H 
ENDBRANCH  27  33
BRANCH  29  37
ATOM     37  C05 H7A d   1      21.693   9.865 -24.283  0.00  0.00    -0.030 C 
ATOM     38  H8  H7A d   1      21.578  10.958 -24.233  0.00  0.00     0.036 H 
ATOM     39  H9  H7A d   1      21.877   9.563 -25.325  0.00  0.00     0.036 H 
ATOM     40  H10 H7A d   1      22.543   9.556 -23.657  0.00  0.00     0.036 H 
ENDBRANCH  29  37
ENDBRANCH  22  25
ENDBRANCH   1  22
TORSDOF 6
