REMARK  4 active torsions:
REMARK  status: ('A' for Active; 'I' for Inactive)
REMARK    1  A    between atoms: N_1  and  C8_14 
REMARK    2  A    between atoms: S_20  and  N_1 
REMARK    3  A    between atoms: C1_4  and  C_2 
REMARK    4  A    between atoms: N1_16  and  S_20 
ROOT
ATOM      1  C1  H7D d   1      18.636   7.792 -23.153  0.00  0.00     0.051 C 
ATOM      2  C2  H7D d   1      17.830   9.065 -22.905  0.00  0.00    -0.051 C 
ATOM      3  C3  H7D d   1      18.696  10.270 -23.247  0.00  0.00    -0.064 C 
ATOM      4  C4  H7D d   1      18.125  11.123 -24.380  0.00  0.00    -0.065 C 
ATOM      5  C5  H7D d   1      17.454  10.363 -25.517  0.00  0.00    -0.065 C 
ATOM      6  C6  H7D d   1      18.359   9.378 -26.249  0.00  0.00    -0.063 C 
ATOM      7  C7  H7D d   1      18.120   7.973 -25.699  0.00  0.00    -0.045 C 
ATOM      8  C8  H7D d   1      19.149   7.670 -24.612  0.00  0.00     0.034 C 
ATOM      9  H2  H7D d   1      19.532   7.842 -22.517  0.00  0.00     0.059 H 
ATOM     10  H9  H7D d   1      17.531   9.113 -21.848  0.00  0.00     0.034 H 
ATOM     11  H10 H7D d   1      16.932   9.063 -23.540  0.00  0.00     0.034 H 
ATOM     12  H11 H7D d   1      19.691   9.911 -23.548  0.00  0.00     0.033 H 
ATOM     13  H12 H7D d   1      18.789  10.899 -22.349  0.00  0.00     0.033 H 
ATOM     14  H13 H7D d   1      18.951  11.709 -24.809  0.00  0.00     0.033 H 
ATOM     15  H14 H7D d   1      17.379  11.804 -23.945  0.00  0.00     0.033 H 
ATOM     16  H15 H7D d   1      17.085  11.097 -26.248  0.00  0.00     0.033 H 
ATOM     17  H16 H7D d   1      16.605   9.802 -25.100  0.00  0.00     0.033 H 
ATOM     18  H17 H7D d   1      19.411   9.660 -26.094  0.00  0.00     0.033 H 
ATOM     19  H18 H7D d   1      18.129   9.396 -27.325  0.00  0.00     0.033 H 
ATOM     20  H19 H7D d   1      18.219   7.239 -26.512  0.00  0.00     0.036 H 
ATOM     21  H20 H7D d   1      17.108   7.913 -25.273  0.00  0.00     0.036 H 
ATOM     22  H21 H7D d   1      19.948   8.419 -24.710  0.00  0.00     0.074 H 
ENDROOT
BRANCH   8  23
ATOM     23  N   H7D d   1      19.742   6.351 -24.923  0.00  0.00    -0.301 N 
ATOM     24  H1  H7D d   1      19.242   5.567 -25.291  0.00  0.00     0.173 HD
BRANCH  23  25
ATOM     25  S   H7D d   1      21.324   6.368 -24.577  0.00  0.00     0.299 S 
ATOM     26  O2  H7D d   1      21.547   5.342 -23.609  0.00  0.00    -0.188 OA
ATOM     27  O3  H7D d   1      21.653   7.658 -24.038  0.00  0.00    -0.188 OA
BRANCH  25  28
ATOM     28  N1  H7D d   1      22.269   6.083 -25.859  0.00  0.00    -0.193 NA
ATOM     29  C12 H7D d   1      22.710   7.310 -26.535  0.00  0.00    -0.005 C 
ATOM     30  C11 H7D d   1      23.216   6.809 -27.881  0.00  0.00    -0.052 C 
ATOM     31  H7  H7D d   1      21.872   8.010 -26.665  0.00  0.00     0.057 H 
ATOM     32  H8  H7D d   1      23.515   7.803 -25.970  0.00  0.00     0.057 H 
ATOM     33  C10 H7D d   1      22.429   5.536 -28.163  0.00  0.00    -0.052 C 
ATOM     34  H5  H7D d   1      23.029   7.558 -28.665  0.00  0.00     0.034 H 
ATOM     35  H6  H7D d   1      24.293   6.592 -27.830  0.00  0.00     0.034 H 
ATOM     36  C9  H7D d   1      21.644   5.242 -26.890  0.00  0.00    -0.005 C 
ATOM     37  H3  H7D d   1      23.113   4.705 -28.391  0.00  0.00     0.034 H 
ATOM     38  H4  H7D d   1      21.743   5.689 -29.009  0.00  0.00     0.034 H 
ATOM     39  H22 H7D d   1      21.724   4.178 -26.623  0.00  0.00     0.057 H 
ATOM     40  H23 H7D d   1      20.585   5.509 -27.018  0.00  0.00     0.057 H 
ENDBRANCH  25  28
ENDBRANCH  23  25
ENDBRANCH   8  23
BRANCH   1  41
ATOM     41  C   H7D d   1      17.822   6.619 -22.680  0.00  0.00     0.179 C 
ATOM     42  O   H7D d   1      16.798   6.766 -22.037  0.00  0.00    -0.648 OA
ATOM     43  O1  H7D d   1      18.253   5.404 -22.917  0.00  0.00    -0.648 OA
ENDBRANCH   1  41
TORSDOF 4
