REMARK  6 active torsions:
REMARK  status: ('A' for Active; 'I' for Inactive)
REMARK    1  A    between atoms: C1_2  and  C2_4 
REMARK    2  A    between atoms: C2_4  and  C3_5 
REMARK    3  A    between atoms: C3_5  and  N1_6 
REMARK    4  A    between atoms: N1_6  and  C4_7 
REMARK    5  A    between atoms: C7_9  and  C8_10 
REMARK    6  A    between atoms: C6_17  and  N5_19 
ROOT
ATOM      1  C4  K0I d   1     -24.346  20.415   3.758  0.00  0.00     0.129 A 
ATOM      2  N3  K0I d   1     -24.235  20.608   2.457  0.00  0.00    -0.209 NA
ATOM      3  C7  K0I d   1     -24.532  21.840   1.977  0.00  0.00     0.182 A 
ATOM      4  N2  K0I d   1     -24.930  22.899   2.728  0.00  0.00    -0.209 NA
ATOM      5  C6  K0I d   1     -25.035  22.673   4.028  0.00  0.00     0.131 A 
ATOM      6  C5  K0I d   1     -24.742  21.427   4.564  0.00  0.00     0.005 A 
ATOM      7  H10 K0I d   1     -24.831  21.264   5.632  0.00  0.00     0.095 H 
ENDROOT
BRANCH   5   8
ATOM      8  N5  K0I d   1     -25.435  23.722   4.820  0.00  0.00    -0.365 N 
ATOM      9  C22 K0I d   1     -25.639  25.049   4.260  0.00  0.00     0.000 C 
ATOM     10  C21 K0I d   1     -26.925  25.156   3.433  0.00  0.00    -0.026 C 
ATOM     11  H11 K0I d   1     -24.784  25.292   3.612  0.00  0.00     0.064 H 
ATOM     12  H12 K0I d   1     -25.691  25.774   5.085  0.00  0.00     0.064 H 
ATOM     13  C20 K0I d   1     -28.245  25.072   4.208  0.00  0.00    -0.050 A 
ATOM     14  H13 K0I d   1     -26.918  24.339   2.696  0.00  0.00     0.042 H 
ATOM     15  H14 K0I d   1     -26.906  26.123   2.909  0.00  0.00     0.042 H 
ATOM     16  C15 K0I d   1     -28.320  24.862   5.600  0.00  0.00    -0.050 A 
ATOM     17  C19 K0I d   1     -29.444  25.207   3.497  0.00  0.00    -0.076 A 
ATOM     18  C14 K0I d   1     -27.017  24.709   6.407  0.00  0.00    -0.026 C 
ATOM     19  C16 K0I d   1     -29.577  24.794   6.210  0.00  0.00    -0.076 A 
ATOM     20  C13 K0I d   1     -26.222  23.482   6.007  0.00  0.00     0.000 C 
ATOM     21  H15 K0I d   1     -27.271  24.631   7.474  0.00  0.00     0.042 H 
ATOM     22  H16 K0I d   1     -26.394  25.601   6.242  0.00  0.00     0.042 H 
ATOM     23  H17 K0I d   1     -25.549  23.208   6.832  0.00  0.00     0.064 H 
ATOM     24  H18 K0I d   1     -26.919  22.653   5.812  0.00  0.00     0.064 H 
ATOM     25  C17 K0I d   1     -30.751  24.932   5.486  0.00  0.00    -0.082 A 
ATOM     26  H22 K0I d   1     -29.635  24.629   7.280  0.00  0.00     0.084 H 
ATOM     27  C18 K0I d   1     -30.682  25.139   4.118  0.00  0.00    -0.082 A 
ATOM     28  H21 K0I d   1     -31.712  24.879   5.985  0.00  0.00     0.083 H 
ATOM     29  H20 K0I d   1     -31.590  25.247   3.536  0.00  0.00     0.083 H 
ATOM     30  H19 K0I d   1     -29.403  25.370   2.426  0.00  0.00     0.084 H 
ENDBRANCH   5   8
BRANCH   3  31
ATOM     31  C8  K0I d   1     -24.409  22.060   0.507  0.00  0.00     0.104 A 
ATOM     32  N4  K0I d   1     -24.215  20.963  -0.263  0.00  0.00    -0.257 NA
ATOM     33  C12 K0I d   1     -24.103  21.149  -1.597  0.00  0.00     0.003 A 
ATOM     34  C11 K0I d   1     -24.184  22.402  -2.179  0.00  0.00    -0.066 A 
ATOM     35  H6  K0I d   1     -23.944  20.286  -2.234  0.00  0.00     0.114 H 
ATOM     36  C10 K0I d   1     -24.381  23.487  -1.390  0.00  0.00    -0.079 A 
ATOM     37  H7  K0I d   1     -24.091  22.515  -3.253  0.00  0.00     0.085 H 
ATOM     38  C9  K0I d   1     -24.495  23.328  -0.048  0.00  0.00    -0.051 A 
ATOM     39  H8  K0I d   1     -24.447  24.476  -1.829  0.00  0.00     0.083 H 
ATOM     40  H9  K0I d   1     -24.653  24.190   0.590  0.00  0.00     0.087 H 
ENDBRANCH   3  31
BRANCH   1  41
ATOM     41  N1  K0I d   1     -24.060  19.192   4.281  0.00  0.00    -0.374 N 
ATOM     42  H5  K0I d   1     -23.977  18.377   3.657  0.00  0.00     0.161 HD
BRANCH  41  43
ATOM     43  C3  K0I d   1     -23.870  19.026   5.715  0.00  0.00     0.003 C 
ATOM     44  H3  K0I d   1     -24.493  19.758   6.250  0.00  0.00     0.064 H 
ATOM     45  H4  K0I d   1     -24.169  18.008   6.004  0.00  0.00     0.064 H 
BRANCH  43  46
ATOM     46  C2  K0I d   1     -22.404  19.245   6.089  0.00  0.00     0.030 C 
ATOM     47  H1  K0I d   1     -21.786  18.451   5.643  0.00  0.00     0.051 H 
ATOM     48  H2  K0I d   1     -22.069  20.224   5.715  0.00  0.00     0.051 H 
BRANCH  46  49
ATOM     49  C1  K0I d   1     -22.272  19.205   7.610  0.00  0.00     0.174 C 
ATOM     50  O2  K0I d   1     -21.324  18.574   8.147  0.00  0.00    -0.648 OA
ATOM     51  O1  K0I d   1     -23.113  19.804   8.328  0.00  0.00    -0.648 OA
ENDBRANCH  46  49
ENDBRANCH  43  46
ENDBRANCH  41  43
ENDBRANCH   1  41
TORSDOF 6
