REMARK  5 active torsions:
REMARK  status: ('A' for Active; 'I' for Inactive)
REMARK    1  A    between atoms: O3_1  and  C4_2 
REMARK    2  A    between atoms: C4_2  and  C11_3 
REMARK    3  A    between atoms: C7_6  and  O12_7 
REMARK    4  A    between atoms: C8_8  and  O1_9 
REMARK    5  A    between atoms: C8_8  and  O13_10 
ROOT
ATOM      1  C4  PAV d   1      28.984  66.851  98.499  0.00  0.00     0.218 C 
ATOM      2  O5  PAV d   1      29.656  67.864  97.563  0.00  0.00    -0.348 OA
ATOM      3  C6  PAV d   1      29.085  67.711  96.337  0.00  0.00     0.052 C 
ATOM      4  C7  PAV d   1      27.876  66.771  96.497  0.00  0.00     0.115 C 
ATOM      5  C8  PAV d   1      27.710  66.737  98.020  0.00  0.00     0.246 C 
ATOM      6  H5  PAV d   1      29.811  67.271  95.638  0.00  0.00     0.078 H 
ATOM      7  H6  PAV d   1      28.752  68.687  95.954  0.00  0.00     0.078 H 
ATOM      8  H7  PAV d   1      28.103  65.764  96.116  0.00  0.00     0.095 H 
ENDROOT
BRANCH   1   9
ATOM      9  O3  PAV d   1      29.162  67.429  99.808  0.00  0.00    -0.361 OA
ATOM     10  H1  PAV d   1      28.742  68.281  99.837  0.00  0.00     0.213 HD
ENDBRANCH   1   9
BRANCH   1  11
ATOM     11  C11 PAV d   1      29.836  65.579  98.288  0.00  0.00    -0.020 C 
ATOM     12  H2  PAV d   1      29.445  64.767  98.918  0.00  0.00     0.035 H 
ATOM     13  H3  PAV d   1      30.880  65.787  98.565  0.00  0.00     0.035 H 
ATOM     14  H4  PAV d   1      29.790  65.278  97.231  0.00  0.00     0.035 H 
ENDBRANCH   1  11
BRANCH   5  15
ATOM     15  O1  PAV d   1      27.143  65.521  98.425  0.00  0.00    -0.359 OA
ATOM     16  H9  PAV d   1      26.272  65.439  98.053  0.00  0.00     0.213 HD
ENDBRANCH   5  15
BRANCH   5  17
ATOM     17  O13 PAV d   1      26.935  67.834  98.449  0.00  0.00    -0.359 OA
ATOM     18  H10 PAV d   1      26.063  67.769  98.078  0.00  0.00     0.213 HD
ENDBRANCH   5  17
BRANCH   4  19
ATOM     19  O12 PAV d   1      26.750  67.281  95.790  0.00  0.00    -0.388 OA
ATOM     20  H8  PAV d   1      26.015  66.690  95.899  0.00  0.00     0.210 HD
ENDBRANCH   4  19
TORSDOF 5
