REMARK  6 active torsions:
REMARK  status: ('A' for Active; 'I' for Inactive)
REMARK    1  A    between atoms: C10_11  and  N11_1 
REMARK    2  A    between atoms: N11_1  and  C12_12 
REMARK    3  A    between atoms: O07_8  and  C06_7 
REMARK    4  A    between atoms: C08_9  and  O07_8 
REMARK    5  A    between atoms: C09_10  and  C08_9 
REMARK    6  A    between atoms: C09_10  and  C10_11 
ROOT
ATOM      1  C09 HH7 d   1     -10.823  24.819   0.301  0.00  0.00    -0.030 C 
ATOM      2  H5  HH7 d   1     -11.898  24.618   0.416  0.00  0.00     0.038 H 
ATOM      3  H6  HH7 d   1     -10.249  24.092   0.894  0.00  0.00     0.038 H 
ENDROOT
BRANCH   1   4
ATOM      4  C08 HH7 d   1     -10.517  26.231   0.796  0.00  0.00     0.028 C 
ATOM      5  H3  HH7 d   1     -10.852  26.965   0.048  0.00  0.00     0.075 H 
ATOM      6  H4  HH7 d   1     -11.041  26.410   1.746  0.00  0.00     0.075 H 
BRANCH   4   7
ATOM      7  O07 HH7 d   1      -9.135  26.355   0.990  0.00  0.00    -0.349 OA
BRANCH   7   8
ATOM      8  C06 HH7 d   1      -8.674  26.081   2.289  0.00  0.00     0.090 A 
ATOM      9  C04 HH7 d   1      -7.195  26.291   2.605  0.00  0.00     0.069 A 
ATOM     10  C03 HH7 d   1      -6.652  26.008   3.995  0.00  0.00    -0.038 A 
ATOM     11 CL2  HH7 d   1      -6.099  26.876   1.329  0.00  0.00    -0.081 Cl
ATOM     12  C02 HH7 d   1      -7.578  25.510   5.088  0.00  0.00     0.035 A 
ATOM     13  H2  HH7 d   1      -5.600  26.162   4.206  0.00  0.00     0.088 H 
ATOM     14 CL1  HH7 d   1      -6.923  25.185   6.714  0.00  0.00    -0.084 Cl
ATOM     15  C18 HH7 d   1      -9.062  25.292   4.792  0.00  0.00    -0.059 A 
ATOM     16  C17 HH7 d   1      -9.618  25.576   3.390  0.00  0.00    -0.048 A 
ATOM     17  H13 HH7 d   1      -9.723  24.936   5.574  0.00  0.00     0.086 H 
ATOM     18  H12 HH7 d   1     -10.670  25.421   3.178  0.00  0.00     0.087 H 
ENDBRANCH   7   8
ENDBRANCH   4   7
ENDBRANCH   1   4
BRANCH   1  19
ATOM     19  C10 HH7 d   1     -10.438  24.687  -1.171  0.00  0.00    -0.003 C 
ATOM     20  H7  HH7 d   1      -9.358  24.869  -1.278  0.00  0.00     0.064 H 
ATOM     21  H8  HH7 d   1     -10.674  23.669  -1.514  0.00  0.00     0.064 H 
BRANCH  19  22
ATOM     22  N11 HH7 d   1     -11.164  25.643  -1.989  0.00  0.00    -0.360 N 
ATOM     23  H1  HH7 d   1     -10.804  26.601  -2.107  0.00  0.00     0.162 HD
BRANCH  22  24
ATOM     24  C12 HH7 d   1     -12.396  25.245  -2.638  0.00  0.00     0.201 A 
ATOM     25  N13 HH7 d   1     -13.020  23.921  -2.544  0.00  0.00    -0.335 N 
ATOM     26  C14 HH7 d   1     -14.225  23.937  -3.335  0.00  0.00    -0.003 A 
ATOM     27  H9  HH7 d   1     -12.660  23.119  -2.006  0.00  0.00     0.168 HD
ATOM     28  C15 HH7 d   1     -14.364  25.316  -3.937  0.00  0.00     0.021 A 
ATOM     29  H10 HH7 d   1     -14.912  23.104  -3.474  0.00  0.00     0.113 H 
ATOM     30  N16 HH7 d   1     -13.223  26.095  -3.497  0.00  0.00    -0.226 NA
ATOM     31  H11 HH7 d   1     -15.171  25.661  -4.582  0.00  0.00     0.117 H 
ENDBRANCH  22  24
ENDBRANCH  19  22
ENDBRANCH   1  19
TORSDOF 6
