REMARK  3 active torsions:
REMARK  status: ('A' for Active; 'I' for Inactive)
REMARK    1  A    between atoms: N_1  and  CA_2 
REMARK    2  A    between atoms: CA_2  and  CB_3 
REMARK    3  A    between atoms: CB_3  and  CG_4 
ROOT
ATOM      1  CB  HSM d   1       7.280  -3.483  15.340  0.00  0.00    -0.001 C 
ATOM      2  H6  HSM d   1       6.892  -3.323  16.357  0.00  0.00     0.044 H 
ATOM      3  H7  HSM d   1       7.504  -4.550  15.197  0.00  0.00     0.044 H 
ENDROOT
BRANCH   1   4
ATOM      4  CA  HSM d   1       8.568  -2.665  15.154  0.00  0.00     0.085 C 
ATOM      5  H4  HSM d   1       8.397  -1.881  14.402  0.00  0.00     0.075 H 
ATOM      6  H5  HSM d   1       8.848  -2.201  16.111  0.00  0.00     0.075 H 
BRANCH   4   7
ATOM      7  N   HSM d   1       9.644  -3.538  14.707  0.00  0.00    -0.079 N 
ATOM      8  H1  HSM d   1      10.486  -2.998  14.586  0.00  0.00     0.274 HD
ATOM      9  H2  HSM d   1       9.389  -3.963  13.829  0.00  0.00     0.274 HD
ATOM     10  H3  HSM d   1       9.802  -4.257  15.396  0.00  0.00     0.274 HD
ENDBRANCH   4   7
ENDBRANCH   1   4
BRANCH   1  11
ATOM     11  CG  HSM d   1       6.221  -3.045  14.318  0.00  0.00     0.052 A 
ATOM     12  ND1 HSM d   1       6.456  -2.635  13.085  0.00  0.00    -0.247 NA
ATOM     13  CE1 HSM d   1       5.274  -2.346  12.507  0.00  0.00     0.064 A 
ATOM     14  NE2 HSM d   1       4.298  -2.592  13.401  0.00  0.00    -0.359 N 
ATOM     15  H9  HSM d   1       5.133  -1.977  11.492  0.00  0.00     0.143 H 
ATOM     16  CD2 HSM d   1       4.864  -3.019  14.513  0.00  0.00     0.002 A 
ATOM     17  H10 HSM d   1       3.288  -2.469  13.244  0.00  0.00     0.166 HD
ATOM     18  H8  HSM d   1       4.344  -3.302  15.427  0.00  0.00     0.114 H 
ENDBRANCH   1  11
TORSDOF 3
