REMARK  6 active torsions:
REMARK  status: ('A' for Active; 'I' for Inactive)
REMARK    1  A    between atoms: C4_4  and  C2_2 
REMARK    2  A    between atoms: N3_3  and  C5_6 
REMARK       I    between atoms: C6_7  and  N3_3 
REMARK    3  A    between atoms: C5_6  and  C4_4 
REMARK    4  A    between atoms: C8_11  and  N4_5 
REMARK    5  A    between atoms: C7_10  and  C6_7 
REMARK    6  A    between atoms: C7_10  and  C8_11 
ROOT
ATOM      1  N3  HJD d   1       9.689  -3.990  14.648  0.00  0.00    -0.361 N 
ATOM      2  C6  HJD d   1      10.383  -5.020  14.158  0.00  0.00     0.219 C 
ATOM      3  O1  HJD d   1       9.900  -5.797  13.337  0.00  0.00    -0.274 OA
ATOM      4  H1  HJD d   1      10.083  -3.454  15.395  0.00  0.00     0.162 HD
ENDROOT
BRANCH   1   5
ATOM      5  C5  HJD d   1       8.382  -3.620  14.135  0.00  0.00     0.000 C 
ATOM      6  H7  HJD d   1       7.666  -4.412  14.399  0.00  0.00     0.064 H 
ATOM      7  H8  HJD d   1       8.447  -3.535  13.040  0.00  0.00     0.064 H 
BRANCH   5   8
ATOM      8  C4  HJD d   1       7.873  -2.304  14.691  0.00  0.00    -0.009 C 
ATOM      9  H2  HJD d   1       7.536  -2.459  15.726  0.00  0.00     0.044 H 
ATOM     10  H3  HJD d   1       8.692  -1.570  14.678  0.00  0.00     0.044 H 
BRANCH   8  11
ATOM     11  C2  HJD d   1       6.735  -1.776  13.884  0.00  0.00     0.052 A 
ATOM     12  N1  HJD d   1       6.918  -0.961  12.795  0.00  0.00    -0.247 NA
ATOM     13  C3  HJD d   1       5.714  -0.673  12.293  0.00  0.00     0.064 A 
ATOM     14  N2  HJD d   1       4.758  -1.256  12.981  0.00  0.00    -0.359 N 
ATOM     15  H10 HJD d   1       5.546  -0.037  11.425  0.00  0.00     0.143 H 
ATOM     16  C1  HJD d   1       5.391  -1.956  13.984  0.00  0.00     0.002 A 
ATOM     17  H15 HJD d   1       3.744  -1.201  12.806  0.00  0.00     0.166 HD
ATOM     18  H9  HJD d   1       4.892  -2.560  14.740  0.00  0.00     0.114 H 
ENDBRANCH   8  11
ENDBRANCH   5   8
ENDBRANCH   1   5
BRANCH   2  19
ATOM     19  C7  HJD d   1      11.812  -5.173  14.630  0.00  0.00     0.031 C 
ATOM     20  H11 HJD d   1      12.043  -4.353  15.325  0.00  0.00     0.049 H 
ATOM     21  H12 HJD d   1      12.479  -5.112  13.758  0.00  0.00     0.049 H 
BRANCH  19  22
ATOM     22  C8  HJD d   1      12.057  -6.491  15.337  0.00  0.00     0.087 C 
ATOM     23  H13 HJD d   1      11.338  -6.586  16.164  0.00  0.00     0.075 H 
ATOM     24  H14 HJD d   1      11.902  -7.310  14.620  0.00  0.00     0.075 H 
BRANCH  22  25
ATOM     25  N4  HJD d   1      13.409  -6.593  15.878  0.00  0.00    -0.079 N 
ATOM     26  H4  HJD d   1      13.521  -7.484  16.336  0.00  0.00     0.274 HD
ATOM     27  H5  HJD d   1      13.562  -5.851  16.543  0.00  0.00     0.274 HD
ATOM     28  H6  HJD d   1      14.078  -6.514  15.128  0.00  0.00     0.274 HD
ENDBRANCH  22  25
ENDBRANCH  19  22
ENDBRANCH   2  19
TORSDOF 6
