REMARK  8 active torsions:
REMARK  status: ('A' for Active; 'I' for Inactive)
REMARK    1  A    between atoms: C03_2  and  C02_1 
REMARK    2  A    between atoms: C02_1  and  N01_12 
REMARK    3  A    between atoms: C04_3  and  C03_2 
REMARK       I    between atoms: N06_13  and  C04_3 
REMARK    4  A    between atoms: C07_4  and  C08_5 
REMARK    5  A    between atoms: C07_4  and  N06_13 
REMARK    6  A    between atoms: C08_5  and  C09_6 
REMARK    7  A    between atoms: C12_9  and  O13_15 
REMARK    8  A    between atoms: C14_10  and  O15_16 
ROOT
ATOM      1  C07 HJ1 d   1      -4.109  -3.121  -8.193  0.00  0.00    -0.001 C 
ATOM      2  H5  HJ1 d   1      -5.028  -3.293  -7.614  0.00  0.00     0.064 H 
ATOM      3  H6  HJ1 d   1      -3.239  -3.158  -7.520  0.00  0.00     0.064 H 
ENDROOT
BRANCH   1   4
ATOM      4  C08 HJ1 d   1      -4.180  -1.709  -8.876  0.00  0.00    -0.026 C 
ATOM      5  H7  HJ1 d   1      -3.389  -1.648  -9.638  0.00  0.00     0.042 H 
ATOM      6  H8  HJ1 d   1      -4.009  -0.940  -8.109  0.00  0.00     0.042 H 
BRANCH   4   7
ATOM      7  C09 HJ1 d   1      -5.474  -1.447  -9.522  0.00  0.00    -0.054 A 
ATOM      8  C10 HJ1 d   1      -5.517  -0.800 -10.767  0.00  0.00    -0.074 A 
ATOM      9  C11 HJ1 d   1      -6.751  -0.542 -11.390  0.00  0.00    -0.048 A 
ATOM     10  H9  HJ1 d   1      -4.595  -0.498 -11.250  0.00  0.00     0.084 H 
ATOM     11  C12 HJ1 d   1      -7.928  -0.929 -10.781  0.00  0.00     0.098 A 
ATOM     12  H10 HJ1 d   1      -6.778  -0.039 -12.350  0.00  0.00     0.087 H 
ATOM     13  C14 HJ1 d   1      -7.882  -1.581  -9.530  0.00  0.00     0.099 A 
ATOM     14  C16 HJ1 d   1      -6.645  -1.836  -8.911  0.00  0.00    -0.042 A 
ATOM     15  H11 HJ1 d   1      -6.614  -2.340  -7.952  0.00  0.00     0.088 H 
BRANCH  11  16
ATOM     16  O13 HJ1 d   1      -9.190  -0.662 -11.429  0.00  0.00    -0.358 OA
ATOM     17  H16 HJ1 d   1      -9.643  -1.482 -11.588  0.00  0.00     0.217 HD
ENDBRANCH  11  16
BRANCH  13  18
ATOM     18  O15 HJ1 d   1      -9.160  -2.020  -8.834  0.00  0.00    -0.358 OA
ATOM     19  H17 HJ1 d   1      -9.908  -1.782  -9.368  0.00  0.00     0.217 HD
ENDBRANCH  13  18
ENDBRANCH   4   7
ENDBRANCH   1   4
BRANCH   1  20
ATOM     20  N06 HJ1 d   1      -3.977  -4.159  -9.216  0.00  0.00    -0.361 N 
ATOM     21  C04 HJ1 d   1      -2.816  -5.062  -9.223  0.00  0.00     0.219 C 
ATOM     22  O05 HJ1 d   1      -2.742  -5.876 -10.043  0.00  0.00    -0.274 OA
ATOM     23  H15 HJ1 d   1      -4.683  -4.255  -9.917  0.00  0.00     0.162 HD
BRANCH  21  24
ATOM     24  C03 HJ1 d   1      -1.690  -4.927  -8.140  0.00  0.00     0.031 C 
ATOM     25  H3  HJ1 d   1      -0.837  -4.387  -8.577  0.00  0.00     0.049 H 
ATOM     26  H4  HJ1 d   1      -2.084  -4.360  -7.284  0.00  0.00     0.049 H 
BRANCH  24  27
ATOM     27  C02 HJ1 d   1      -1.216  -6.292  -7.654  0.00  0.00     0.087 C 
ATOM     28  H1  HJ1 d   1      -1.291  -7.011  -8.483  0.00  0.00     0.075 H 
ATOM     29  H2  HJ1 d   1      -1.862  -6.619  -6.826  0.00  0.00     0.075 H 
BRANCH  27  30
ATOM     30  N01 HJ1 d   1       0.177  -6.250  -7.184  0.00  0.00    -0.079 N 
ATOM     31  H12 HJ1 d   1       0.454  -7.168  -6.872  0.00  0.00     0.274 HD
ATOM     32  H13 HJ1 d   1       0.254  -5.597  -6.420  0.00  0.00     0.274 HD
ATOM     33  H14 HJ1 d   1       0.777  -5.956  -7.939  0.00  0.00     0.274 HD
ENDBRANCH  27  30
ENDBRANCH  24  27
ENDBRANCH  21  24
ENDBRANCH   1  20
TORSDOF 8
