REMARK  7 active torsions:
REMARK  status: ('A' for Active; 'I' for Inactive)
REMARK    1  A    between atoms: O3'_1  and  C3'_2 
REMARK    2  A    between atoms: N1'_4  and  C10_12 
REMARK    3  A    between atoms: C4'_6  and  C5'_7 
REMARK    4  A    between atoms: C5'_7  and  S5'_8 
REMARK    5  A    between atoms: S5'_8  and  C20_9 
REMARK    6  A    between atoms: C20_9  and  C21_10 
REMARK    7  A    between atoms: C10_12  and  C9_13 
ROOT
ATOM      1  C21 OS2 d   1      -0.126 -21.110 -46.737  0.00  0.00    -0.107 C 
ATOM      2  C22 OS2 d   1       0.133 -21.140 -47.975  0.00  0.00    -0.153 C 
ATOM      3  H13 OS2 d   1       0.349 -21.165 -49.008  0.00  0.00     0.166 H 
ENDROOT
BRANCH   1   4
ATOM      4  C20 OS2 d   1      -0.394 -21.003 -45.310  0.00  0.00     0.031 C 
ATOM      5  H11 OS2 d   1      -1.323 -20.435 -45.150  0.00  0.00     0.068 H 
ATOM      6  H12 OS2 d   1      -0.500 -22.009 -44.878  0.00  0.00     0.068 H 
BRANCH   4   7
ATOM      7  S5' OS2 d   1       0.974 -20.152 -44.524  0.00  0.00    -0.157 SA
BRANCH   7   8
ATOM      8  C5' OS2 d   1       0.616 -20.272 -42.822  0.00  0.00    -0.015 C 
ATOM      9  H9  OS2 d   1       0.221 -21.276 -42.608  0.00  0.00     0.049 H 
ATOM     10  H10 OS2 d   1       1.541 -20.112 -42.248  0.00  0.00     0.049 H 
BRANCH   8  11
ATOM     11  C4' OS2 d   1      -0.407 -19.241 -42.407  0.00  0.00     0.004 C 
ATOM     12  C3' OS2 d   1       0.137 -17.827 -42.198  0.00  0.00     0.064 C 
ATOM     13  C2' OS2 d   1       0.774 -17.898 -40.828  0.00  0.00     0.108 C 
ATOM     14  H2  OS2 d   1       0.874 -17.563 -42.971  0.00  0.00     0.086 H 
ATOM     15  N1' OS2 d   1      -0.277 -18.630 -40.108  0.00  0.00    -0.064 N 
ATOM     16  H3  OS2 d   1       0.943 -16.898 -40.402  0.00  0.00     0.080 H 
ATOM     17  H4  OS2 d   1       1.723 -18.454 -40.845  0.00  0.00     0.080 H 
ATOM     18  C1' OS2 d   1      -0.877 -19.629 -41.018  0.00  0.00     0.090 C 
ATOM     19  H5  OS2 d   1      -1.002 -17.961 -39.902  0.00  0.00     0.280 HD
ATOM     20  H6  OS2 d   1      -1.975 -19.593 -40.959  0.00  0.00     0.076 H 
ATOM     21  H7  OS2 d   1      -0.529 -20.641 -40.762  0.00  0.00     0.076 H 
ATOM     22  H8  OS2 d   1      -1.232 -19.228 -43.134  0.00  0.00     0.047 H 
BRANCH  12  23
ATOM     23  O3' OS2 d   1      -0.939 -16.870 -42.196  0.00  0.00    -0.393 OA
ATOM     24  H1  OS2 d   1      -0.599 -16.013 -41.965  0.00  0.00     0.210 HD
ENDBRANCH  12  23
BRANCH  15  25
ATOM     25  C10 OS2 d   1       0.143 -19.161 -38.807  0.00  0.00     0.111 C 
ATOM     26  H14 OS2 d   1      -0.776 -19.455 -38.278  0.00  0.00     0.083 H 
ATOM     27  H15 OS2 d   1       0.625 -18.330 -38.271  0.00  0.00     0.083 H 
BRANCH  25  28
ATOM     28  C9  OS2 d   1       1.082 -20.330 -38.714  0.00  0.00     0.014 A 
ATOM     29  C4  OS2 d   1       2.525 -20.416 -38.947  0.00  0.00     0.098 A 
ATOM     30  N3  OS2 d   1       3.396 -19.509 -39.438  0.00  0.00    -0.239 NA
ATOM     31  C5  OS2 d   1       2.899 -21.787 -38.630  0.00  0.00     0.107 A 
ATOM     32  C2  OS2 d   1       4.674 -19.891 -39.580  0.00  0.00     0.089 A 
ATOM     33  N1  OS2 d   1       5.121 -21.145 -39.292  0.00  0.00    -0.223 NA
ATOM     34  H20 OS2 d   1       5.390 -19.162 -39.944  0.00  0.00     0.146 H 
ATOM     35  C6  OS2 d   1       4.321 -22.114 -38.817  0.00  0.00     0.151 A 
ATOM     36  N6  OS2 d   1       4.771 -23.348 -38.535  0.00  0.00    -0.382 N 
ATOM     37  H18 OS2 d   1       5.767 -23.576 -38.666  0.00  0.00     0.157 HD
ATOM     38  H19 OS2 d   1       4.120 -24.067 -38.187  0.00  0.00     0.157 HD
ATOM     39  N7  OS2 d   1       1.800 -22.418 -38.224  0.00  0.00    -0.360 N 
ATOM     40  C8  OS2 d   1       0.719 -21.587 -38.246  0.00  0.00    -0.012 A 
ATOM     41  H17 OS2 d   1       1.770 -23.405 -37.931  0.00  0.00     0.165 HD
ATOM     42  H16 OS2 d   1      -0.287 -21.869 -37.940  0.00  0.00     0.112 H 
ENDBRANCH  25  28
ENDBRANCH  15  25
ENDBRANCH   8  11
ENDBRANCH   7   8
ENDBRANCH   4   7
ENDBRANCH   1   4
TORSDOF 7
