REMARK  10 active torsions:
REMARK  status: ('A' for Active; 'I' for Inactive)
REMARK    1  A    between atoms: N6_1  and  C6_2 
REMARK    2  A    between atoms: C9_10  and  C10_11 
REMARK    3  A    between atoms: C10_11  and  N1A_12 
REMARK    4  A    between atoms: C3A_14  and  O3A_15 
REMARK    5  A    between atoms: C4A_17  and  C5A_18 
REMARK    6  A    between atoms: C5A_18  and  S5A_19 
REMARK    7  A    between atoms: S5A_19  and  C20_20 
REMARK    8  A    between atoms: C20_20  and  C21_21 
REMARK    9  A    between atoms: C21_21  and  C22_22 
REMARK   10  A    between atoms: C22_22  and  C23_23 
ROOT
ATOM      1  C23 OS3 d   1      -2.195 -21.595 -47.642  0.00  0.00    -0.117 C 
ATOM      2  C24 OS3 d   1      -3.292 -20.987 -47.887  0.00  0.00    -0.154 C 
ATOM      3  H24 OS3 d   1      -4.199 -20.485 -48.090  0.00  0.00     0.166 H 
ENDROOT
BRANCH   1   4
ATOM      4  C22 OS3 d   1      -0.892 -22.219 -47.414  0.00  0.00    -0.009 C 
ATOM      5  H22 OS3 d   1      -1.006 -23.058 -46.712  0.00  0.00     0.051 H 
ATOM      6  H23 OS3 d   1      -0.493 -22.592 -48.369  0.00  0.00     0.051 H 
BRANCH   4   7
ATOM      7  C21 OS3 d   1       0.076 -21.193 -46.826  0.00  0.00    -0.048 C 
ATOM      8  H20 OS3 d   1       1.105 -21.577 -46.891  0.00  0.00     0.035 H 
ATOM      9  H21 OS3 d   1       0.000 -20.250 -47.388  0.00  0.00     0.035 H 
BRANCH   7  10
ATOM     10  C20 OS3 d   1      -0.285 -20.949 -45.371  0.00  0.00    -0.022 C 
ATOM     11  H18 OS3 d   1      -1.209 -20.355 -45.322  0.00  0.00     0.049 H 
ATOM     12  H19 OS3 d   1      -0.443 -21.915 -44.870  0.00  0.00     0.049 H 
BRANCH  10  13
ATOM     13  S5A OS3 d   1       1.008 -20.078 -44.556  0.00  0.00    -0.169 SA
BRANCH  13  14
ATOM     14  C5A OS3 d   1       0.554 -20.253 -42.843  0.00  0.00    -0.016 C 
ATOM     15  H16 OS3 d   1       0.153 -21.267 -42.695  0.00  0.00     0.049 H 
ATOM     16  H17 OS3 d   1       1.459 -20.123 -42.232  0.00  0.00     0.049 H 
BRANCH  14  17
ATOM     17  C4A OS3 d   1      -0.498 -19.246 -42.362  0.00  0.00     0.004 C 
ATOM     18  C3A OS3 d   1       0.028 -17.828 -42.213  0.00  0.00     0.064 C 
ATOM     19  C2A OS3 d   1       0.680 -17.847 -40.860  0.00  0.00     0.108 C 
ATOM     20  H11 OS3 d   1       0.756 -17.595 -43.004  0.00  0.00     0.086 H 
ATOM     21  N1A OS3 d   1      -0.347 -18.572 -40.068  0.00  0.00    -0.064 N 
ATOM     22  H9  OS3 d   1       1.636 -18.391 -40.879  0.00  0.00     0.080 H 
ATOM     23  H10 OS3 d   1       0.845 -16.830 -40.475  0.00  0.00     0.080 H 
ATOM     24  C1A OS3 d   1      -0.952 -19.612 -40.943  0.00  0.00     0.090 C 
ATOM     25  H8  OS3 d   1      -1.075 -17.909 -39.851  0.00  0.00     0.280 HD
ATOM     26  H13 OS3 d   1      -2.049 -19.589 -40.870  0.00  0.00     0.076 H 
ATOM     27  H14 OS3 d   1      -0.587 -20.612 -40.666  0.00  0.00     0.076 H 
ATOM     28  H15 OS3 d   1      -1.347 -19.260 -43.061  0.00  0.00     0.047 H 
BRANCH  18  29
ATOM     29  O3A OS3 d   1      -1.038 -16.855 -42.237  0.00  0.00    -0.393 OA
ATOM     30  H12 OS3 d   1      -0.683 -15.994 -42.049  0.00  0.00     0.210 HD
ENDBRANCH  18  29
BRANCH  21  31
ATOM     31  C10 OS3 d   1       0.133 -19.079 -38.772  0.00  0.00     0.111 C 
ATOM     32  H6  OS3 d   1       0.683 -18.252 -38.299  0.00  0.00     0.083 H 
ATOM     33  H7  OS3 d   1      -0.763 -19.311 -38.178  0.00  0.00     0.083 H 
BRANCH  31  34
ATOM     34  C9  OS3 d   1       1.033 -20.298 -38.683  0.00  0.00     0.014 A 
ATOM     35  C4  OS3 d   1       2.460 -20.411 -38.945  0.00  0.00     0.098 A 
ATOM     36  N3  OS3 d   1       3.346 -19.484 -39.395  0.00  0.00    -0.239 NA
ATOM     37  C5  OS3 d   1       2.821 -21.772 -38.645  0.00  0.00     0.107 A 
ATOM     38  C2  OS3 d   1       4.630 -19.852 -39.560  0.00  0.00     0.089 A 
ATOM     39  N1  OS3 d   1       5.060 -21.115 -39.324  0.00  0.00    -0.223 NA
ATOM     40  H3  OS3 d   1       5.347 -19.110 -39.894  0.00  0.00     0.146 H 
ATOM     41  C6  OS3 d   1       4.234 -22.086 -38.852  0.00  0.00     0.151 A 
ATOM     42  N7  OS3 d   1       1.726 -22.438 -38.246  0.00  0.00    -0.360 N 
ATOM     43  C8  OS3 d   1       0.664 -21.567 -38.245  0.00  0.00    -0.012 A 
ATOM     44  H4  OS3 d   1       1.688 -23.434 -37.985  0.00  0.00     0.165 HD
ATOM     45  H5  OS3 d   1      -0.346 -21.837 -37.938  0.00  0.00     0.112 H 
BRANCH  41  46
ATOM     46  N6  OS3 d   1       4.640 -23.334 -38.586  0.00  0.00    -0.382 N 
ATOM     47  H1  OS3 d   1       3.969 -24.029 -38.230  0.00  0.00     0.157 HD
ATOM     48  H2  OS3 d   1       5.624 -23.599 -38.738  0.00  0.00     0.157 HD
ENDBRANCH  41  46
ENDBRANCH  31  34
ENDBRANCH  21  31
ENDBRANCH  14  17
ENDBRANCH  13  14
ENDBRANCH  10  13
ENDBRANCH   7  10
ENDBRANCH   4   7
ENDBRANCH   1   4
TORSDOF 10
