REMARK  12 active torsions:
REMARK  status: ('A' for Active; 'I' for Inactive)
REMARK    1  A    between atoms: O_1  and  C15_2 
REMARK    2  A    between atoms: N_4  and  C7_5 
REMARK    3  A    between atoms: C7_5  and  C8_6 
REMARK    4  A    between atoms: C11_11  and  N2_12 
REMARK    5  A    between atoms: C5_17  and  C4_18 
REMARK    6  A    between atoms: C4_18  and  S_19 
REMARK    7  A    between atoms: S_19  and  C3_20 
REMARK    8  A    between atoms: C3_20  and  C2_21 
REMARK    9  A    between atoms: C2_21  and  C1_22 
REMARK   10  A    between atoms: C1_22  and  C_23 
REMARK   11  A    between atoms: N6_26  and  C17_28 
REMARK   12  A    between atoms: C17_28  and  C18_29 
ROOT
ATOM      1  C4  OS5 d   1       0.608 -20.166 -42.957  0.00  0.00    -0.016 C 
ATOM      2  H16 OS5 d   1       0.343 -21.195 -42.671  0.00  0.00     0.049 H 
ATOM      3  H17 OS5 d   1       1.571 -19.895 -42.499  0.00  0.00     0.049 H 
ENDROOT
BRANCH   1   4
ATOM      4  C5  OS5 d   1      -0.464 -19.223 -42.430  0.00  0.00     0.004 C 
ATOM      5  C15 OS5 d   1       0.053 -17.800 -42.218  0.00  0.00     0.064 C 
ATOM      6  C14 OS5 d   1       0.694 -17.834 -40.845  0.00  0.00     0.108 C 
ATOM      7  H2  OS5 d   1       0.795 -17.540 -42.987  0.00  0.00     0.086 H 
ATOM      8  N   OS5 d   1      -0.319 -18.619 -40.121  0.00  0.00    -0.064 N 
ATOM      9  H3  OS5 d   1       0.810 -16.825 -40.422  0.00  0.00     0.080 H 
ATOM     10  H4  OS5 d   1       1.671 -18.340 -40.861  0.00  0.00     0.080 H 
ATOM     11  C6  OS5 d   1      -0.848 -19.658 -41.030  0.00  0.00     0.090 C 
ATOM     12  H5  OS5 d   1      -1.085 -17.994 -39.924  0.00  0.00     0.280 HD
ATOM     13  H13 OS5 d   1      -1.942 -19.726 -40.938  0.00  0.00     0.076 H 
ATOM     14  H14 OS5 d   1      -0.399 -20.635 -40.797  0.00  0.00     0.076 H 
ATOM     15  H15 OS5 d   1      -1.329 -19.228 -43.109  0.00  0.00     0.047 H 
BRANCH   5  16
ATOM     16  O   OS5 d   1      -1.019 -16.844 -42.249  0.00  0.00    -0.393 OA
ATOM     17  H1  OS5 d   1      -0.678 -15.981 -42.045  0.00  0.00     0.210 HD
ENDBRANCH   5  16
BRANCH   8  18
ATOM     18  C7  OS5 d   1       0.135 -19.111 -38.810  0.00  0.00     0.111 C 
ATOM     19  H6  OS5 d   1      -0.769 -19.386 -38.247  0.00  0.00     0.083 H 
ATOM     20  H7  OS5 d   1       0.634 -18.266 -38.313  0.00  0.00     0.083 H 
BRANCH  18  21
ATOM     21  C8  OS5 d   1       1.083 -20.293 -38.712  0.00  0.00     0.014 A 
ATOM     22  C13 OS5 d   1       2.444 -20.426 -38.939  0.00  0.00     0.098 A 
ATOM     23  N4  OS5 d   1       3.305 -19.479 -39.412  0.00  0.00    -0.239 NA
ATOM     24  C10 OS5 d   1       2.853 -21.708 -38.635  0.00  0.00     0.107 A 
ATOM     25  C12 OS5 d   1       4.577 -19.851 -39.561  0.00  0.00     0.089 A 
ATOM     26  N3  OS5 d   1       5.040 -21.083 -39.289  0.00  0.00    -0.223 NA
ATOM     27  H8  OS5 d   1       5.282 -19.113 -39.925  0.00  0.00     0.146 H 
ATOM     28  C11 OS5 d   1       4.205 -22.047 -38.818  0.00  0.00     0.151 A 
ATOM     29  N1  OS5 d   1       1.736 -22.376 -38.217  0.00  0.00    -0.360 N 
ATOM     30  C9  OS5 d   1       0.677 -21.534 -38.256  0.00  0.00    -0.012 A 
ATOM     31  H11 OS5 d   1       1.705 -23.362 -37.920  0.00  0.00     0.165 HD
ATOM     32  H12 OS5 d   1      -0.341 -21.794 -37.971  0.00  0.00     0.112 H 
BRANCH  28  33
ATOM     33  N2  OS5 d   1       4.719 -23.273 -38.554  0.00  0.00    -0.382 N 
ATOM     34  H9  OS5 d   1       4.108 -24.021 -38.196  0.00  0.00     0.157 HD
ATOM     35  H10 OS5 d   1       5.720 -23.456 -38.711  0.00  0.00     0.157 HD
ENDBRANCH  28  33
ENDBRANCH  18  21
ENDBRANCH   8  18
ENDBRANCH   1   4
BRANCH   1  36
ATOM     36  S   OS5 d   1       0.778 -20.096 -44.703  0.00  0.00    -0.169 SA
BRANCH  36  37
ATOM     37  C3  OS5 d   1      -0.610 -21.058 -45.252  0.00  0.00    -0.023 C 
ATOM     38  H18 OS5 d   1      -1.529 -20.583 -44.878  0.00  0.00     0.049 H 
ATOM     39  H19 OS5 d   1      -0.520 -22.068 -44.826  0.00  0.00     0.049 H 
BRANCH  37  40
ATOM     40  C2  OS5 d   1      -0.719 -21.185 -46.769  0.00  0.00    -0.052 C 
ATOM     41  H20 OS5 d   1       0.170 -21.691 -47.173  0.00  0.00     0.034 H 
ATOM     42  H21 OS5 d   1      -0.815 -20.190 -47.228  0.00  0.00     0.034 H 
BRANCH  40  43
ATOM     43  C1  OS5 d   1      -1.967 -22.014 -47.041  0.00  0.00    -0.021 C 
ATOM     44  H22 OS5 d   1      -2.823 -21.534 -46.544  0.00  0.00     0.042 H 
ATOM     45  H23 OS5 d   1      -1.818 -23.021 -46.624  0.00  0.00     0.042 H 
BRANCH  43  46
ATOM     46  C   OS5 d   1      -2.271 -22.141 -48.508  0.00  0.00     0.069 A 
ATOM     47  N5  OS5 d   1      -1.368 -22.410 -49.476  0.00  0.00    -0.163 NA
ATOM     48  N7  OS5 d   1      -2.050 -22.439 -50.706  0.00  0.00     0.004 NA
ATOM     49  N6  OS5 d   1      -3.383 -22.191 -50.388  0.00  0.00    -0.279 N 
ATOM     50  C16 OS5 d   1      -3.530 -21.998 -49.085  0.00  0.00     0.020 A 
ATOM     51  H24 OS5 d   1      -4.459 -21.771 -48.565  0.00  0.00     0.116 H 
BRANCH  49  52
ATOM     52  C17 OS5 d   1      -4.313 -22.197 -51.512  0.00  0.00     0.037 C 
ATOM     53  H25 OS5 d   1      -5.026 -23.025 -51.385  0.00  0.00     0.074 H 
ATOM     54  H26 OS5 d   1      -3.748 -22.340 -52.445  0.00  0.00     0.074 H 
BRANCH  52  55
ATOM     55  C18 OS5 d   1      -5.074 -20.901 -51.591  0.00  0.00    -0.039 A 
ATOM     56  C23 OS5 d   1      -4.596 -19.891 -52.432  0.00  0.00    -0.075 A 
ATOM     57  C22 OS5 d   1      -5.293 -18.686 -52.536  0.00  0.00    -0.082 A 
ATOM     58  H27 OS5 d   1      -3.687 -20.044 -53.002  0.00  0.00     0.084 H 
ATOM     59  C21 OS5 d   1      -6.466 -18.500 -51.794  0.00  0.00    -0.083 A 
ATOM     60  H28 OS5 d   1      -4.929 -17.899 -53.187  0.00  0.00     0.083 H 
ATOM     61  C20 OS5 d   1      -6.945 -19.515 -50.954  0.00  0.00    -0.082 A 
ATOM     62  H29 OS5 d   1      -7.008 -17.564 -51.870  0.00  0.00     0.083 H 
ATOM     63  C19 OS5 d   1      -6.246 -20.720 -50.849  0.00  0.00    -0.075 A 
ATOM     64  H30 OS5 d   1      -7.856 -19.365 -50.387  0.00  0.00     0.083 H 
ATOM     65  H31 OS5 d   1      -6.609 -21.508 -50.198  0.00  0.00     0.084 H 
ENDBRANCH  52  55
ENDBRANCH  49  52
ENDBRANCH  43  46
ENDBRANCH  40  43
ENDBRANCH  37  40
ENDBRANCH  36  37
ENDBRANCH   1  36
TORSDOF 12
