REMARK  13 active torsions:
REMARK  status: ('A' for Active; 'I' for Inactive)
REMARK    1  A    between atoms: O_1  and  C15_2 
REMARK    2  A    between atoms: N_4  and  C7_5 
REMARK    3  A    between atoms: C7_5  and  C8_6 
REMARK    4  A    between atoms: C5_17  and  C4_18 
REMARK    5  A    between atoms: C4_18  and  S_19 
REMARK    6  A    between atoms: S_19  and  C3_20 
REMARK    7  A    between atoms: C3_20  and  C2_21 
REMARK    8  A    between atoms: C2_21  and  C1_22 
REMARK    9  A    between atoms: C1_22  and  C_23 
REMARK   10  A    between atoms: N6_26  and  C17_28 
REMARK   11  A    between atoms: C17_28  and  C18_29 
REMARK   12  A    between atoms: C18_29  and  C19_31 
REMARK   13  A    between atoms: C19_31  and  C20_30 
ROOT
ATOM      1  C15 OS6 d   1      35.833  74.159  24.155  0.00  0.00     0.064 C 
ATOM      2  C14 OS6 d   1      35.909  74.825  25.502  0.00  0.00     0.108 C 
ATOM      3  N   OS6 d   1      36.630  73.788  26.296  0.00  0.00    -0.064 N 
ATOM      4  C6  OS6 d   1      37.663  73.248  25.388  0.00  0.00     0.090 C 
ATOM      5  C5  OS6 d   1      37.256  73.637  23.976  0.00  0.00     0.004 C 
ATOM      6  H2  OS6 d   1      35.577  74.884  23.368  0.00  0.00     0.086 H 
ATOM      7  H3  OS6 d   1      34.907  75.022  25.912  0.00  0.00     0.080 H 
ATOM      8  H4  OS6 d   1      36.478  75.765  25.456  0.00  0.00     0.080 H 
ATOM      9  H5  OS6 d   1      35.979  73.041  26.480  0.00  0.00     0.280 HD
ATOM     10  H13 OS6 d   1      37.712  72.153  25.479  0.00  0.00     0.076 H 
ATOM     11  H14 OS6 d   1      38.645  73.681  25.632  0.00  0.00     0.076 H 
ATOM     12  H15 OS6 d   1      37.264  72.758  23.315  0.00  0.00     0.047 H 
ENDROOT
BRANCH   5  13
ATOM     13  C4  OS6 d   1      38.189  74.699  23.397  0.00  0.00    -0.016 C 
ATOM     14  H16 OS6 d   1      39.221  74.468  23.701  0.00  0.00     0.049 H 
ATOM     15  H17 OS6 d   1      37.900  75.681  23.799  0.00  0.00     0.049 H 
BRANCH  13  16
ATOM     16  S   OS6 d   1      38.116  74.762  21.636  0.00  0.00    -0.169 SA
BRANCH  16  17
ATOM     17  C3  OS6 d   1      39.189  73.420  21.152  0.00  0.00    -0.023 C 
ATOM     18  H18 OS6 d   1      38.800  72.489  21.589  0.00  0.00     0.049 H 
ATOM     19  H19 OS6 d   1      40.195  73.619  21.549  0.00  0.00     0.049 H 
BRANCH  17  20
ATOM     20  C2  OS6 d   1      39.295  73.236  19.633  0.00  0.00    -0.052 C 
ATOM     21  H20 OS6 d   1      39.535  74.202  19.165  0.00  0.00     0.034 H 
ATOM     22  H21 OS6 d   1      38.335  72.868  19.243  0.00  0.00     0.034 H 
BRANCH  20  23
ATOM     23  C1  OS6 d   1      40.399  72.224  19.304  0.00  0.00    -0.021 C 
ATOM     24  H22 OS6 d   1      40.353  71.392  20.022  0.00  0.00     0.042 H 
ATOM     25  H23 OS6 d   1      41.378  72.719  19.378  0.00  0.00     0.042 H 
BRANCH  23  26
ATOM     26  C   OS6 d   1      40.220  71.682  17.902  0.00  0.00     0.069 A 
ATOM     27  N5  OS6 d   1      40.314  72.426  16.764  0.00  0.00    -0.163 NA
ATOM     28  N7  OS6 d   1      40.078  71.590  15.658  0.00  0.00     0.004 NA
ATOM     29  N6  OS6 d   1      39.826  70.333  16.209  0.00  0.00    -0.283 N 
ATOM     30  C16 OS6 d   1      39.905  70.367  17.549  0.00  0.00     0.020 A 
ATOM     31  H24 OS6 d   1      39.753  69.531  18.230  0.00  0.00     0.116 H 
BRANCH  29  32
ATOM     32  C17 OS6 d   1      39.538  69.271  15.241  0.00  0.00     0.013 C 
ATOM     33  H25 OS6 d   1      40.369  68.551  15.228  0.00  0.00     0.066 H 
ATOM     34  H26 OS6 d   1      39.417  69.710  14.240  0.00  0.00     0.066 H 
BRANCH  32  35
ATOM     35  C18 OS6 d   1      38.252  68.557  15.643  0.00  0.00    -0.049 C 
ATOM     36  H27 OS6 d   1      37.535  69.293  16.036  0.00  0.00     0.035 H 
ATOM     37  H28 OS6 d   1      38.477  67.813  16.421  0.00  0.00     0.035 H 
BRANCH  35  38
ATOM     38  C19 OS6 d   1      37.641  67.854  14.436  0.00  0.00    -0.067 C 
ATOM     39  H32 OS6 d   1      38.373  67.142  14.027  0.00  0.00     0.032 H 
ATOM     40  H33 OS6 d   1      37.393  68.604  13.671  0.00  0.00     0.032 H 
BRANCH  38  41
ATOM     41  C20 OS6 d   1      36.380  67.103  14.821  0.00  0.00    -0.076 C 
ATOM     42  H29 OS6 d   1      35.963  66.607  13.932  0.00  0.00     0.027 H 
ATOM     43  H30 OS6 d   1      35.642  67.810  15.227  0.00  0.00     0.027 H 
ATOM     44  H31 OS6 d   1      36.621  66.347  15.583  0.00  0.00     0.027 H 
ENDBRANCH  38  41
ENDBRANCH  35  38
ENDBRANCH  32  35
ENDBRANCH  29  32
ENDBRANCH  23  26
ENDBRANCH  20  23
ENDBRANCH  17  20
ENDBRANCH  16  17
ENDBRANCH  13  16
ENDBRANCH   5  13
BRANCH   1  45
ATOM     45  O   OS6 d   1      34.865  73.094  24.151  0.00  0.00    -0.393 OA
ATOM     46  H1  OS6 d   1      34.008  73.445  24.363  0.00  0.00     0.210 HD
ENDBRANCH   1  45
BRANCH   3  47
ATOM     47  C7  OS6 d   1      37.082  74.238  27.614  0.00  0.00     0.111 C 
ATOM     48  H6  OS6 d   1      37.353  73.336  28.182  0.00  0.00     0.083 H 
ATOM     49  H7  OS6 d   1      36.223  74.729  28.094  0.00  0.00     0.083 H 
BRANCH  47  50
ATOM     50  C8  OS6 d   1      38.251  75.194  27.726  0.00  0.00     0.014 A 
ATOM     51  C13 OS6 d   1      38.391  76.561  27.490  0.00  0.00     0.098 A 
ATOM     52  N4  OS6 d   1      37.481  77.455  27.013  0.00  0.00    -0.239 NA
ATOM     53  C10 OS6 d   1      39.683  76.956  27.789  0.00  0.00     0.107 A 
ATOM     54  C12 OS6 d   1      37.844  78.739  26.850  0.00  0.00     0.089 A 
ATOM     55  N3  OS6 d   1      39.106  79.188  27.121  0.00  0.00    -0.223 NA
ATOM     56  H8  OS6 d   1      37.106  79.447  26.489  0.00  0.00     0.146 H 
ATOM     57  C11 OS6 d   1      40.037  78.304  27.602  0.00  0.00     0.151 A 
ATOM     58  N2  OS6 d   1      41.271  78.762  27.890  0.00  0.00    -0.382 N 
ATOM     59  H9  OS6 d   1      41.988  78.118  28.253  0.00  0.00     0.157 HD
ATOM     60  H10 OS6 d   1      41.497  79.757  27.747  0.00  0.00     0.157 HD
ATOM     61  N1  OS6 d   1      40.343  75.855  28.222  0.00  0.00    -0.360 N 
ATOM     62  C9  OS6 d   1      39.498  74.799  28.184  0.00  0.00    -0.012 A 
ATOM     63  H11 OS6 d   1      41.326  75.826  28.529  0.00  0.00     0.165 HD
ATOM     64  H12 OS6 d   1      39.761  73.782  28.473  0.00  0.00     0.112 H 
ENDBRANCH  47  50
ENDBRANCH   3  47
TORSDOF 13
