REMARK  12 active torsions:
REMARK  status: ('A' for Active; 'I' for Inactive)
REMARK    1  A    between atoms: O_1  and  C15_2 
REMARK    2  A    between atoms: N_4  and  C7_5 
REMARK    3  A    between atoms: C7_5  and  C8_6 
REMARK    4  A    between atoms: C11_11  and  N2_12 
REMARK    5  A    between atoms: C5_17  and  C4_18 
REMARK    6  A    between atoms: C4_18  and  S_19 
REMARK    7  A    between atoms: S_19  and  C3_20 
REMARK    8  A    between atoms: C3_20  and  C2_21 
REMARK    9  A    between atoms: C2_21  and  C1_22 
REMARK   10  A    between atoms: C1_22  and  C_23 
REMARK   11  A    between atoms: N6_26  and  C17_28 
REMARK   12  A    between atoms: C17_28  and  C18_29 
ROOT
ATOM      1  C4  OS5 d   1      85.223 159.058 178.304  0.00  0.00    -0.016 C 
ATOM      2  H16 OS5 d   1      84.256 159.101 177.782  0.00  0.00     0.049 H 
ATOM      3  H17 OS5 d   1      85.052 159.003 179.389  0.00  0.00     0.049 H 
ENDROOT
BRANCH   1   4
ATOM      4  C5  OS5 d   1      85.989 160.339 178.002  0.00  0.00     0.004 C 
ATOM      5  C15 OS5 d   1      85.177 161.595 178.342  0.00  0.00     0.064 C 
ATOM      6  C14 OS5 d   1      85.059 162.385 177.058  0.00  0.00     0.108 C 
ATOM      7  H2  OS5 d   1      84.191 161.308 178.736  0.00  0.00     0.086 H 
ATOM      8  N   OS5 d   1      86.198 161.921 176.297  0.00  0.00    -0.064 N 
ATOM      9  H3  OS5 d   1      85.123 163.466 177.250  0.00  0.00     0.080 H 
ATOM     10  H4  OS5 d   1      84.116 162.160 176.538  0.00  0.00     0.080 H 
ATOM     11  C6  OS5 d   1      86.295 160.476 176.516  0.00  0.00     0.090 C 
ATOM     12  H5  OS5 d   1      87.022 162.347 176.690  0.00  0.00     0.280 HD
ATOM     13  H13 OS5 d   1      87.305 160.107 176.284  0.00  0.00     0.076 H 
ATOM     14  H14 OS5 d   1      85.557 159.933 175.908  0.00  0.00     0.076 H 
ATOM     15  H15 OS5 d   1      86.925 160.330 178.580  0.00  0.00     0.047 H 
BRANCH   5  16
ATOM     16  O   OS5 d   1      85.831 162.477 179.249  0.00  0.00    -0.393 OA
ATOM     17  H1  OS5 d   1      85.941 162.043 180.087  0.00  0.00     0.210 HD
ENDBRANCH   5  16
BRANCH   8  18
ATOM     18  C7  OS5 d   1      86.173 162.302 174.879  0.00  0.00     0.111 C 
ATOM     19  H6  OS5 d   1      87.098 161.906 174.434  0.00  0.00     0.083 H 
ATOM     20  H7  OS5 d   1      86.195 163.401 174.852  0.00  0.00     0.083 H 
BRANCH  18  21
ATOM     21  C8  OS5 d   1      85.058 161.880 173.981  0.00  0.00     0.014 A 
ATOM     22  C13 OS5 d   1      83.776 162.437 173.809  0.00  0.00     0.098 A 
ATOM     23  N4  OS5 d   1      83.191 163.480 174.451  0.00  0.00    -0.239 NA
ATOM     24  C10 OS5 d   1      83.120 161.751 172.818  0.00  0.00     0.107 A 
ATOM     25  C12 OS5 d   1      81.925 163.846 174.131  0.00  0.00     0.089 A 
ATOM     26  N3  OS5 d   1      81.269 163.179 173.167  0.00  0.00    -0.223 NA
ATOM     27  H8  OS5 d   1      81.447 164.670 174.649  0.00  0.00     0.146 H 
ATOM     28  C11 OS5 d   1      81.836 162.152 172.485  0.00  0.00     0.151 A 
ATOM     29  N1  OS5 d   1      83.953 160.786 172.375  0.00  0.00    -0.360 N 
ATOM     30  C9  OS5 d   1      85.139 160.860 173.053  0.00  0.00    -0.012 A 
ATOM     31  H11 OS5 d   1      83.730 160.100 171.640  0.00  0.00     0.165 HD
ATOM     32  H12 OS5 d   1      86.005 160.220 172.888  0.00  0.00     0.112 H 
BRANCH  28  33
ATOM     33  N2  OS5 d   1      81.152 161.489 171.517  0.00  0.00    -0.382 N 
ATOM     34  H9  OS5 d   1      81.600 160.712 171.010  0.00  0.00     0.157 HD
ATOM     35  H10 OS5 d   1      80.186 161.763 171.290  0.00  0.00     0.157 HD
ENDBRANCH  28  33
ENDBRANCH  18  21
ENDBRANCH   8  18
ENDBRANCH   1   4
BRANCH   1  36
ATOM     36  S   OS5 d   1      86.068 157.585 177.796  0.00  0.00    -0.169 SA
BRANCH  36  37
ATOM     37  C3  OS5 d   1      87.552 157.404 178.739  0.00  0.00    -0.023 C 
ATOM     38  H18 OS5 d   1      87.728 156.339 178.950  0.00  0.00     0.049 H 
ATOM     39  H19 OS5 d   1      87.457 157.954 179.687  0.00  0.00     0.049 H 
BRANCH  37  40
ATOM     40  C2  OS5 d   1      88.718 157.966 177.937  0.00  0.00    -0.052 C 
ATOM     41  H20 OS5 d   1      88.598 159.057 177.865  0.00  0.00     0.034 H 
ATOM     42  H21 OS5 d   1      88.692 157.526 176.929  0.00  0.00     0.034 H 
BRANCH  40  43
ATOM     43  C1  OS5 d   1      90.079 157.670 178.558  0.00  0.00    -0.021 C 
ATOM     44  H22 OS5 d   1      90.380 156.642 178.307  0.00  0.00     0.042 H 
ATOM     45  H23 OS5 d   1      90.013 157.776 179.651  0.00  0.00     0.042 H 
BRANCH  43  46
ATOM     46  C   OS5 d   1      91.108 158.641 178.019  0.00  0.00     0.069 A 
ATOM     47  N5  OS5 d   1      90.810 159.864 177.512  0.00  0.00    -0.163 NA
ATOM     48  N7  OS5 d   1      91.989 160.491 177.090  0.00  0.00     0.004 NA
ATOM     49  N6  OS5 d   1      92.998 159.577 177.379  0.00  0.00    -0.279 N 
ATOM     50  C16 OS5 d   1      92.498 158.463 177.942  0.00  0.00     0.020 A 
ATOM     51  H24 OS5 d   1      93.062 157.592 178.274  0.00  0.00     0.116 H 
BRANCH  49  52
ATOM     52  C17 OS5 d   1      94.329 160.056 177.011  0.00  0.00     0.037 C 
ATOM     53  H25 OS5 d   1      95.089 159.437 177.509  0.00  0.00     0.074 H 
ATOM     54  H26 OS5 d   1      94.441 161.102 177.332  0.00  0.00     0.074 H 
BRANCH  52  55
ATOM     55  C18 OS5 d   1      94.517 159.969 175.509  0.00  0.00    -0.039 A 
ATOM     56  C23 OS5 d   1      93.701 160.693 174.627  0.00  0.00    -0.075 A 
ATOM     57  C22 OS5 d   1      93.875 160.593 173.255  0.00  0.00    -0.082 A 
ATOM     58  H27 OS5 d   1      92.925 161.338 175.023  0.00  0.00     0.084 H 
ATOM     59  C21 OS5 d   1      94.870 159.784 172.732  0.00  0.00    -0.083 A 
ATOM     60  H28 OS5 d   1      93.228 161.151 172.588  0.00  0.00     0.083 H 
ATOM     61  C20 OS5 d   1      95.685 159.078 173.602  0.00  0.00    -0.082 A 
ATOM     62  H29 OS5 d   1      95.009 159.704 171.660  0.00  0.00     0.083 H 
ATOM     63  C19 OS5 d   1      95.516 159.155 174.989  0.00  0.00    -0.075 A 
ATOM     64  H30 OS5 d   1      96.472 158.451 173.199  0.00  0.00     0.083 H 
ATOM     65  H31 OS5 d   1      96.158 158.585 175.651  0.00  0.00     0.084 H 
ENDBRANCH  52  55
ENDBRANCH  49  52
ENDBRANCH  43  46
ENDBRANCH  40  43
ENDBRANCH  37  40
ENDBRANCH  36  37
ENDBRANCH   1  36
TORSDOF 12
