REMARK  14 active torsions:
REMARK  status: ('A' for Active; 'I' for Inactive)
REMARK    1  A    between atoms: O_1  and  C15_2 
REMARK    2  A    between atoms: N_4  and  C7_5 
REMARK    3  A    between atoms: C7_5  and  C8_6 
REMARK    4  A    between atoms: C11_11  and  N2_12 
REMARK    5  A    between atoms: C5_17  and  C4_18 
REMARK    6  A    between atoms: C4_18  and  S_19 
REMARK    7  A    between atoms: S_19  and  C3_20 
REMARK    8  A    between atoms: C3_20  and  C2_21 
REMARK    9  A    between atoms: C2_21  and  C1_22 
REMARK   10  A    between atoms: C1_22  and  C_23 
REMARK   11  A    between atoms: N6_26  and  C17_28 
REMARK   12  A    between atoms: C17_28  and  C18_29 
REMARK   13  A    between atoms: C18_29  and  C19_31 
REMARK   14  A    between atoms: C19_31  and  C20_30 
ROOT
ATOM      1  C15 OS6 d   1      84.714 161.306 177.955  0.00  0.00     0.064 C 
ATOM      2  C14 OS6 d   1      84.746 162.226 176.744  0.00  0.00     0.108 C 
ATOM      3  N   OS6 d   1      85.860 161.711 175.944  0.00  0.00    -0.064 N 
ATOM      4  C6  OS6 d   1      85.941 160.252 176.128  0.00  0.00     0.090 C 
ATOM      5  C5  OS6 d   1      85.562 160.067 177.596  0.00  0.00     0.004 C 
ATOM      6  H2  OS6 d   1      83.685 160.986 178.178  0.00  0.00     0.086 H 
ATOM      7  H3  OS6 d   1      84.930 163.267 177.048  0.00  0.00     0.080 H 
ATOM      8  H4  OS6 d   1      83.801 162.169 176.183  0.00  0.00     0.080 H 
ATOM      9  H5  OS6 d   1      86.702 162.087 176.351  0.00  0.00     0.280 HD
ATOM     10  H13 OS6 d   1      86.960 159.885 175.934  0.00  0.00     0.076 H 
ATOM     11  H14 OS6 d   1      85.232 159.731 175.468  0.00  0.00     0.076 H 
ATOM     12  H15 OS6 d   1      86.470 160.046 178.216  0.00  0.00     0.047 H 
ENDROOT
BRANCH   5  13
ATOM     13  C4  OS6 d   1      84.797 158.767 177.816  0.00  0.00    -0.016 C 
ATOM     14  H16 OS6 d   1      83.894 158.780 177.188  0.00  0.00     0.049 H 
ATOM     15  H17 OS6 d   1      84.506 158.706 178.875  0.00  0.00     0.049 H 
BRANCH  13  16
ATOM     16  S   OS6 d   1      85.750 157.328 177.407  0.00  0.00    -0.169 SA
BRANCH  16  17
ATOM     17  C3  OS6 d   1      87.204 157.253 178.406  0.00  0.00    -0.023 C 
ATOM     18  H18 OS6 d   1      87.393 156.211 178.704  0.00  0.00     0.049 H 
ATOM     19  H19 OS6 d   1      87.066 157.872 179.305  0.00  0.00     0.049 H 
BRANCH  17  20
ATOM     20  C2  OS6 d   1      88.393 157.780 177.598  0.00  0.00    -0.052 C 
ATOM     21  H20 OS6 d   1      88.234 158.855 177.429  0.00  0.00     0.034 H 
ATOM     22  H21 OS6 d   1      88.401 157.255 176.632  0.00  0.00     0.034 H 
BRANCH  20  23
ATOM     23  C1  OS6 d   1      89.775 157.606 178.237  0.00  0.00    -0.021 C 
ATOM     24  H22 OS6 d   1      90.105 156.563 178.120  0.00  0.00     0.042 H 
ATOM     25  H23 OS6 d   1      89.719 157.855 179.307  0.00  0.00     0.042 H 
BRANCH  23  26
ATOM     26  C   OS6 d   1      90.768 158.532 177.552  0.00  0.00     0.069 A 
ATOM     27  N5  OS6 d   1      90.467 159.784 177.131  0.00  0.00    -0.163 NA
ATOM     28  N7  OS6 d   1      91.583 160.380 176.537  0.00  0.00     0.004 NA
ATOM     29  N6  OS6 d   1      92.569 159.409 176.639  0.00  0.00    -0.283 N 
ATOM     30  C16 OS6 d   1      92.113 158.295 177.237  0.00  0.00     0.020 A 
ATOM     31  H24 OS6 d   1      92.678 157.386 177.438  0.00  0.00     0.116 H 
BRANCH  29  32
ATOM     32  C17 OS6 d   1      93.833 159.841 176.051  0.00  0.00     0.013 C 
ATOM     33  H25 OS6 d   1      94.571 159.029 176.121  0.00  0.00     0.066 H 
ATOM     34  H26 OS6 d   1      94.208 160.725 176.588  0.00  0.00     0.066 H 
BRANCH  32  35
ATOM     35  C18 OS6 d   1      93.593 160.195 174.576  0.00  0.00    -0.049 C 
ATOM     36  H27 OS6 d   1      93.519 161.289 174.484  0.00  0.00     0.035 H 
ATOM     37  H28 OS6 d   1      92.647 159.735 174.253  0.00  0.00     0.035 H 
BRANCH  35  38
ATOM     38  C19 OS6 d   1      94.710 159.703 173.667  0.00  0.00    -0.067 C 
ATOM     39  H32 OS6 d   1      94.915 158.646 173.891  0.00  0.00     0.032 H 
ATOM     40  H33 OS6 d   1      95.615 160.300 173.855  0.00  0.00     0.032 H 
BRANCH  38  41
ATOM     41  C20 OS6 d   1      94.325 159.834 172.208  0.00  0.00    -0.076 C 
ATOM     42  H29 OS6 d   1      95.150 159.471 171.577  0.00  0.00     0.027 H 
ATOM     43  H30 OS6 d   1      94.122 160.890 171.976  0.00  0.00     0.027 H 
ATOM     44  H31 OS6 d   1      93.423 159.236 172.012  0.00  0.00     0.027 H 
ENDBRANCH  38  41
ENDBRANCH  35  38
ENDBRANCH  32  35
ENDBRANCH  29  32
ENDBRANCH  23  26
ENDBRANCH  20  23
ENDBRANCH  17  20
ENDBRANCH  16  17
ENDBRANCH  13  16
ENDBRANCH   5  13
BRANCH   1  45
ATOM     45  O   OS6 d   1      85.216 162.077 179.050  0.00  0.00    -0.393 OA
ATOM     46  H1  OS6 d   1      85.217 161.544 179.837  0.00  0.00     0.210 HD
ENDBRANCH   1  45
BRANCH   3  47
ATOM     47  C7  OS6 d   1      85.859 162.199 174.553  0.00  0.00     0.111 C 
ATOM     48  H6  OS6 d   1      86.821 161.904 174.109  0.00  0.00     0.083 H 
ATOM     49  H7  OS6 d   1      85.797 163.296 174.598  0.00  0.00     0.083 H 
BRANCH  47  50
ATOM     50  C8  OS6 d   1      84.780 161.736 173.610  0.00  0.00     0.014 A 
ATOM     51  C13 OS6 d   1      83.503 162.249 173.408  0.00  0.00     0.098 A 
ATOM     52  N4  OS6 d   1      82.885 163.284 174.032  0.00  0.00    -0.239 NA
ATOM     53  C10 OS6 d   1      82.879 161.549 172.390  0.00  0.00     0.107 A 
ATOM     54  C12 OS6 d   1      81.628 163.629 173.672  0.00  0.00     0.089 A 
ATOM     55  N3  OS6 d   1      80.969 162.951 172.700  0.00  0.00    -0.223 NA
ATOM     56  H8  OS6 d   1      81.140 164.460 174.168  0.00  0.00     0.146 H 
ATOM     57  C11 OS6 d   1      81.573 161.924 172.032  0.00  0.00     0.151 A 
ATOM     58  N1  OS6 d   1      83.749 160.598 171.978  0.00  0.00    -0.360 N 
ATOM     59  C9  OS6 d   1      84.904 160.691 172.703  0.00  0.00    -0.012 A 
ATOM     60  H11 OS6 d   1      83.569 159.910 171.233  0.00  0.00     0.165 HD
ATOM     61  H12 OS6 d   1      85.778 160.051 172.589  0.00  0.00     0.112 H 
BRANCH  57  62
ATOM     62  N2  OS6 d   1      80.899 161.274 171.051  0.00  0.00    -0.382 N 
ATOM     63  H9  OS6 d   1      81.349 160.499 170.544  0.00  0.00     0.157 HD
ATOM     64  H10 OS6 d   1      79.937 161.556 170.813  0.00  0.00     0.157 HD
ENDBRANCH  57  62
ENDBRANCH  47  50
ENDBRANCH   3  47
TORSDOF 14
