REMARK  7 active torsions:
REMARK  status: ('A' for Active; 'I' for Inactive)
REMARK    1  A    between atoms: C10_1  and  C11_15 
REMARK    2  A    between atoms: N12_2  and  C13_3 
REMARK    3  A    between atoms: C11_15  and  N12_2 
REMARK    4  A    between atoms: C02_9  and  C01_8 
REMARK    5  A    between atoms: C02_9  and  C19_18 
REMARK    6  A    between atoms: N03_21  and  C02_9 
REMARK    7  A    between atoms: C06_11  and  C04_10 
REMARK       I    between atoms: C04_10  and  N03_21 
ROOT
ATOM      1  C10 HLM d   1      -4.366  -3.697   6.684  0.00  0.00    -0.039 A 
ATOM      2  C06 HLM d   1      -3.975  -3.956   9.179  0.00  0.00     0.032 A 
ATOM      3  C07 HLM d   1      -4.993  -5.069   9.253  0.00  0.00    -0.068 A 
ATOM      4  C08 HLM d   1      -5.744  -5.455   7.986  0.00  0.00    -0.081 A 
ATOM      5  C09 HLM d   1      -5.410  -4.784   6.678  0.00  0.00    -0.075 A 
ATOM      6  C18 HLM d   1      -3.675  -3.260   7.916  0.00  0.00    -0.060 A 
ATOM      7  H11 HLM d   1      -5.185  -5.582  10.188  0.00  0.00     0.085 H 
ATOM      8  H12 HLM d   1      -6.519  -6.212   8.024  0.00  0.00     0.083 H 
ATOM      9  H13 HLM d   1      -5.907  -5.075   5.759  0.00  0.00     0.084 H 
ATOM     10  H18 HLM d   1      -2.962  -2.444   7.890  0.00  0.00     0.086 H 
ENDROOT
BRANCH   2  11
ATOM     11  C04 HLM d   1      -3.141  -3.512  10.331  0.00  0.00     0.252 C 
ATOM     12  N03 HLM d   1      -2.985  -4.370  11.455  0.00  0.00    -0.349 N 
ATOM     13  H20 HLM d   1      -3.167  -5.352  11.405  0.00  0.00     0.163 HD
ATOM     14  O05 HLM d   1      -2.629  -2.451  10.342  0.00  0.00    -0.268 OA
BRANCH  12  15
ATOM     15  C02 HLM d   1      -2.533  -3.711  12.711  0.00  0.00     0.034 C 
ATOM     16  H10 HLM d   1      -2.894  -2.672  12.713  0.00  0.00     0.079 H 
BRANCH  15  17
ATOM     17  C01 HLM d   1      -3.156  -4.369  13.924  0.00  0.00    -0.053 C 
ATOM     18  H7  HLM d   1      -4.252  -4.323  13.844  0.00  0.00     0.030 H 
ATOM     19  H8  HLM d   1      -2.832  -3.842  14.834  0.00  0.00     0.030 H 
ATOM     20  H9  HLM d   1      -2.836  -5.420  13.976  0.00  0.00     0.030 H 
ENDBRANCH  15  17
BRANCH  15  21
ATOM     21  C19 HLM d   1      -1.010  -3.656  12.603  0.00  0.00    -0.034 A 
ATOM     22  C20 HLM d   1      -0.280  -2.504  13.294  0.00  0.00    -0.075 A 
ATOM     23  C21 HLM d   1       1.231  -2.350  13.171  0.00  0.00    -0.081 A 
ATOM     24  H4  HLM d   1      -0.845  -1.787  13.879  0.00  0.00     0.084 H 
ATOM     25  C22 HLM d   1       2.000  -3.298  12.258  0.00  0.00    -0.062 A 
ATOM     26  H5  HLM d   1       1.752  -1.577  13.725  0.00  0.00     0.083 H 
ATOM     27  C23 HLM d   1       1.272  -4.426  11.530  0.00  0.00     0.034 A 
ATOM     28  H6  HLM d   1       3.068  -3.171  12.125  0.00  0.00     0.086 H 
ATOM     29  C25 HLM d   1      -0.230  -4.629  11.724  0.00  0.00    -0.054 A 
ATOM     30 CL   HLM d   1       2.192  -5.522  10.478  0.00  0.00    -0.084 Cl
ATOM     31  H19 HLM d   1      -0.737  -5.457  11.241  0.00  0.00     0.087 H 
ENDBRANCH  15  21
ENDBRANCH  12  15
ENDBRANCH   2  11
BRANCH   1  32
ATOM     32  C11 HLM d   1      -4.012  -2.989   5.406  0.00  0.00     0.033 C 
ATOM     33  H14 HLM d   1      -3.661  -1.967   5.612  0.00  0.00     0.072 H 
ATOM     34  H15 HLM d   1      -4.879  -2.950   4.730  0.00  0.00     0.072 H 
BRANCH  32  35
ATOM     35  N12 HLM d   1      -2.941  -3.796   4.826  0.00  0.00    -0.222 N 
ATOM     36  H1  HLM d   1      -3.122  -4.781   4.584  0.00  0.00     0.178 HD
BRANCH  35  37
ATOM     37  C13 HLM d   1      -1.663  -3.248   4.592  0.00  0.00     0.670 A 
ATOM     38  N14 HLM d   1      -1.162  -2.000   5.101  0.00  0.00    -0.225 N 
ATOM     39  C15 HLM d   1       0.169  -1.825   4.580  0.00  0.00     0.024 A 
ATOM     40  H21 HLM d   1      -1.663  -1.351   5.724  0.00  0.00     0.177 HD
ATOM     41  C16 HLM d   1       0.529  -3.064   3.839  0.00  0.00     0.024 A 
ATOM     42  H2  HLM d   1       0.195  -0.961   3.900  0.00  0.00     0.067 H 
ATOM     43  H3  HLM d   1       0.877  -1.663   5.406  0.00  0.00     0.067 H 
ATOM     44  N17 HLM d   1      -0.630  -3.901   3.827  0.00  0.00    -0.225 N 
ATOM     45  H16 HLM d   1       1.360  -3.578   4.345  0.00  0.00     0.067 H 
ATOM     46  H17 HLM d   1       0.825  -2.815   2.809  0.00  0.00     0.067 H 
ATOM     47  H22 HLM d   1      -0.713  -4.812   3.354  0.00  0.00     0.177 HD
ENDBRANCH  35  37
ENDBRANCH  32  35
ENDBRANCH   1  32
TORSDOF 7
