REMARK  3 active torsions:
REMARK  status: ('A' for Active; 'I' for Inactive)
REMARK    1  A    between atoms: C4_2  and  N1_1 
REMARK    2  A    between atoms: C3_9  and  C4_2 
REMARK    3  A    between atoms: C2_8  and  C1_7 
ROOT
ATOM      1  C4  HLP d   1       3.483  -1.494  -5.423  0.00  0.00     0.044 C 
ATOM      2  H1  HLP d   1       4.305  -1.683  -4.717  0.00  0.00     0.075 H 
ATOM      3  H2  HLP d   1       3.374  -0.410  -5.578  0.00  0.00     0.075 H 
ENDROOT
BRANCH   1   4
ATOM      4  N1  HLP d   1       2.246  -2.028  -4.875  0.00  0.00    -0.344 N 
ATOM      5  C5  HLP d   1       2.112  -3.263  -4.414  0.00  0.00    -0.002 A 
ATOM      6  C6  HLP d   1       0.806  -3.380  -3.957  0.00  0.00     0.018 A 
ATOM      7  H3  HLP d   1       2.878  -4.037  -4.397  0.00  0.00     0.113 H 
ATOM      8  N2  HLP d   1       0.211  -2.210  -4.149  0.00  0.00    -0.255 NA
ATOM      9  H4  HLP d   1       0.353  -4.269  -3.521  0.00  0.00     0.117 H 
ATOM     10  C7  HLP d   1       1.089  -1.396  -4.715  0.00  0.00     0.066 A 
ATOM     11  H5  HLP d   1       0.892  -0.365  -5.005  0.00  0.00     0.143 H 
ENDBRANCH   1   4
BRANCH   1  12
ATOM     12  C3  HLP d   1       3.798  -2.164  -6.753  0.00  0.00     0.072 A 
ATOM     13  C8  HLP d   1       4.714  -3.210  -6.952  0.00  0.00    -0.050 A 
ATOM     14  C9  HLP d   1       4.660  -3.480  -8.355  0.00  0.00    -0.041 A 
ATOM     15  H6  HLP d   1       5.330  -3.706  -6.203  0.00  0.00     0.087 H 
ATOM     16  C2  HLP d   1       3.708  -2.583  -8.852  0.00  0.00     0.152 A 
ATOM     17  H7  HLP d   1       5.233  -4.220  -8.913  0.00  0.00     0.088 H 
ATOM     18  O3  HLP d   1       3.246  -1.833  -7.891  0.00  0.00    -0.306 OA
BRANCH  16  19
ATOM     19  C1  HLP d   1       3.249  -2.441 -10.284  0.00  0.00     0.234 C 
ATOM     20  O1  HLP d   1       3.629  -3.239 -11.174  0.00  0.00    -0.642 OA
ATOM     21  O2  HLP d   1       2.436  -1.538 -10.535  0.00  0.00    -0.642 OA
ENDBRANCH  16  19
ENDBRANCH   1  12
TORSDOF 3
