REMARK  10 active torsions:
REMARK  status: ('A' for Active; 'I' for Inactive)
REMARK    1  A    between atoms: C5_4  and  N1_1 
REMARK       I    between atoms: N1_1  and  C6_5 
REMARK    2  A    between atoms: C4_3  and  C5_4 
REMARK    3  A    between atoms: C6_5  and  C7_6 
REMARK    4  A    between atoms: N2_24  and  C13_9 
REMARK    5  A    between atoms: O1_26  and  C1_13 
REMARK    6  A    between atoms: C11_14  and  C12_15 
REMARK    7  A    between atoms: C12_15  and  N2_24 
REMARK    8  A    between atoms: C18_18  and  O3_28 
REMARK    9  A    between atoms: O3_28  and  C19_19 
REMARK   10  A    between atoms: C2_20  and  O1_26 
ROOT
ATOM      1  N1  HLS d   1      -2.420  -3.322  12.159  0.00  0.00    -0.353 N 
ATOM      2  C6  HLS d   1      -2.630  -2.604  11.051  0.00  0.00     0.251 C 
ATOM      3  O2  HLS d   1      -2.288  -1.428  10.959  0.00  0.00    -0.268 OA
ATOM      4  H1  HLS d   1      -2.702  -4.281  12.191  0.00  0.00     0.163 HD
ENDROOT
BRANCH   2   5
ATOM      5  C7  HLS d   1      -3.266  -3.304   9.887  0.00  0.00     0.032 A 
ATOM      6  C8  HLS d   1      -3.876  -4.540  10.027  0.00  0.00    -0.065 A 
ATOM      7  C9  HLS d   1      -4.424  -5.174   8.927  0.00  0.00    -0.044 A 
ATOM      8  H5  HLS d   1      -3.924  -5.012  11.002  0.00  0.00     0.085 H 
ATOM      9  C10 HLS d   1      -4.346  -4.556   7.706  0.00  0.00     0.124 A 
ATOM     10  H20 HLS d   1      -4.905  -6.140   9.028  0.00  0.00     0.088 H 
ATOM     11  C11 HLS d   1      -3.742  -3.328   7.516  0.00  0.00    -0.000 A 
ATOM     12  F1  HLS d   1      -4.859  -5.192   6.631  0.00  0.00    -0.205 F 
ATOM     13  C16 HLS d   1      -3.201  -2.708   8.632  0.00  0.00    -0.057 A 
ATOM     14  H15 HLS d   1      -2.719  -1.743   8.525  0.00  0.00     0.086 H 
BRANCH  11  15
ATOM     15  C12 HLS d   1      -3.650  -2.678   6.155  0.00  0.00     0.036 C 
ATOM     16  H12 HLS d   1      -3.348  -1.628   6.282  0.00  0.00     0.072 H 
ATOM     17  H13 HLS d   1      -4.638  -2.720   5.673  0.00  0.00     0.072 H 
BRANCH  15  18
ATOM     18  N2  HLS d   1      -2.681  -3.347   5.301  0.00  0.00    -0.220 N 
ATOM     19  H21 HLS d   1      -2.953  -4.248   4.882  0.00  0.00     0.178 HD
BRANCH  18  20
ATOM     20  C13 HLS d   1      -1.480  -2.880   5.027  0.00  0.00     0.700 A 
ATOM     21  N3  HLS d   1      -0.613  -3.533   4.281  0.00  0.00    -0.199 N 
ATOM     22  C14 HLS d   1       0.623  -2.764   4.172  0.00  0.00     0.012 A 
ATOM     23  H2  HLS d   1      -0.782  -4.449   3.841  0.00  0.00     0.183 HD
ATOM     24  C15 HLS d   1       0.338  -1.485   4.950  0.00  0.00     0.036 A 
ATOM     25  H14 HLS d   1       1.540  -3.041   3.653  0.00  0.00     0.114 H 
ATOM     26  N4  HLS d   1      -1.005  -1.726   5.452  0.00  0.00    -0.076 NA
ATOM     27  H6  HLS d   1       0.976  -0.614   5.093  0.00  0.00     0.117 H 
ENDBRANCH  18  20
ENDBRANCH  15  18
ENDBRANCH  11  15
ENDBRANCH   2   5
BRANCH   1  28
ATOM     28  C5  HLS d   1      -1.782  -2.716  13.321  0.00  0.00     0.019 C 
ATOM     29  H3  HLS d   1      -2.438  -2.869  14.191  0.00  0.00     0.071 H 
ATOM     30  H4  HLS d   1      -1.673  -1.638  13.129  0.00  0.00     0.071 H 
BRANCH  28  31
ATOM     31  C4  HLS d   1      -0.418  -3.276  13.655  0.00  0.00    -0.035 A 
ATOM     32  C17 HLS d   1       0.474  -3.652  12.653  0.00  0.00    -0.043 A 
ATOM     33  C18 HLS d   1       1.726  -4.157  13.006  0.00  0.00     0.071 A 
ATOM     34  H7  HLS d   1       0.198  -3.553  11.609  0.00  0.00     0.088 H 
ATOM     35  C20 HLS d   1       2.106  -4.271  14.337  0.00  0.00    -0.019 A 
ATOM     36  C2  HLS d   1       1.217  -3.875  15.324  0.00  0.00     0.071 A 
ATOM     37  H8  HLS d   1       3.082  -4.663  14.600  0.00  0.00     0.092 H 
ATOM     38  C3  HLS d   1      -0.035  -3.376  14.987  0.00  0.00    -0.043 A 
ATOM     39  H19 HLS d   1      -0.718  -3.062  15.768  0.00  0.00     0.088 H 
BRANCH  33  40
ATOM     40  O3  HLS d   1       2.652  -4.555  12.077  0.00  0.00    -0.356 OA
BRANCH  40  41
ATOM     41  C19 HLS d   1       2.325  -4.410  10.698  0.00  0.00     0.010 C 
ATOM     42  H16 HLS d   1       3.163  -4.771  10.083  0.00  0.00     0.066 H 
ATOM     43  H17 HLS d   1       2.136  -3.349  10.475  0.00  0.00     0.066 H 
ATOM     44  H18 HLS d   1       1.424  -4.998  10.471  0.00  0.00     0.066 H 
ENDBRANCH  40  41
ENDBRANCH  33  40
BRANCH  36  45
ATOM     45  O1  HLS d   1       1.587  -3.987  16.639  0.00  0.00    -0.356 OA
BRANCH  45  46
ATOM     46  C1  HLS d   1       0.703  -3.453  17.620  0.00  0.00     0.010 C 
ATOM     47  H9  HLS d   1       1.127  -3.614  18.622  0.00  0.00     0.066 H 
ATOM     48  H10 HLS d   1      -0.272  -3.958  17.549  0.00  0.00     0.066 H 
ATOM     49  H11 HLS d   1       0.571  -2.375  17.447  0.00  0.00     0.066 H 
ENDBRANCH  45  46
ENDBRANCH  36  45
ENDBRANCH  28  31
ENDBRANCH   1  28
TORSDOF 10
