REMARK  9 active torsions:
REMARK  status: ('A' for Active; 'I' for Inactive)
REMARK       I    between atoms: N1_1  and  C1_16 
REMARK    1  A    between atoms: C2_23  and  N1_1 
REMARK    2  A    between atoms: C20_12  and  N3_2 
REMARK    3  A    between atoms: C13_9  and  C14_19 
REMARK    4  A    between atoms: C19_22  and  C20_12 
REMARK    5  A    between atoms: C21_13  and  N5_31 
REMARK    6  A    between atoms: N4_30  and  C22_14 
REMARK    7  A    between atoms: C1_16  and  C9_27 
REMARK    8  A    between atoms: C11_17  and  C12_18 
REMARK    9  A    between atoms: C2_23  and  C3_26 
ROOT
ATOM      1  C10 HLJ d   1       4.250   4.817   8.795  0.00  0.00    -0.057 A 
ATOM      2  C11 HLJ d   1       4.688   5.194   7.527  0.00  0.00    -0.022 A 
ATOM      3  C18 HLJ d   1       4.406   4.338   6.459  0.00  0.00    -0.064 A 
ATOM      4  C19 HLJ d   1       3.762   3.117   6.652  0.00  0.00    -0.037 A 
ATOM      5  C25 HLJ d   1       3.359   2.758   7.929  0.00  0.00    -0.060 A 
ATOM      6  C9  HLJ d   1       3.622   3.593   9.007  0.00  0.00     0.033 A 
ATOM      7  H5  HLJ d   1       4.401   5.489   9.632  0.00  0.00     0.086 H 
ATOM      8  H17 HLJ d   1       4.695   4.631   5.456  0.00  0.00     0.085 H 
ATOM      9  H21 HLJ d   1       2.836   1.821   8.087  0.00  0.00     0.086 H 
ENDROOT
BRANCH   6  10
ATOM     10  C1  HLJ d   1       3.152   3.192  10.371  0.00  0.00     0.251 C 
ATOM     11  N1  HLJ d   1       2.949   4.184  11.234  0.00  0.00    -0.353 N 
ATOM     12  H1  HLJ d   1       3.216   5.114  10.982  0.00  0.00     0.163 HD
ATOM     13  O1  HLJ d   1       2.922   2.016  10.645  0.00  0.00    -0.268 OA
BRANCH  11  14
ATOM     14  C2  HLJ d   1       2.346   3.943  12.539  0.00  0.00     0.019 C 
ATOM     15  H18 HLJ d   1       2.481   4.842  13.158  0.00  0.00     0.071 H 
ATOM     16  H19 HLJ d   1       2.861   3.093  13.010  0.00  0.00     0.071 H 
BRANCH  14  17
ATOM     17  C3  HLJ d   1       0.873   3.630  12.464  0.00  0.00    -0.039 A 
ATOM     18  C4  HLJ d   1       0.048   4.319  11.589  0.00  0.00    -0.053 A 
ATOM     19  C5  HLJ d   1      -1.305   4.029  11.544  0.00  0.00     0.056 A 
ATOM     20  H2  HLJ d   1       0.461   5.083  10.941  0.00  0.00     0.087 H 
ATOM     21  C6  HLJ d   1      -1.842   3.053  12.366  0.00  0.00     0.055 A 
ATOM     22 CL1  HLJ d   1      -2.326   4.887  10.444  0.00  0.00    -0.083 Cl
ATOM     23  C7  HLJ d   1      -1.027   2.363  13.241  0.00  0.00    -0.060 A 
ATOM     24 CL2  HLJ d   1      -3.534   2.694  12.311  0.00  0.00    -0.083 Cl
ATOM     25  C8  HLJ d   1       0.322   2.657  13.285  0.00  0.00    -0.074 A 
ATOM     26  H3  HLJ d   1      -1.442   1.598  13.887  0.00  0.00     0.086 H 
ATOM     27  H4  HLJ d   1       0.962   2.117  13.974  0.00  0.00     0.084 H 
ENDBRANCH  14  17
ENDBRANCH  11  14
ENDBRANCH   6  10
BRANCH   2  28
ATOM     28  C12 HLJ d   1       5.341   6.505   7.284  0.00  0.00    -0.001 A 
ATOM     29  C13 HLJ d   1       6.733   6.623   7.136  0.00  0.00     0.044 A 
ATOM     30  N2  HLJ d   1       7.304   7.815   6.900  0.00  0.00    -0.225 NA
ATOM     31  C15 HLJ d   1       6.537   8.866   6.772  0.00  0.00     0.210 A 
ATOM     32  C16 HLJ d   1       5.162   8.868   6.888  0.00  0.00    -0.026 A 
ATOM     33  F1  HLJ d   1       7.173  10.034   6.531  0.00  0.00    -0.184 F 
ATOM     34  C17 HLJ d   1       4.568   7.652   7.137  0.00  0.00    -0.066 A 
ATOM     35  H16 HLJ d   1       4.581   9.778   6.788  0.00  0.00     0.090 H 
ATOM     36  H6  HLJ d   1       3.489   7.587   7.219  0.00  0.00     0.085 H 
BRANCH  29  37
ATOM     37  C14 HLJ d   1       7.657   5.449   7.271  0.00  0.00    -0.035 C 
ATOM     38  H13 HLJ d   1       8.695   5.779   7.115  0.00  0.00     0.035 H 
ATOM     39  H14 HLJ d   1       7.397   4.690   6.519  0.00  0.00     0.035 H 
ATOM     40  H15 HLJ d   1       7.557   5.017   8.278  0.00  0.00     0.035 H 
ENDBRANCH  29  37
ENDBRANCH   2  28
BRANCH   4  41
ATOM     41  C20 HLJ d   1       3.448   2.212   5.490  0.00  0.00     0.040 C 
ATOM     42  H7  HLJ d   1       4.270   2.260   4.761  0.00  0.00     0.073 H 
ATOM     43  H8  HLJ d   1       3.340   1.179   5.854  0.00  0.00     0.073 H 
BRANCH  41  44
ATOM     44  N3  HLJ d   1       2.202   2.629   4.841  0.00  0.00    -0.188 N 
ATOM     45  C21 HLJ d   1       1.079   1.911   4.693  0.00  0.00     0.679 A 
ATOM     46  N4  HLJ d   1       0.188   2.667   3.944  0.00  0.00    -0.197 N 
ATOM     47  C23 HLJ d   1       0.768   3.888   3.717  0.00  0.00     0.012 A 
ATOM     48  C24 HLJ d   1       1.997   3.868   4.250  0.00  0.00     0.013 A 
ATOM     49  H20 HLJ d   1       0.310   4.727   3.195  0.00  0.00     0.114 H 
ATOM     50  H12 HLJ d   1       2.715   4.687   4.224  0.00  0.00     0.114 H 
BRANCH  45  51
ATOM     51  N5  HLJ d   1       0.863   0.688   5.130  0.00  0.00    -0.234 N 
ATOM     52  H22 HLJ d   1       1.585   0.203   5.681  0.00  0.00     0.174 HD
ATOM     53  H23 HLJ d   1      -0.028   0.216   4.921  0.00  0.00     0.174 HD
ENDBRANCH  45  51
BRANCH  46  54
ATOM     54  C22 HLJ d   1      -1.119   2.222   3.461  0.00  0.00     0.002 C 
ATOM     55  H9  HLJ d   1      -1.598   3.036   2.897  0.00  0.00     0.058 H 
ATOM     56  H10 HLJ d   1      -1.752   1.947   4.317  0.00  0.00     0.058 H 
ATOM     57  H11 HLJ d   1      -0.990   1.348   2.805  0.00  0.00     0.058 H 
ENDBRANCH  46  54
ENDBRANCH  41  44
ENDBRANCH   4  41
TORSDOF 9
