REMARK  11 active torsions:
REMARK  status: ('A' for Active; 'I' for Inactive)
REMARK    1  A    between atoms: C6_8  and  C3_5 
REMARK    2  A    between atoms: N_13  and  C5_7 
REMARK    3  A    between atoms: C10_17  and  N4_18 
REMARK    4  A    between atoms: N5_21  and  C23_22 
REMARK    5  A    between atoms: C23_22  and  C24_23 
REMARK    6  A    between atoms: C24_23  and  N6_24 
REMARK    7  A    between atoms: N6_24  and  C25_25 
REMARK    8  A    between atoms: N6_24  and  C26_26 
REMARK    9  A    between atoms: C11_29  and  N3_30 
REMARK   10  A    between atoms: N3_30  and  C12_31 
REMARK   11  A    between atoms: C12_31  and  C13_32 
ROOT
ATOM      1  N1  HRY d   1      15.912  -5.546  46.440  0.00  0.00    -0.062 NA
ATOM      2  N2  HRY d   1      16.457  -4.421  44.451  0.00  0.00    -0.044 NA
ATOM      3  C6  HRY d   1      14.756  -1.929  48.149  0.00  0.00    -0.024 C 
ATOM      4  C7  HRY d   1      14.614  -3.121  48.900  0.00  0.00    -0.070 C 
ATOM      5  C8  HRY d   1      15.041  -4.302  48.318  0.00  0.00    -0.053 C 
ATOM      6  C20 HRY d   1      15.187  -1.978  46.877  0.00  0.00    -0.056 C 
ATOM      7  C19 HRY d   1      15.660  -3.170  46.319  0.00  0.00     0.040 A 
ATOM      8  C9  HRY d   1      15.554  -4.336  47.030  0.00  0.00     0.090 A 
ATOM      9  C10 HRY d   1      16.319  -5.593  45.183  0.00  0.00     0.727 A 
ATOM     10  C11 HRY d   1      16.132  -3.223  44.983  0.00  0.00     0.155 A 
ATOM     11  H7  HRY d   1      14.186  -3.109  49.896  0.00  0.00     0.084 H 
ATOM     12  H8  HRY d   1      14.973  -5.224  48.884  0.00  0.00     0.087 H 
ATOM     13  H9  HRY d   1      15.168  -1.078  46.273  0.00  0.00     0.086 H 
ENDROOT
BRANCH   9  14
ATOM     14  N4  HRY d   1      16.768  -6.767  44.573  0.00  0.00    -0.211 N 
ATOM     15  C21 HRY d   1      17.132  -6.826  43.145  0.00  0.00     0.034 C 
ATOM     16  C22 HRY d   1      15.716  -7.162  42.520  0.00  0.00     0.099 C 
ATOM     17  H10 HRY d   1      17.867  -7.619  42.943  0.00  0.00     0.067 H 
ATOM     18  H11 HRY d   1      17.521  -5.864  42.782  0.00  0.00     0.067 H 
ATOM     19  N5  HRY d   1      15.149  -8.469  43.071  0.00  0.00    -0.066 N 
ATOM     20  H12 HRY d   1      15.820  -7.251  41.429  0.00  0.00     0.078 H 
ATOM     21  H13 HRY d   1      15.019  -6.344  42.756  0.00  0.00     0.078 H 
ATOM     22  C27 HRY d   1      15.265  -8.481  44.556  0.00  0.00     0.099 C 
ATOM     23  H14 HRY d   1      15.725  -9.202  42.688  0.00  0.00     0.280 HD
ATOM     24  C28 HRY d   1      16.607  -8.111  45.150  0.00  0.00     0.034 C 
ATOM     25  H26 HRY d   1      15.021  -9.498  44.898  0.00  0.00     0.078 H 
ATOM     26  H27 HRY d   1      14.522  -7.773  44.951  0.00  0.00     0.078 H 
ATOM     27  H28 HRY d   1      16.575  -8.084  46.249  0.00  0.00     0.067 H 
ATOM     28  H29 HRY d   1      17.403  -8.796  44.823  0.00  0.00     0.067 H 
BRANCH  19  29
ATOM     29  C23 HRY d   1      13.730  -8.853  42.812  0.00  0.00     0.106 C 
ATOM     30  H15 HRY d   1      13.066  -8.073  43.212  0.00  0.00     0.078 H 
ATOM     31  H16 HRY d   1      13.517  -9.808  43.314  0.00  0.00     0.078 H 
BRANCH  29  32
ATOM     32  C24 HRY d   1      13.481  -9.004  41.341  0.00  0.00     0.105 C 
ATOM     33  H17 HRY d   1      14.289  -9.630  40.934  0.00  0.00     0.078 H 
ATOM     34  H18 HRY d   1      13.535  -8.000  40.894  0.00  0.00     0.078 H 
BRANCH  32  35
ATOM     35  N6  HRY d   1      12.200  -9.607  40.917  0.00  0.00    -0.077 N 
ATOM     36  H19 HRY d   1      12.164 -10.566  41.227  0.00  0.00     0.279 HD
BRANCH  35  37
ATOM     37  C25 HRY d   1      10.940  -8.923  41.355  0.00  0.00     0.066 C 
ATOM     38  H20 HRY d   1      10.070  -9.476  40.971  0.00  0.00     0.068 H 
ATOM     39  H21 HRY d   1      10.924  -7.896  40.961  0.00  0.00     0.068 H 
ATOM     40  H22 HRY d   1      10.901  -8.895  42.454  0.00  0.00     0.068 H 
ENDBRANCH  35  37
BRANCH  35  41
ATOM     41  C26 HRY d   1      12.274  -9.521  39.432  0.00  0.00     0.066 C 
ATOM     42  H23 HRY d   1      13.191 -10.016  39.081  0.00  0.00     0.068 H 
ATOM     43  H24 HRY d   1      12.288  -8.464  39.126  0.00  0.00     0.068 H 
ATOM     44  H25 HRY d   1      11.397 -10.019  38.992  0.00  0.00     0.068 H 
ENDBRANCH  35  41
ENDBRANCH  32  35
ENDBRANCH  29  32
ENDBRANCH  19  29
ENDBRANCH   9  14
BRANCH  10  45
ATOM     45  N3  HRY d   1      16.257  -2.128  44.202  0.00  0.00    -0.369 N 
ATOM     46  H30 HRY d   1      16.156  -1.182  44.597  0.00  0.00     0.161 HD
BRANCH  45  47
ATOM     47  C12 HRY d   1      16.539  -2.322  42.783  0.00  0.00     0.018 C 
ATOM     48  H31 HRY d   1      16.952  -3.331  42.638  0.00  0.00     0.071 H 
ATOM     49  H32 HRY d   1      17.279  -1.574  42.462  0.00  0.00     0.071 H 
BRANCH  47  50
ATOM     50  C13 HRY d   1      15.273  -2.173  41.917  0.00  0.00    -0.039 A 
ATOM     51  C18 HRY d   1      14.018  -1.905  42.469  0.00  0.00    -0.054 A 
ATOM     52  C17 HRY d   1      12.848  -1.764  41.717  0.00  0.00     0.034 A 
ATOM     53  H33 HRY d   1      13.947  -1.800  43.546  0.00  0.00     0.086 H 
ATOM     54 CL   HRY d   1      11.260  -1.419  42.554  0.00  0.00    -0.084 Cl
ATOM     55  C16 HRY d   1      12.965  -1.909  40.344  0.00  0.00    -0.062 A 
ATOM     56  C15 HRY d   1      14.197  -2.189  39.760  0.00  0.00    -0.081 A 
ATOM     57  H36 HRY d   1      12.087  -1.803  39.717  0.00  0.00     0.086 H 
ATOM     58  C14 HRY d   1      15.354  -2.327  40.537  0.00  0.00    -0.075 A 
ATOM     59  H35 HRY d   1      14.262  -2.302  38.684  0.00  0.00     0.083 H 
ATOM     60  H34 HRY d   1      16.305  -2.552  40.067  0.00  0.00     0.084 H 
ENDBRANCH  47  50
ENDBRANCH  45  47
ENDBRANCH  10  45
BRANCH   3  61
ATOM     61  C3  HRY d   1      14.288  -0.624  48.734  0.00  0.00    -0.010 A 
ATOM     62  C2  HRY d   1      14.771   0.575  48.308  0.00  0.00    -0.066 A 
ATOM     63  C1  HRY d   1      14.293   1.775  48.811  0.00  0.00    -0.016 A 
ATOM     64  H2  HRY d   1      15.554   0.592  47.551  0.00  0.00     0.085 H 
ATOM     65  C   HRY d   1      13.261   1.719  49.751  0.00  0.00     0.246 A 
ATOM     66  H1  HRY d   1      14.707   2.728  48.485  0.00  0.00     0.092 H 
ATOM     67  O   HRY d   1      12.709   2.773  50.227  0.00  0.00    -0.268 OA
ATOM     68  N   HRY d   1      12.741   0.499  50.118  0.00  0.00    -0.328 N 
ATOM     69  C4  HRY d   1      13.229  -0.670  49.631  0.00  0.00    -0.007 A 
ATOM     70  H3  HRY d   1      12.800  -1.623  49.937  0.00  0.00     0.113 H 
BRANCH  68  71
ATOM     71  C5  HRY d   1      11.658   0.361  51.098  0.00  0.00    -0.012 C 
ATOM     72  H4  HRY d   1      11.413  -0.704  51.227  0.00  0.00     0.057 H 
ATOM     73  H5  HRY d   1      10.769   0.901  50.740  0.00  0.00     0.057 H 
ATOM     74  H6  HRY d   1      11.980   0.782  52.062  0.00  0.00     0.057 H 
ENDBRANCH  68  71
ENDBRANCH   3  61
TORSDOF 11
