REMARK  11 active torsions:
REMARK  status: ('A' for Active; 'I' for Inactive)
REMARK    1  A    between atoms: C01_1  and  C07_7 
REMARK    2  A    between atoms: C04_4  and  C09_9 
REMARK    3  A    between atoms: C05_5  and  C08_8 
REMARK    4  A    between atoms: C09_9  and  C10_10 
REMARK    5  A    between atoms: C12_12  and  C17_19 
REMARK    6  A    between atoms: C14_14  and  O02_18 
REMARK    7  A    between atoms: C16_16  and  O01_17 
REMARK    8  A    between atoms: C17_19  and  C18_20 
REMARK    9  A    between atoms: C18_20  and  C19_21 
REMARK   10  A    between atoms: C19_21  and  C20_22 
REMARK   11  A    between atoms: C20_22  and  C21_23 
ROOT
ATOM      1  C08 HVD d   1     -13.018  -6.642  15.086  0.00  0.00    -0.010 A 
ATOM      2  C12 HVD d   1     -13.794  -5.900  14.164  0.00  0.00    -0.046 A 
ATOM      3  C13 HVD d   1     -13.390  -5.819  12.847  0.00  0.00    -0.044 A 
ATOM      4  C14 HVD d   1     -12.270  -6.429  12.422  0.00  0.00     0.068 A 
ATOM      5  C15 HVD d   1     -11.509  -7.163  13.263  0.00  0.00    -0.018 A 
ATOM      6  C16 HVD d   1     -11.849  -7.276  14.594  0.00  0.00     0.075 A 
ATOM      7  H16 HVD d   1     -13.987  -5.253  12.142  0.00  0.00     0.088 H 
ATOM      8  H17 HVD d   1     -10.625  -7.667  12.889  0.00  0.00     0.092 H 
ENDROOT
BRANCH   1   9
ATOM      9  C05 HVD d   1     -13.446  -6.740  16.555  0.00  0.00    -0.002 C 
ATOM     10  C04 HVD d   1     -13.739  -8.186  16.965  0.00  0.00    -0.022 C 
ATOM     11  C03 HVD d   1     -14.066  -8.184  18.443  0.00  0.00    -0.054 C 
ATOM     12  H5  HVD d   1     -12.844  -8.803  16.795  0.00  0.00     0.048 H 
ATOM     13  C02 HVD d   1     -12.852  -7.721  19.249  0.00  0.00    -0.044 C 
ATOM     14  H3  HVD d   1     -14.908  -7.501  18.628  0.00  0.00     0.034 H 
ATOM     15  H4  HVD d   1     -14.344  -9.201  18.756  0.00  0.00     0.034 H 
ATOM     16  C01 HVD d   1     -12.144  -6.504  18.674  0.00  0.00    -0.087 C 
ATOM     17  H1  HVD d   1     -13.188  -7.474  20.267  0.00  0.00     0.039 H 
ATOM     18  H2  HVD d   1     -12.131  -8.550  19.292  0.00  0.00     0.039 H 
ATOM     19  C06 HVD d   1     -12.375  -6.101  17.436  0.00  0.00    -0.092 C 
ATOM     20  H7  HVD d   1     -11.780  -5.284  17.030  0.00  0.00     0.078 H 
ATOM     21  H6  HVD d   1     -14.376  -6.165  16.679  0.00  0.00     0.054 H 
BRANCH  10  22
ATOM     22  C09 HVD d   1     -14.885  -8.751  16.130  0.00  0.00    -0.088 C 
ATOM     23  C11 HVD d   1     -16.147  -8.426  16.363  0.00  0.00    -0.119 C 
ATOM     24  H14 HVD d   1     -16.392  -7.745  17.176  0.00  0.00     0.067 H 
ATOM     25  H15 HVD d   1     -16.940  -8.840  15.742  0.00  0.00     0.067 H 
BRANCH  22  26
ATOM     26  C10 HVD d   1     -14.532  -9.705  14.993  0.00  0.00    -0.055 C 
ATOM     27  H11 HVD d   1     -15.453 -10.027  14.485  0.00  0.00     0.033 H 
ATOM     28  H12 HVD d   1     -14.011 -10.584  15.400  0.00  0.00     0.033 H 
ATOM     29  H13 HVD d   1     -13.877  -9.192  14.274  0.00  0.00     0.033 H 
ENDBRANCH  22  26
ENDBRANCH  10  22
BRANCH  16  30
ATOM     30  C07 HVD d   1     -11.182  -5.731  19.572  0.00  0.00    -0.055 C 
ATOM     31  H8  HVD d   1     -10.756  -4.886  19.011  0.00  0.00     0.033 H 
ATOM     32  H9  HVD d   1     -10.372  -6.398  19.902  0.00  0.00     0.033 H 
ATOM     33  H10 HVD d   1     -11.725  -5.352  20.450  0.00  0.00     0.033 H 
ENDBRANCH  16  30
ENDBRANCH   1   9
BRANCH   2  34
ATOM     34  C17 HVD d   1     -15.058  -5.159  14.569  0.00  0.00    -0.040 C 
ATOM     35  H20 HVD d   1     -15.677  -5.822  15.192  0.00  0.00     0.040 H 
ATOM     36  H21 HVD d   1     -15.616  -4.882  13.662  0.00  0.00     0.040 H 
BRANCH  34  37
ATOM     37  C18 HVD d   1     -14.735  -3.884  15.365  0.00  0.00    -0.061 C 
ATOM     38  H22 HVD d   1     -14.091  -4.152  16.215  0.00  0.00     0.033 H 
ATOM     39  H23 HVD d   1     -15.676  -3.454  15.739  0.00  0.00     0.033 H 
BRANCH  37  40
ATOM     40  C19 HVD d   1     -14.017  -2.831  14.518  0.00  0.00    -0.065 C 
ATOM     41  H24 HVD d   1     -14.638  -2.579  13.646  0.00  0.00     0.033 H 
ATOM     42  H25 HVD d   1     -13.052  -3.233  14.177  0.00  0.00     0.033 H 
BRANCH  40  43
ATOM     43  C20 HVD d   1     -13.775  -1.563  15.355  0.00  0.00    -0.069 C 
ATOM     44  H26 HVD d   1     -14.697  -1.303  15.895  0.00  0.00     0.032 H 
ATOM     45  H27 HVD d   1     -13.496  -0.735  14.687  0.00  0.00     0.032 H 
BRANCH  43  46
ATOM     46  C21 HVD d   1     -12.653  -1.798  16.360  0.00  0.00    -0.077 C 
ATOM     47  H28 HVD d   1     -12.492  -0.884  16.950  0.00  0.00     0.027 H 
ATOM     48  H29 HVD d   1     -11.728  -2.056  15.823  0.00  0.00     0.027 H 
ATOM     49  H30 HVD d   1     -12.930  -2.624  17.032  0.00  0.00     0.027 H 
ENDBRANCH  43  46
ENDBRANCH  40  43
ENDBRANCH  37  40
ENDBRANCH  34  37
ENDBRANCH   2  34
BRANCH   6  50
ATOM     50  O01 HVD d   1     -11.047  -8.019  15.459  0.00  0.00    -0.360 OA
ATOM     51  H18 HVD d   1     -10.173  -7.648  15.476  0.00  0.00     0.217 HD
ENDBRANCH   6  50
BRANCH   4  52
ATOM     52  O02 HVD d   1     -11.895  -6.329  11.071  0.00  0.00    -0.361 OA
ATOM     53  H19 HVD d   1     -12.522  -5.785  10.609  0.00  0.00     0.217 HD
ENDBRANCH   4  52
TORSDOF 11
