REMARK  7 active torsions:
REMARK  status: ('A' for Active; 'I' for Inactive)
REMARK    1  A    between atoms: C11_1  and  C18_8 
REMARK    2  A    between atoms: C08_18  and  C12_2 
REMARK    3  A    between atoms: C13_3  and  O01_11 
REMARK    4  A    between atoms: C10_10  and  C14_4 
REMARK    5  A    between atoms: C19_9  and  O02_12 
REMARK    6  A    between atoms: C03_13  and  C10_10 
REMARK    7  A    between atoms: C04_14  and  C09_19 
ROOT
ATOM      1  C03 HVJ d   1      14.032  48.637 108.948  0.00  0.00    -0.022 C 
ATOM      2  C04 HVJ d   1      13.701  47.178 108.589  0.00  0.00    -0.002 C 
ATOM      3  C05 HVJ d   1      14.224  48.706 110.455  0.00  0.00    -0.054 C 
ATOM      4  C06 HVJ d   1      13.008  48.231 111.249  0.00  0.00    -0.044 C 
ATOM      5  C07 HVJ d   1      12.661  46.583 109.453  0.00  0.00    -0.092 C 
ATOM      6  C08 HVJ d   1      12.360  46.970 110.710  0.00  0.00    -0.087 C 
ATOM      7  H16 HVJ d   1      13.172  49.272 108.689  0.00  0.00     0.048 H 
ATOM      8  H17 HVJ d   1      14.616  46.608 108.806  0.00  0.00     0.054 H 
ATOM      9  H18 HVJ d   1      14.434  49.750 110.731  0.00  0.00     0.034 H 
ATOM     10  H19 HVJ d   1      15.084  48.075 110.725  0.00  0.00     0.034 H 
ATOM     11  H20 HVJ d   1      12.257  49.034 111.240  0.00  0.00     0.039 H 
ATOM     12  H21 HVJ d   1      13.327  48.038 112.284  0.00  0.00     0.039 H 
ATOM     13  H22 HVJ d   1      12.085  45.757 109.038  0.00  0.00     0.078 H 
ENDROOT
BRANCH   2  14
ATOM     14  C09 HVJ d   1      13.458  46.992 107.128  0.00  0.00    -0.011 A 
ATOM     15  C11 HVJ d   1      14.279  46.218 106.237  0.00  0.00    -0.050 A 
ATOM     16  C16 HVJ d   1      13.924  46.109 104.915  0.00  0.00    -0.045 A 
ATOM     17  C19 HVJ d   1      12.778  46.722 104.404  0.00  0.00     0.068 A 
ATOM     18  H9  HVJ d   1      14.552  45.530 104.248  0.00  0.00     0.088 H 
ATOM     19  C17 HVJ d   1      11.966  47.485 105.222  0.00  0.00    -0.018 A 
ATOM     20  C13 HVJ d   1      12.279  47.593 106.569  0.00  0.00     0.075 A 
ATOM     21  H10 HVJ d   1      11.097  47.992 104.817  0.00  0.00     0.092 H 
BRANCH  15  22
ATOM     22  C18 HVJ d   1      15.548  45.476 106.665  0.00  0.00    -0.051 C 
ATOM     23  H11 HVJ d   1      15.985  44.965 105.795  0.00  0.00     0.033 H 
ATOM     24  H12 HVJ d   1      15.296  44.735 107.438  0.00  0.00     0.033 H 
ATOM     25  H13 HVJ d   1      16.275  46.196 107.070  0.00  0.00     0.033 H 
ENDBRANCH  15  22
BRANCH  17  26
ATOM     26  O02 HVJ d   1      12.441  46.620 103.090  0.00  0.00    -0.361 OA
ATOM     27  H15 HVJ d   1      13.076  46.072 102.643  0.00  0.00     0.217 HD
ENDBRANCH  17  26
BRANCH  20  28
ATOM     28  O01 HVJ d   1      11.495  48.326 107.381  0.00  0.00    -0.360 OA
ATOM     29  H14 HVJ d   1      10.614  47.970 107.375  0.00  0.00     0.217 HD
ENDBRANCH  20  28
ENDBRANCH   2  14
BRANCH   1  30
ATOM     30  C10 HVJ d   1      15.233  49.122 108.108  0.00  0.00    -0.088 C 
ATOM     31  C15 HVJ d   1      16.474  48.721 108.367  0.00  0.00    -0.119 C 
ATOM     32  H7  HVJ d   1      16.667  48.055 109.207  0.00  0.00     0.067 H 
ATOM     33  H8  HVJ d   1      17.297  49.059 107.740  0.00  0.00     0.067 H 
BRANCH  30  34
ATOM     34  C14 HVJ d   1      15.058  50.039 106.933  0.00  0.00    -0.055 C 
ATOM     35  H4  HVJ d   1      16.040  50.253 106.486  0.00  0.00     0.033 H 
ATOM     36  H5  HVJ d   1      14.594  50.979 107.267  0.00  0.00     0.033 H 
ATOM     37  H6  HVJ d   1      14.412  49.557 106.185  0.00  0.00     0.033 H 
ENDBRANCH  30  34
ENDBRANCH   1  30
BRANCH   6  38
ATOM     38  C12 HVJ d   1      11.375  46.200 111.576  0.00  0.00    -0.055 C 
ATOM     39  H1  HVJ d   1      11.284  46.693 112.555  0.00  0.00     0.033 H 
ATOM     40  H2  HVJ d   1      11.737  45.171 111.716  0.00  0.00     0.033 H 
ATOM     41  H3  HVJ d   1      10.392  46.179 111.083  0.00  0.00     0.033 H 
ENDBRANCH   6  38
TORSDOF 7
