REMARK  7 active torsions:
REMARK  status: ('A' for Active; 'I' for Inactive)
REMARK    1  A    between atoms: C12_12  and  O01_1 
REMARK    2  A    between atoms: C13_13  and  O02_2 
REMARK    3  A    between atoms: C03_3  and  C10_10 
REMARK    4  A    between atoms: C09_9  and  C04_4 
REMARK    5  A    between atoms: C08_8  and  C11_11 
REMARK    6  A    between atoms: C10_10  and  C14_14 
REMARK    7  A    between atoms: C18_18  and  C19_19 
ROOT
ATOM      1  C03 MOL d   1      -5.739   7.555   2.343  0.00  0.00    -0.022 C 
ATOM      2  C04 MOL d   1      -5.435   8.078   3.797  0.00  0.00     0.000 C 
ATOM      3  C05 MOL d   1      -6.208   6.123   2.456  0.00  0.00    -0.054 C 
ATOM      4  C06 MOL d   1      -5.047   5.261   2.893  0.00  0.00    -0.044 C 
ATOM      5  C07 MOL d   1      -4.578   7.106   4.530  0.00  0.00    -0.092 C 
ATOM      6  C08 MOL d   1      -4.381   5.815   4.151  0.00  0.00    -0.087 C 
ATOM      7  H3  MOL d   1      -4.811   7.587   1.753  0.00  0.00     0.048 H 
ATOM      8  H4  MOL d   1      -6.396   8.130   4.329  0.00  0.00     0.054 H 
ATOM      9  H5  MOL d   1      -6.577   5.777   1.479  0.00  0.00     0.034 H 
ATOM     10  H6  MOL d   1      -7.017   6.057   3.198  0.00  0.00     0.034 H 
ATOM     11  H7  MOL d   1      -4.304   5.224   2.082  0.00  0.00     0.039 H 
ATOM     12  H8  MOL d   1      -5.414   4.245   3.101  0.00  0.00     0.039 H 
ATOM     13  H9  MOL d   1      -4.074   7.453   5.431  0.00  0.00     0.078 H 
ENDROOT
BRANCH   2  14
ATOM     14  C09 MOL d   1      -4.840   9.512   3.808  0.00  0.00     0.017 A 
ATOM     15  C12 MOL d   1      -5.394  10.653   4.421  0.00  0.00     0.075 A 
ATOM     16  C16 MOL d   1      -4.904  11.940   4.451  0.00  0.00    -0.045 A 
ATOM     17  C18 MOL d   1      -3.697  12.168   3.768  0.00  0.00    -0.057 A 
ATOM     18  H18 MOL d   1      -5.422  12.736   4.974  0.00  0.00     0.088 H 
ATOM     19  C17 MOL d   1      -3.098  11.100   3.099  0.00  0.00    -0.045 A 
ATOM     20  C13 MOL d   1      -3.665   9.881   3.185  0.00  0.00     0.075 A 
ATOM     21  H19 MOL d   1      -2.193  11.248   2.521  0.00  0.00     0.088 H 
BRANCH  15  22
ATOM     22  O01 MOL d   1      -6.621  10.402   5.141  0.00  0.00    -0.360 OA
ATOM     23  H1  MOL d   1      -6.933  11.213   5.525  0.00  0.00     0.217 HD
ENDBRANCH  15  22
BRANCH  17  24
ATOM     24  C19 MOL d   1      -3.049  13.583   3.730  0.00  0.00    -0.051 C 
ATOM     25  H20 MOL d   1      -3.665  14.284   4.312  0.00  0.00     0.033 H 
ATOM     26  H21 MOL d   1      -2.985  13.929   2.688  0.00  0.00     0.033 H 
ATOM     27  H22 MOL d   1      -2.039  13.536   4.163  0.00  0.00     0.033 H 
ENDBRANCH  17  24
BRANCH  20  28
ATOM     28  O02 MOL d   1      -2.988   8.796   2.495  0.00  0.00    -0.360 OA
ATOM     29  H2  MOL d   1      -2.192   9.125   2.093  0.00  0.00     0.217 HD
ENDBRANCH  20  28
ENDBRANCH   2  14
BRANCH   1  30
ATOM     30  C10 MOL d   1      -6.783   8.399   1.637  0.00  0.00    -0.088 C 
ATOM     31  C15 MOL d   1      -6.433   9.090   0.507  0.00  0.00    -0.119 C 
ATOM     32  H16 MOL d   1      -5.420   9.014   0.114  0.00  0.00     0.067 H 
ATOM     33  H17 MOL d   1      -7.168   9.716   0.002  0.00  0.00     0.067 H 
BRANCH  30  34
ATOM     34  C14 MOL d   1      -8.194   8.524   2.159  0.00  0.00    -0.055 C 
ATOM     35  H13 MOL d   1      -8.774   9.181   1.494  0.00  0.00     0.033 H 
ATOM     36  H14 MOL d   1      -8.174   8.953   3.172  0.00  0.00     0.033 H 
ATOM     37  H15 MOL d   1      -8.662   7.529   2.192  0.00  0.00     0.033 H 
ENDBRANCH  30  34
ENDBRANCH   1  30
BRANCH   6  38
ATOM     38  C11 MOL d   1      -3.600   4.879   5.030  0.00  0.00    -0.055 C 
ATOM     39  H10 MOL d   1      -3.190   5.436   5.886  0.00  0.00     0.033 H 
ATOM     40  H11 MOL d   1      -2.776   4.436   4.452  0.00  0.00     0.033 H 
ATOM     41  H12 MOL d   1      -4.263   4.081   5.396  0.00  0.00     0.033 H 
ENDBRANCH   6  38
TORSDOF 7
