REMARK  18 active torsions:
REMARK  status: ('A' for Active; 'I' for Inactive)
REMARK    1  A    between atoms: N11_33  and  C12_1 
REMARK    2  A    between atoms: C12_1  and  C13_34 
REMARK    3  A    between atoms: C13_34  and  C14_2 
REMARK    4  A    between atoms: C17_4  and  C16_3 
REMARK    5  A    between atoms: C16_3  and  N11_33 
REMARK    6  A    between atoms: C19_5  and  C17_4 
REMARK    7  A    between atoms: C17_4  and  O18_32 
REMARK    8  A    between atoms: N20_24  and  C19_5 
REMARK    9  A    between atoms: C19_5  and  C32_25 
REMARK   10  A    between atoms: O23_23  and  C21_6 
REMARK       I    between atoms: C21_6  and  N20_24 
REMARK   11  A    between atoms: C24_8  and  O23_23 
REMARK   12  A    between atoms: N29_14  and  C41_15 
REMARK   13  A    between atoms: C32_25  and  C38_26 
REMARK   14  A    between atoms: N11_33  and  S8_36 
REMARK   15  A    between atoms: C13_34  and  C15_35 
REMARK   16  A    between atoms: S8_36  and  C5_39 
REMARK   17  A    between atoms: C2_44  and  O39_45 
REMARK   18  A    between atoms: O39_45  and  C40_46 
ROOT
ATOM      1  C19 HWY d   1      17.826  23.998  18.703  0.00  0.00     0.044 C 
ATOM      2  H9  HWY d   1      18.096  23.015  18.291  0.00  0.00     0.077 H 
ENDROOT
BRANCH   1   3
ATOM      3  C17 HWY d   1      16.281  24.171  18.381  0.00  0.00     0.071 C 
ATOM      4  H8  HWY d   1      16.124  24.326  17.303  0.00  0.00     0.088 H 
BRANCH   3   5
ATOM      5  C16 HWY d   1      15.433  22.973  18.855  0.00  0.00     0.031 C 
ATOM      6  H6  HWY d   1      14.365  23.234  18.818  0.00  0.00     0.069 H 
ATOM      7  H7  HWY d   1      15.709  22.704  19.885  0.00  0.00     0.069 H 
BRANCH   5   8
ATOM      8  N11 HWY d   1      15.705  21.827  17.944  0.00  0.00    -0.304 N 
BRANCH   8   9
ATOM      9  C12 HWY d   1      14.731  21.569  16.872  0.00  0.00     0.008 C 
ATOM     10  H1  HWY d   1      13.719  21.610  17.302  0.00  0.00     0.066 H 
ATOM     11  H2  HWY d   1      14.916  20.564  16.466  0.00  0.00     0.066 H 
BRANCH   9  12
ATOM     12  C13 HWY d   1      14.815  22.595  15.707  0.00  0.00    -0.045 C 
ATOM     13  H31 HWY d   1      14.646  23.622  16.063  0.00  0.00     0.041 H 
BRANCH  12  14
ATOM     14  C14 HWY d   1      16.194  22.478  15.025  0.00  0.00    -0.072 C 
ATOM     15  H3  HWY d   1      16.258  23.203  14.200  0.00  0.00     0.028 H 
ATOM     16  H4  HWY d   1      16.322  21.460  14.629  0.00  0.00     0.028 H 
ATOM     17  H5  HWY d   1      16.985  22.689  15.759  0.00  0.00     0.028 H 
ENDBRANCH  12  14
BRANCH  12  18
ATOM     18  C15 HWY d   1      13.748  22.166  14.737  0.00  0.00    -0.072 C 
ATOM     19  H32 HWY d   1      12.762  22.247  15.217  0.00  0.00     0.028 H 
ATOM     20  H33 HWY d   1      13.924  21.123  14.436  0.00  0.00     0.028 H 
ATOM     21  H34 HWY d   1      13.778  22.814  13.849  0.00  0.00     0.028 H 
ENDBRANCH  12  18
ENDBRANCH   9  12
ENDBRANCH   8   9
BRANCH   8  22
ATOM     22  S8  HWY d   1      16.355  20.471  18.678  0.00  0.00     0.260 S 
ATOM     23  O9  HWY d   1      17.117  20.934  19.807  0.00  0.00    -0.200 OA
ATOM     24  O10 HWY d   1      16.995  19.776  17.600  0.00  0.00    -0.200 OA
BRANCH  22  25
ATOM     25  C5  HWY d   1      15.137  19.465  19.291  0.00  0.00     0.079 A 
ATOM     26  C4  HWY d   1      14.637  19.615  20.614  0.00  0.00    -0.058 A 
ATOM     27  C3  HWY d   1      13.555  18.867  21.009  0.00  0.00    -0.049 A 
ATOM     28  H35 HWY d   1      15.104  20.311  21.302  0.00  0.00     0.086 H 
ATOM     29  C2  HWY d   1      12.967  17.978  20.187  0.00  0.00     0.068 A 
ATOM     30  H36 HWY d   1      13.163  18.996  22.012  0.00  0.00     0.087 H 
ATOM     31  C7  HWY d   1      13.448  17.773  18.912  0.00  0.00    -0.049 A 
ATOM     32  C6  HWY d   1      14.549  18.550  18.488  0.00  0.00    -0.058 A 
ATOM     33  H38 HWY d   1      12.996  17.039  18.255  0.00  0.00     0.087 H 
ATOM     34  H37 HWY d   1      14.935  18.408  17.485  0.00  0.00     0.086 H 
BRANCH  29  35
ATOM     35  O39 HWY d   1      11.814  17.380  20.663  0.00  0.00    -0.356 OA
BRANCH  35  36
ATOM     36  C40 HWY d   1      11.161  16.456  19.792  0.00  0.00     0.010 C 
ATOM     37  H39 HWY d   1      10.264  16.056  20.288  0.00  0.00     0.066 H 
ATOM     38  H40 HWY d   1      11.847  15.630  19.552  0.00  0.00     0.066 H 
ATOM     39  H41 HWY d   1      10.868  16.970  18.865  0.00  0.00     0.066 H 
ENDBRANCH  35  36
ENDBRANCH  29  35
ENDBRANCH  22  25
ENDBRANCH   8  22
ENDBRANCH   5   8
ENDBRANCH   3   5
BRANCH   3  40
ATOM     40  O18 HWY d   1      15.918  25.357  19.145  0.00  0.00    -0.392 OA
ATOM     41  H30 HWY d   1      14.996  25.546  19.016  0.00  0.00     0.210 HD
ENDBRANCH   3  40
ENDBRANCH   1   3
BRANCH   1  42
ATOM     42  N20 HWY d   1      18.648  24.959  18.051  0.00  0.00    -0.329 N 
ATOM     43  C21 HWY d   1      19.365  24.716  17.040  0.00  0.00     0.361 C 
ATOM     44  O22 HWY d   1      19.484  23.683  16.371  0.00  0.00    -0.238 OA
ATOM     45  H22 HWY d   1      18.659  25.889  18.418  0.00  0.00     0.165 HD
BRANCH  43  46
ATOM     46  O23 HWY d   1      20.085  25.769  16.465  0.00  0.00    -0.298 OA
BRANCH  46  47
ATOM     47  C24 HWY d   1      20.919  25.499  15.371  0.00  0.00     0.054 C 
ATOM     48  C25 HWY d   1      21.155  26.876  14.665  0.00  0.00    -0.013 C 
ATOM     49  C26 HWY d   1      22.303  27.462  15.433  0.00  0.00     0.072 C 
ATOM     50  H18 HWY d   1      20.263  27.516  14.739  0.00  0.00     0.040 H 
ATOM     51  H19 HWY d   1      21.419  26.736  13.606  0.00  0.00     0.040 H 
ATOM     52  C30 HWY d   1      23.095  26.395  16.133  0.00  0.00     0.050 C 
ATOM     53  O27 HWY d   1      21.727  28.289  16.492  0.00  0.00    -0.296 OA
ATOM     54  H11 HWY d   1      22.950  28.051  14.767  0.00  0.00     0.087 H 
ATOM     55  N29 HWY d   1      23.093  26.900  17.511  0.00  0.00    -0.286 N 
ATOM     56  C31 HWY d   1      22.262  25.109  15.920  0.00  0.00    -0.018 C 
ATOM     57  H12 HWY d   1      24.118  26.273  15.747  0.00  0.00     0.077 H 
ATOM     58  C28 HWY d   1      22.217  27.872  17.691  0.00  0.00     0.368 C 
ATOM     59  O51 HWY d   1      21.817  28.452  18.678  0.00  0.00    -0.238 OA
ATOM     60  H20 HWY d   1      22.776  24.447  15.208  0.00  0.00     0.040 H 
ATOM     61  H21 HWY d   1      22.134  24.587  16.879  0.00  0.00     0.040 H 
ATOM     62  H10 HWY d   1      20.498  24.738  14.698  0.00  0.00     0.084 H 
BRANCH  55  63
ATOM     63  C41 HWY d   1      23.954  26.443  18.547  0.00  0.00     0.040 A 
ATOM     64  C46 HWY d   1      24.565  25.217  18.373  0.00  0.00    -0.057 A 
ATOM     65  C45 HWY d   1      25.426  24.710  19.367  0.00  0.00    -0.081 A 
ATOM     66  H13 HWY d   1      24.382  24.644  17.471  0.00  0.00     0.086 H 
ATOM     67  C44 HWY d   1      25.624  25.440  20.514  0.00  0.00    -0.083 A 
ATOM     68  H14 HWY d   1      25.925  23.758  19.229  0.00  0.00     0.083 H 
ATOM     69  C43 HWY d   1      25.028  26.666  20.694  0.00  0.00    -0.081 A 
ATOM     70  H15 HWY d   1      26.263  25.041  21.293  0.00  0.00     0.083 H 
ATOM     71  C42 HWY d   1      24.153  27.160  19.707  0.00  0.00    -0.057 A 
ATOM     72  H16 HWY d   1      25.230  27.247  21.587  0.00  0.00     0.083 H 
ATOM     73  H17 HWY d   1      23.638  28.101  19.859  0.00  0.00     0.086 H 
ENDBRANCH  55  63
ENDBRANCH  46  47
ENDBRANCH  43  46
ENDBRANCH   1  42
BRANCH   1  74
ATOM     74  C32 HWY d   1      18.221  23.965  20.158  0.00  0.00    -0.020 C 
ATOM     75  H23 HWY d   1      17.632  23.191  20.672  0.00  0.00     0.043 H 
ATOM     76  H24 HWY d   1      18.009  24.946  20.609  0.00  0.00     0.043 H 
BRANCH  74  77
ATOM     77  C38 HWY d   1      19.667  23.660  20.319  0.00  0.00    -0.056 A 
ATOM     78  C37 HWY d   1      20.081  22.335  20.108  0.00  0.00    -0.077 A 
ATOM     79  C36 HWY d   1      21.426  21.974  20.237  0.00  0.00    -0.082 A 
ATOM     80  H25 HWY d   1      19.348  21.582  19.842  0.00  0.00     0.084 H 
ATOM     81  C35 HWY d   1      22.386  22.952  20.554  0.00  0.00    -0.083 A 
ATOM     82  H26 HWY d   1      21.728  20.943  20.093  0.00  0.00     0.083 H 
ATOM     83  C34 HWY d   1      21.961  24.249  20.767  0.00  0.00    -0.082 A 
ATOM     84  H27 HWY d   1      23.436  22.694  20.630  0.00  0.00     0.083 H 
ATOM     85  C33 HWY d   1      20.599  24.590  20.686  0.00  0.00    -0.077 A 
ATOM     86  H28 HWY d   1      22.690  25.017  21.000  0.00  0.00     0.083 H 
ATOM     87  H29 HWY d   1      20.285  25.601  20.917  0.00  0.00     0.084 H 
ENDBRANCH  74  77
ENDBRANCH   1  74
TORSDOF 18
