REMARK  15 active torsions:
REMARK  status: ('A' for Active; 'I' for Inactive)
REMARK    1  A    between atoms: C06_6  and  C07_7 
REMARK    2  A    between atoms: C07_7  and  C08_8 
REMARK    3  A    between atoms: C08_8  and  N09_9 
REMARK    4  A    between atoms: N09_9  and  C10_10 
REMARK    5  A    between atoms: N09_9  and  C13_13 
REMARK    6  A    between atoms: C10_10  and  C11_11 
REMARK    7  A    between atoms: C11_11  and  C12_12 
REMARK    8  A    between atoms: C13_13  and  C14_14 
REMARK    9  A    between atoms: C14_14  and  C15_15 
REMARK   10  A    between atoms: C14_14  and  O28_28 
REMARK   11  A    between atoms: C15_15  and  O16_16 
REMARK   12  A    between atoms: O16_16  and  C17_17 
REMARK   13  A    between atoms: C20_20  and  N23_23 
REMARK   14  A    between atoms: N23_23  and  S24_24 
REMARK   15  A    between atoms: S24_24  and  C25_25 
ROOT
ATOM      1  C13 HYY d   1      51.365 -62.219  31.105  0.00  0.00     0.109 C 
ATOM      2  H16 HYY d   1      51.391 -61.133  30.935  0.00  0.00     0.080 H 
ATOM      3  H17 HYY d   1      51.573 -62.743  30.161  0.00  0.00     0.080 H 
ENDROOT
BRANCH   1   4
ATOM      4  N09 HYY d   1      50.034 -62.601  31.587  0.00  0.00    -0.068 N 
ATOM      5  H8  HYY d   1      49.932 -62.323  32.551  0.00  0.00     0.280 HD
BRANCH   4   6
ATOM      6  C08 HYY d   1      49.875 -64.084  31.473  0.00  0.00     0.087 C 
ATOM      7  H6  HYY d   1      48.806 -64.327  31.383  0.00  0.00     0.076 H 
ATOM      8  H7  HYY d   1      50.408 -64.437  30.578  0.00  0.00     0.076 H 
BRANCH   6   9
ATOM      9  C07 HYY d   1      50.442 -64.775  32.697  0.00  0.00    -0.018 C 
ATOM     10  H4  HYY d   1      51.528 -64.891  32.567  0.00  0.00     0.042 H 
ATOM     11  H5  HYY d   1      50.244 -64.150  33.580  0.00  0.00     0.042 H 
BRANCH   9  12
ATOM     12  C06 HYY d   1      49.821 -66.157  32.921  0.00  0.00    -0.055 A 
ATOM     13  C01 HYY d   1      48.428 -66.334  32.766  0.00  0.00    -0.075 A 
ATOM     14  C02 HYY d   1      47.855 -67.589  32.967  0.00  0.00    -0.060 A 
ATOM     15  H1  HYY d   1      47.803 -65.492  32.490  0.00  0.00     0.084 H 
ATOM     16  C03 HYY d   1      48.667 -68.678  33.330  0.00  0.00     0.055 A 
ATOM     17  H2  HYY d   1      46.787 -67.725  32.844  0.00  0.00     0.086 H 
ATOM     18  C04 HYY d   1      50.059 -68.498  33.497  0.00  0.00     0.056 A 
ATOM     19 CL2  HYY d   1      47.967 -70.301  33.553  0.00  0.00    -0.083 Cl
ATOM     20  C05 HYY d   1      50.636 -67.252  33.284  0.00  0.00    -0.054 A 
ATOM     21 CL1  HYY d   1      51.068 -69.902  33.961  0.00  0.00    -0.083 Cl
ATOM     22  H3  HYY d   1      51.706 -67.121  33.396  0.00  0.00     0.086 H 
ENDBRANCH   9  12
ENDBRANCH   6   9
ENDBRANCH   4   6
BRANCH   4  23
ATOM     23  C10 HYY d   1      49.046 -61.966  30.807  0.00  0.00     0.083 C 
ATOM     24  H9  HYY d   1      48.052 -62.282  31.156  0.00  0.00     0.075 H 
ATOM     25  H10 HYY d   1      49.175 -62.258  29.754  0.00  0.00     0.075 H 
BRANCH  23  26
ATOM     26  C11 HYY d   1      49.165 -60.360  30.930  0.00  0.00    -0.046 C 
ATOM     27  H11 HYY d   1      50.114 -60.040  30.474  0.00  0.00     0.034 H 
ATOM     28  H12 HYY d   1      49.159 -60.086  31.995  0.00  0.00     0.034 H 
BRANCH  26  29
ATOM     29  C12 HYY d   1      48.025 -59.643  30.236  0.00  0.00    -0.075 C 
ATOM     30  H13 HYY d   1      48.153 -58.556  30.349  0.00  0.00     0.027 H 
ATOM     31  H14 HYY d   1      47.070 -59.949  30.688  0.00  0.00     0.027 H 
ATOM     32  H15 HYY d   1      48.025 -59.903  29.167  0.00  0.00     0.027 H 
ENDBRANCH  26  29
ENDBRANCH  23  26
ENDBRANCH   4  23
ENDBRANCH   1   4
BRANCH   1  33
ATOM     33  C14 HYY d   1      52.431 -62.593  32.134  0.00  0.00     0.080 C 
ATOM     34  H18 HYY d   1      52.525 -63.688  32.181  0.00  0.00     0.088 H 
BRANCH  33  35
ATOM     35  C15 HYY d   1      53.786 -61.976  31.722  0.00  0.00     0.051 C 
ATOM     36  H19 HYY d   1      53.655 -60.910  31.482  0.00  0.00     0.079 H 
ATOM     37  H20 HYY d   1      54.186 -62.503  30.843  0.00  0.00     0.079 H 
BRANCH  35  38
ATOM     38  O16 HYY d   1      54.683 -62.121  32.829  0.00  0.00    -0.349 OA
BRANCH  38  39
ATOM     39  C17 HYY d   1      55.801 -61.216  32.801  0.00  0.00     0.069 A 
ATOM     40  C18 HYY d   1      56.718 -61.203  33.859  0.00  0.00    -0.049 A 
ATOM     41  C19 HYY d   1      57.843 -60.299  33.826  0.00  0.00    -0.054 A 
ATOM     42  H21 HYY d   1      56.583 -61.871  34.702  0.00  0.00     0.087 H 
ATOM     43  C20 HYY d   1      57.998 -59.467  32.788  0.00  0.00     0.042 A 
ATOM     44  H22 HYY d   1      58.560 -60.294  34.639  0.00  0.00     0.087 H 
ATOM     45  C21 HYY d   1      57.072 -59.482  31.719  0.00  0.00    -0.054 A 
ATOM     46  C22 HYY d   1      55.962 -60.375  31.751  0.00  0.00    -0.049 A 
ATOM     47  H23 HYY d   1      57.207 -58.814  30.876  0.00  0.00     0.087 H 
ATOM     48  H24 HYY d   1      55.247 -60.381  30.936  0.00  0.00     0.087 H 
BRANCH  43  49
ATOM     49  N23 HYY d   1      59.151 -58.562  32.742  0.00  0.00    -0.285 N 
ATOM     50  H25 HYY d   1      59.155 -57.729  33.296  0.00  0.00     0.178 HD
BRANCH  49  51
ATOM     51  S24 HYY d   1      60.466 -58.924  31.759  0.00  0.00     0.227 S 
ATOM     52  O26 HYY d   1      61.456 -57.875  31.806  0.00  0.00    -0.206 OA
ATOM     53  O27 HYY d   1      61.199 -60.037  32.263  0.00  0.00    -0.206 OA
BRANCH  51  54
ATOM     54  C25 HYY d   1      59.909 -59.226  30.068  0.00  0.00     0.033 C 
ATOM     55  H26 HYY d   1      60.776 -59.462  29.433  0.00  0.00     0.051 H 
ATOM     56  H27 HYY d   1      59.405 -58.328  29.682  0.00  0.00     0.051 H 
ATOM     57  H28 HYY d   1      59.207 -60.073  30.059  0.00  0.00     0.051 H 
ENDBRANCH  51  54
ENDBRANCH  49  51
ENDBRANCH  43  49
ENDBRANCH  38  39
ENDBRANCH  35  38
ENDBRANCH  33  35
BRANCH  33  58
ATOM     58  O28 HYY d   1      52.072 -62.105  33.384  0.00  0.00    -0.392 OA
ATOM     59  H29 HYY d   1      52.738 -62.342  34.019  0.00  0.00     0.210 HD
ENDBRANCH  33  58
ENDBRANCH   1  33
TORSDOF 15
