REMARK  16 active torsions:
REMARK  status: ('A' for Active; 'I' for Inactive)
REMARK    1  A    between atoms: CAB_1  and  SBE_2 
REMARK    2  A    between atoms: SBE_2  and  NAV_5 
REMARK    3  A    between atoms: NAV_5  and  CBA_6 
REMARK    4  A    between atoms: CBB_11  and  OAW_12 
REMARK    5  A    between atoms: OAW_12  and  CAT_13 
REMARK    6  A    between atoms: CAT_13  and  CBC_14 
REMARK    7  A    between atoms: CBC_14  and  OAE_15 
REMARK    8  A    between atoms: CBC_14  and  CAU_16 
REMARK    9  A    between atoms: CAU_16  and  NBD_17 
REMARK   10  A    between atoms: NBD_17  and  CAR_18 
REMARK   11  A    between atoms: NBD_17  and  CAS_22 
REMARK   12  A    between atoms: CAR_18  and  CAP_19 
REMARK   13  A    between atoms: CAP_19  and  CAO_20 
REMARK   14  A    between atoms: CAO_20  and  CAA_21 
REMARK   15  A    between atoms: CAS_22  and  CAQ_23 
REMARK   16  A    between atoms: CAQ_23  and  CAX_24 
ROOT
ATOM      1  NBD HX7 d   1     185.979 -61.401 290.902  0.00  0.00    -0.068 N 
ATOM      2  H15 HX7 d   1     185.530 -61.635 290.030  0.00  0.00     0.280 HD
ENDROOT
BRANCH   1   3
ATOM      3  CAU HX7 d   1     187.427 -61.570 290.747  0.00  0.00     0.109 C 
ATOM      4  H13 HX7 d   1     187.638 -62.612 290.465  0.00  0.00     0.080 H 
ATOM      5  H14 HX7 d   1     187.784 -60.896 289.954  0.00  0.00     0.080 H 
BRANCH   3   6
ATOM      6  CBC HX7 d   1     188.172 -61.244 292.056  0.00  0.00     0.080 C 
ATOM      7  H11 HX7 d   1     188.261 -62.159 292.661  0.00  0.00     0.088 H 
BRANCH   6   8
ATOM      8  CAT HX7 d   1     189.576 -60.713 291.717  0.00  0.00     0.051 C 
ATOM      9  H9  HX7 d   1     190.134 -61.477 291.157  0.00  0.00     0.079 H 
ATOM     10  H10 HX7 d   1     189.489 -59.802 291.107  0.00  0.00     0.079 H 
BRANCH   8  11
ATOM     11  OAW HX7 d   1     190.256 -60.415 292.920  0.00  0.00    -0.349 OA
BRANCH  11  12
ATOM     12  CBB HX7 d   1     191.443 -59.612 292.764  0.00  0.00     0.069 A 
ATOM     13  CAM HX7 d   1     191.555 -58.727 291.696  0.00  0.00    -0.049 A 
ATOM     14  CAK HX7 d   1     192.669 -57.892 291.601  0.00  0.00    -0.054 A 
ATOM     15  H6  HX7 d   1     190.779 -58.686 290.940  0.00  0.00     0.087 H 
ATOM     16  CBA HX7 d   1     193.623 -57.891 292.608  0.00  0.00     0.042 A 
ATOM     17  H5  HX7 d   1     192.789 -57.244 290.740  0.00  0.00     0.087 H 
ATOM     18  CAJ HX7 d   1     193.459 -58.704 293.718  0.00  0.00    -0.054 A 
ATOM     19  CAL HX7 d   1     192.381 -59.583 293.785  0.00  0.00    -0.049 A 
ATOM     20  H7  HX7 d   1     194.170 -58.656 294.535  0.00  0.00     0.087 H 
ATOM     21  H8  HX7 d   1     192.275 -60.245 294.636  0.00  0.00     0.087 H 
BRANCH  16  22
ATOM     22  NAV HX7 d   1     194.777 -56.987 292.530  0.00  0.00    -0.285 N 
ATOM     23  H4  HX7 d   1     194.810 -56.170 293.106  0.00  0.00     0.178 HD
BRANCH  22  24
ATOM     24  SBE HX7 d   1     196.071 -57.328 291.452  0.00  0.00     0.227 S 
ATOM     25  OAC HX7 d   1     197.112 -56.298 291.529  0.00  0.00    -0.206 OA
ATOM     26  OAD HX7 d   1     196.814 -58.519 291.874  0.00  0.00    -0.206 OA
BRANCH  24  27
ATOM     27  CAB HX7 d   1     195.451 -57.515 289.752  0.00  0.00     0.033 C 
ATOM     28  H1  HX7 d   1     194.899 -56.609 289.462  0.00  0.00     0.051 H 
ATOM     29  H2  HX7 d   1     194.781 -58.386 289.700  0.00  0.00     0.051 H 
ATOM     30  H3  HX7 d   1     196.299 -57.663 289.067  0.00  0.00     0.051 H 
ENDBRANCH  24  27
ENDBRANCH  22  24
ENDBRANCH  16  22
ENDBRANCH  11  12
ENDBRANCH   8  11
ENDBRANCH   6   8
BRANCH   6  31
ATOM     31  OAE HX7 d   1     187.485 -60.283 292.779  0.00  0.00    -0.392 OA
ATOM     32  H12 HX7 d   1     186.617 -60.607 292.990  0.00  0.00     0.210 HD
ENDBRANCH   6  31
ENDBRANCH   3   6
ENDBRANCH   1   3
BRANCH   1  33
ATOM     33  CAR HX7 d   1     185.683 -60.022 291.230  0.00  0.00     0.084 C 
ATOM     34  H16 HX7 d   1     186.482 -59.373 290.842  0.00  0.00     0.076 H 
ATOM     35  H17 HX7 d   1     185.618 -59.910 292.322  0.00  0.00     0.076 H 
BRANCH  33  36
ATOM     36  CAP HX7 d   1     184.351 -59.625 290.597  0.00  0.00    -0.043 C 
ATOM     37  H18 HX7 d   1     183.531 -59.853 291.294  0.00  0.00     0.035 H 
ATOM     38  H19 HX7 d   1     184.206 -60.189 289.663  0.00  0.00     0.035 H 
BRANCH  36  39
ATOM     39  CAO HX7 d   1     184.358 -58.118 290.290  0.00  0.00    -0.067 C 
ATOM     40  H20 HX7 d   1     185.231 -57.874 289.667  0.00  0.00     0.032 H 
ATOM     41  H21 HX7 d   1     184.410 -57.552 291.232  0.00  0.00     0.032 H 
BRANCH  39  42
ATOM     42  CAA HX7 d   1     183.067 -57.743 289.535  0.00  0.00    -0.076 C 
ATOM     43  H22 HX7 d   1     183.071 -56.665 289.315  0.00  0.00     0.027 H 
ATOM     44  H23 HX7 d   1     182.194 -57.987 290.158  0.00  0.00     0.027 H 
ATOM     45  H24 HX7 d   1     183.015 -58.309 288.593  0.00  0.00     0.027 H 
ENDBRANCH  39  42
ENDBRANCH  36  39
ENDBRANCH  33  36
ENDBRANCH   1  33
BRANCH   1  46
ATOM     46  CAS HX7 d   1     185.455 -62.280 291.952  0.00  0.00     0.087 C 
ATOM     47  H25 HX7 d   1     184.532 -62.760 291.595  0.00  0.00     0.076 H 
ATOM     48  H26 HX7 d   1     185.234 -61.681 292.848  0.00  0.00     0.076 H 
BRANCH  46  49
ATOM     49  CAQ HX7 d   1     186.478 -63.360 292.309  0.00  0.00    -0.018 C 
ATOM     50  H27 HX7 d   1     187.092 -63.016 293.154  0.00  0.00     0.042 H 
ATOM     51  H28 HX7 d   1     187.125 -63.551 291.440  0.00  0.00     0.042 H 
BRANCH  49  52
ATOM     52  CAX HX7 d   1     185.747 -64.671 292.704  0.00  0.00    -0.055 A 
ATOM     53  CAN HX7 d   1     186.484 -65.777 293.103  0.00  0.00    -0.054 A 
ATOM     54  CAZ HX7 d   1     185.843 -66.986 293.337  0.00  0.00     0.056 A 
ATOM     55  H29 HX7 d   1     187.557 -65.697 293.232  0.00  0.00     0.086 H 
ATOM     56 CL1  HX7 d   1     186.787 -68.437 293.721  0.00  0.00    -0.083 Cl
ATOM     57  CAY HX7 d   1     184.493 -67.116 293.110  0.00  0.00     0.055 A 
ATOM     58 CL2  HX7 d   1     183.759 -68.748 293.159  0.00  0.00    -0.083 Cl
ATOM     59  CAI HX7 d   1     183.741 -66.017 292.749  0.00  0.00    -0.060 A 
ATOM     60  CAH HX7 d   1     184.368 -64.789 292.536  0.00  0.00    -0.075 A 
ATOM     61  H30 HX7 d   1     182.667 -66.107 292.631  0.00  0.00     0.086 H 
ATOM     62  H31 HX7 d   1     183.783 -63.926 292.240  0.00  0.00     0.084 H 
ENDBRANCH  49  52
ENDBRANCH  46  49
ENDBRANCH   1  46
TORSDOF 16
