REMARK  17 active torsions:
REMARK  status: ('A' for Active; 'I' for Inactive)
REMARK    1  A    between atoms: O39_1  and  C40_2 
REMARK    2  A    between atoms: C2_3  and  O39_1 
REMARK    3  A    between atoms: S8_9  and  C5_6 
REMARK    4  A    between atoms: N11_12  and  S8_9 
REMARK    5  A    between atoms: N11_12  and  C12_13 
REMARK    6  A    between atoms: C16_17  and  N11_12 
REMARK    7  A    between atoms: C12_13  and  C13_14 
REMARK    8  A    between atoms: C13_14  and  C14_15 
REMARK    9  A    between atoms: C13_14  and  C15_16 
REMARK   10  A    between atoms: C17_18  and  C16_17 
REMARK   11  A    between atoms: C17_18  and  O18_19 
REMARK   12  A    between atoms: C19_20  and  C17_18 
REMARK   13  A    between atoms: C19_20  and  N20_21 
REMARK   14  A    between atoms: C32_34  and  C19_20 
REMARK       I    between atoms: N20_21  and  C21_22 
REMARK   15  A    between atoms: C21_22  and  O23_24 
REMARK   16  A    between atoms: O23_24  and  C24_25 
REMARK   17  A    between atoms: C38_40  and  C32_34 
ROOT
ATOM      1  C17 J0S d   1      15.627  24.092  18.125  0.00  0.00     0.071 C 
ATOM      2  H19 J0S d   1      16.030  23.656  19.051  0.00  0.00     0.088 H 
ENDROOT
BRANCH   1   3
ATOM      3  C16 J0S d   1      16.689  25.022  17.513  0.00  0.00     0.031 C 
ATOM      4  H17 J0S d   1      16.409  25.256  16.475  0.00  0.00     0.069 H 
ATOM      5  H18 J0S d   1      16.736  25.952  18.099  0.00  0.00     0.069 H 
BRANCH   3   6
ATOM      6  N11 J0S d   1      17.982  24.392  17.523  0.00  0.00    -0.304 N 
BRANCH   6   7
ATOM      7  S8  J0S d   1      18.671  24.024  16.077  0.00  0.00     0.260 S 
ATOM      8  O9  J0S d   1      17.579  23.847  15.092  0.00  0.00    -0.200 OA
ATOM      9  O10 J0S d   1      19.580  22.881  16.318  0.00  0.00    -0.200 OA
BRANCH   7  10
ATOM     10  C5  J0S d   1      19.662  25.394  15.606  0.00  0.00     0.079 A 
ATOM     11  C4  J0S d   1      19.061  26.507  15.027  0.00  0.00    -0.058 A 
ATOM     12  C3  J0S d   1      19.813  27.638  14.709  0.00  0.00    -0.049 A 
ATOM     13  H5  J0S d   1      17.997  26.495  14.821  0.00  0.00     0.086 H 
ATOM     14  C2  J0S d   1      21.192  27.669  14.977  0.00  0.00     0.068 A 
ATOM     15  H4  J0S d   1      19.332  28.496  14.254  0.00  0.00     0.087 H 
ATOM     16  C7  J0S d   1      21.812  26.552  15.514  0.00  0.00    -0.049 A 
ATOM     17  C6  J0S d   1      21.024  25.433  15.848  0.00  0.00    -0.058 A 
ATOM     18  H7  J0S d   1      22.884  26.540  15.674  0.00  0.00     0.087 H 
ATOM     19  H6  J0S d   1      21.500  24.575  16.309  0.00  0.00     0.086 H 
BRANCH  14  20
ATOM     20  O39 J0S d   1      21.793  28.872  14.766  0.00  0.00    -0.356 OA
BRANCH  20  21
ATOM     21  C40 J0S d   1      23.152  28.903  15.166  0.00  0.00     0.010 C 
ATOM     22  H1  J0S d   1      23.570  29.901  14.967  0.00  0.00     0.066 H 
ATOM     23  H2  J0S d   1      23.718  28.148  14.600  0.00  0.00     0.066 H 
ATOM     24  H3  J0S d   1      23.223  28.684  16.242  0.00  0.00     0.066 H 
ENDBRANCH  20  21
ENDBRANCH  14  20
ENDBRANCH   7  10
ENDBRANCH   6   7
BRANCH   6  25
ATOM     25  C12 J0S d   1      18.906  24.696  18.607  0.00  0.00     0.008 C 
ATOM     26  H8  J0S d   1      18.902  25.785  18.764  0.00  0.00     0.066 H 
ATOM     27  H9  J0S d   1      19.912  24.374  18.299  0.00  0.00     0.066 H 
BRANCH  25  28
ATOM     28  C13 J0S d   1      18.576  24.017  19.950  0.00  0.00    -0.045 C 
ATOM     29  H10 J0S d   1      17.538  24.266  20.214  0.00  0.00     0.041 H 
BRANCH  28  30
ATOM     30  C14 J0S d   1      18.679  22.500  19.872  0.00  0.00    -0.072 C 
ATOM     31  H11 J0S d   1      18.435  22.065  20.852  0.00  0.00     0.028 H 
ATOM     32  H12 J0S d   1      19.704  22.216  19.590  0.00  0.00     0.028 H 
ATOM     33  H13 J0S d   1      17.973  22.123  19.117  0.00  0.00     0.028 H 
ENDBRANCH  28  30
BRANCH  28  34
ATOM     34  C15 J0S d   1      19.505  24.598  21.040  0.00  0.00    -0.072 C 
ATOM     35  H14 J0S d   1      19.402  25.693  21.064  0.00  0.00     0.028 H 
ATOM     36  H15 J0S d   1      20.548  24.333  20.812  0.00  0.00     0.028 H 
ATOM     37  H16 J0S d   1      19.227  24.181  22.019  0.00  0.00     0.028 H 
ENDBRANCH  28  34
ENDBRANCH  25  28
ENDBRANCH   6  25
ENDBRANCH   3   6
ENDBRANCH   1   3
BRANCH   1  38
ATOM     38  O18 J0S d   1      14.480  24.896  18.441  0.00  0.00    -0.392 OA
ATOM     39  H20 J0S d   1      14.150  25.301  17.647  0.00  0.00     0.210 HD
ENDBRANCH   1  38
BRANCH   1  40
ATOM     40  C19 J0S d   1      15.234  22.946  17.190  0.00  0.00     0.044 C 
ATOM     41  H21 J0S d   1      16.152  22.453  16.837  0.00  0.00     0.077 H 
BRANCH  40  42
ATOM     42  N20 J0S d   1      14.415  21.968  17.966  0.00  0.00    -0.329 N 
ATOM     43  C21 J0S d   1      14.892  20.839  18.474  0.00  0.00     0.361 C 
ATOM     44  O22 J0S d   1      16.045  20.435  18.362  0.00  0.00    -0.238 OA
ATOM     45  H22 J0S d   1      13.448  22.177  18.112  0.00  0.00     0.165 HD
BRANCH  43  46
ATOM     46  O23 J0S d   1      13.972  20.095  19.168  0.00  0.00    -0.298 OA
BRANCH  46  47
ATOM     47  C24 J0S d   1      14.474  18.826  19.603  0.00  0.00     0.054 C 
ATOM     48  C25 J0S d   1      13.417  18.264  20.545  0.00  0.00    -0.013 C 
ATOM     49  C26 J0S d   1      12.360  17.635  19.640  0.00  0.00     0.071 A 
ATOM     50  H24 J0S d   1      12.975  19.068  21.151  0.00  0.00     0.040 H 
ATOM     51  H25 J0S d   1      13.857  17.505  21.208  0.00  0.00     0.040 H 
ATOM     52  O27 J0S d   1      11.328  18.591  19.424  0.00  0.00    -0.296 OA
ATOM     53  C30 J0S d   1      13.010  17.456  18.279  0.00  0.00     0.042 A 
ATOM     54  H26 J0S d   1      11.975  16.691  20.053  0.00  0.00     0.087 H 
ATOM     55  C28 J0S d   1      11.295  19.018  18.153  0.00  0.00     0.361 A 
ATOM     56  O41 J0S d   1      10.453  19.882  17.783  0.00  0.00    -0.238 OA
ATOM     57  N29 J0S d   1      12.219  18.356  17.469  0.00  0.00    -0.330 N 
ATOM     58  H27 J0S d   1      12.356  18.469  16.485  0.00  0.00     0.165 HD
ATOM     59  C31 J0S d   1      14.459  17.865  18.442  0.00  0.00    -0.019 C 
ATOM     60  H28 J0S d   1      12.946  16.424  17.905  0.00  0.00     0.076 H 
ATOM     61  H29 J0S d   1      15.085  16.987  18.661  0.00  0.00     0.040 H 
ATOM     62  H30 J0S d   1      14.825  18.358  17.529  0.00  0.00     0.040 H 
ATOM     63  H23 J0S d   1      15.468  18.911  20.067  0.00  0.00     0.084 H 
ENDBRANCH  46  47
ENDBRANCH  43  46
ENDBRANCH  40  42
BRANCH  40  64
ATOM     64  C32 J0S d   1      14.429  23.411  15.960  0.00  0.00    -0.020 C 
ATOM     65  H31 J0S d   1      15.020  24.145  15.393  0.00  0.00     0.043 H 
ATOM     66  H32 J0S d   1      13.489  23.876  16.293  0.00  0.00     0.043 H 
BRANCH  64  67
ATOM     67  C38 J0S d   1      14.108  22.195  15.050  0.00  0.00    -0.056 A 
ATOM     68  C33 J0S d   1      12.873  21.533  15.106  0.00  0.00    -0.077 A 
ATOM     69  C34 J0S d   1      12.634  20.405  14.325  0.00  0.00    -0.082 A 
ATOM     70  H33 J0S d   1      12.096  21.903  15.764  0.00  0.00     0.084 H 
ATOM     71  C35 J0S d   1      13.609  19.948  13.442  0.00  0.00    -0.083 A 
ATOM     72  H34 J0S d   1      11.688  19.882  14.405  0.00  0.00     0.083 H 
ATOM     73  C36 J0S d   1      14.841  20.601  13.341  0.00  0.00    -0.082 A 
ATOM     74  H35 J0S d   1      13.411  19.078  12.827  0.00  0.00     0.083 H 
ATOM     75  C37 J0S d   1      15.085  21.715  14.156  0.00  0.00    -0.077 A 
ATOM     76  H36 J0S d   1      15.595  20.252  12.644  0.00  0.00     0.083 H 
ATOM     77  H37 J0S d   1      16.044  22.217  14.097  0.00  0.00     0.084 H 
ENDBRANCH  64  67
ENDBRANCH  40  64
ENDBRANCH   1  40
TORSDOF 17
