REMARK  7 active torsions:
REMARK  status: ('A' for Active; 'I' for Inactive)
REMARK    1  A    between atoms: C15_2  and  C25_25 
REMARK    2  A    between atoms: C02_5  and  N22_22 
REMARK    3  A    between atoms: C03_6  and  O07_10 
REMARK    4  A    between atoms: N08_11  and  C04_7 
REMARK    5  A    between atoms: C06_9  and  S18_18 
REMARK       I    between atoms: C09_12  and  N08_11 
REMARK       I    between atoms: N10_13  and  C09_12 
REMARK    6  A    between atoms: N10_13  and  C12_15 
REMARK    7  A    between atoms: S18_18  and  N21_21 
ROOT
ATOM      1  N08 J3V d   1      -4.613   4.718  12.698  0.00  0.00    -0.306 N 
ATOM      2  C09 J3V d   1      -3.634   5.559  13.340  0.00  0.00     0.325 C 
ATOM      3  N10 J3V d   1      -3.547   6.906  12.819  0.00  0.00    -0.309 N 
ATOM      4  O11 J3V d   1      -2.966   5.149  14.232  0.00  0.00    -0.247 OA
ATOM      5  H6  J3V d   1      -5.188   5.091  11.970  0.00  0.00     0.171 HD
ATOM      6  H7  J3V d   1      -4.149   7.136  12.054  0.00  0.00     0.170 HD
ENDROOT
BRANCH   1   7
ATOM      7  C04 J3V d   1      -4.767   3.342  13.100  0.00  0.00     0.073 A 
ATOM      8  C03 J3V d   1      -4.618   2.416  12.081  0.00  0.00     0.126 A 
ATOM      9  C02 J3V d   1      -4.733   1.071  12.370  0.00  0.00     0.139 A 
ATOM     10  C01 J3V d   1      -4.987   0.677  13.669  0.00  0.00    -0.025 A 
ATOM     11  C06 J3V d   1      -5.143   1.609  14.682  0.00  0.00     0.084 A 
ATOM     12  H3  J3V d   1      -5.066  -0.379  13.900  0.00  0.00     0.089 H 
ATOM     13  C05 J3V d   1      -5.029   2.964  14.413  0.00  0.00    -0.032 A 
ATOM     14  H4  J3V d   1      -5.140   3.703  15.198  0.00  0.00     0.089 H 
BRANCH   8  15
ATOM     15  O07 J3V d   1      -4.354   2.858  10.774  0.00  0.00    -0.356 OA
ATOM     16  H5  J3V d   1      -4.280   2.108  10.196  0.00  0.00     0.218 HD
ENDBRANCH   8  15
BRANCH   9  17
ATOM     17  N22 J3V d   1      -4.593   0.072  11.336  0.00  0.00    -0.113 N 
ATOM     18  O23 J3V d   1      -4.215  -1.011  11.616  0.00  0.00    -0.532 OA
ATOM     19  O24 J3V d   1      -4.930   0.401  10.017  0.00  0.00    -0.532 OA
ENDBRANCH   9  17
BRANCH  11  20
ATOM     20  S18 J3V d   1      -5.494   0.949  16.337  0.00  0.00     0.256 S 
ATOM     21  O19 J3V d   1      -6.880   1.185  16.739  0.00  0.00    -0.201 OA
ATOM     22  O20 J3V d   1      -4.676   1.554  17.387  0.00  0.00    -0.201 OA
BRANCH  20  23
ATOM     23  N21 J3V d   1      -5.240  -0.727  16.259  0.00  0.00    -0.324 N 
ATOM     24  H10 J3V d   1      -5.379  -1.292  17.072  0.00  0.00     0.169 HD
ATOM     25  H11 J3V d   1      -4.951  -1.149  15.400  0.00  0.00     0.169 HD
ENDBRANCH  20  23
ENDBRANCH  11  20
ENDBRANCH   1   7
BRANCH   3  26
ATOM     26  C12 J3V d   1      -2.669   7.952  13.303  0.00  0.00     0.036 A 
ATOM     27  C13 J3V d   1      -2.286   8.940  12.405  0.00  0.00    -0.056 A 
ATOM     28  C14 J3V d   1      -1.468   9.972  12.822  0.00  0.00    -0.066 A 
ATOM     29  H1  J3V d   1      -2.629   8.901  11.377  0.00  0.00     0.086 H 
ATOM     30  C15 J3V d   1      -1.041  10.023  14.141  0.00  0.00     0.048 A 
ATOM     31  H8  J3V d   1      -1.161  10.739  12.121  0.00  0.00     0.084 H 
ATOM     32  C16 J3V d   1      -1.427   9.036  15.043  0.00  0.00    -0.066 A 
ATOM     33  C17 J3V d   1      -2.250   7.997  14.626  0.00  0.00    -0.056 A 
ATOM     34  H9  J3V d   1      -1.086   9.078  16.071  0.00  0.00     0.084 H 
ATOM     35  H2  J3V d   1      -2.562   7.230  15.326  0.00  0.00     0.086 H 
BRANCH  30  36
ATOM     36  C25 J3V d   1      -0.125  11.170  14.566  0.00  0.00     0.417 C 
ATOM     37  F26 J3V d   1       1.148  10.697  14.720  0.00  0.00    -0.166 F 
ATOM     38  F27 J3V d   1      -0.145  12.118  13.583  0.00  0.00    -0.166 F 
ATOM     39  F28 J3V d   1      -0.555  11.731  15.731  0.00  0.00    -0.166 F 
ENDBRANCH  30  36
ENDBRANCH   3  26
TORSDOF 7
