REMARK  6 active torsions:
REMARK  status: ('A' for Active; 'I' for Inactive)
REMARK    1  A    between atoms: C02_5  and  N23_23 
REMARK    2  A    between atoms: C03_6  and  O07_10 
REMARK    3  A    between atoms: N08_11  and  C04_7 
REMARK    4  A    between atoms: C06_9  and  S26_26 
REMARK       I    between atoms: C09_12  and  N08_11 
REMARK       I    between atoms: N10_13  and  C09_12 
REMARK    5  A    between atoms: N10_13  and  C12_15 
REMARK    6  A    between atoms: S26_26  and  N29_29 
ROOT
ATOM      1  C01 J4D d   1      -4.986   1.161  13.865  0.00  0.00    -0.025 A 
ATOM      2  C02 J4D d   1      -4.725   1.752  12.645  0.00  0.00     0.139 A 
ATOM      3  C03 J4D d   1      -4.650   3.138  12.585  0.00  0.00     0.126 A 
ATOM      4  C04 J4D d   1      -4.846   3.917  13.736  0.00  0.00     0.073 A 
ATOM      5  C05 J4D d   1      -5.114   3.309  14.955  0.00  0.00    -0.032 A 
ATOM      6  C06 J4D d   1      -5.183   1.923  15.003  0.00  0.00     0.084 A 
ATOM      7  H1  J4D d   1      -5.037   0.080  13.933  0.00  0.00     0.089 H 
ATOM      8  H2  J4D d   1      -5.266   3.903  15.849  0.00  0.00     0.089 H 
ENDROOT
BRANCH   4   9
ATOM      9  N08 J4D d   1      -4.735   5.362  13.628  0.00  0.00    -0.306 N 
ATOM     10  C09 J4D d   1      -3.359   5.801  13.427  0.00  0.00     0.325 C 
ATOM     11  N10 J4D d   1      -2.952   7.197  13.272  0.00  0.00    -0.303 N 
ATOM     12  O11 J4D d   1      -2.527   4.953  13.387  0.00  0.00    -0.247 OA
ATOM     13  H5  J4D d   1      -3.640   7.921  13.320  0.00  0.00     0.171 HD
ATOM     14  H4  J4D d   1      -5.515   5.985  13.685  0.00  0.00     0.171 HD
BRANCH  11  15
ATOM     15  C12 J4D d   1      -1.546   7.547  13.047  0.00  0.00     0.120 A 
ATOM     16  C13 J4D d   1      -0.951   8.630  13.693  0.00  0.00     0.188 A 
ATOM     17  C14 J4D d   1       0.390   8.948  13.449  0.00  0.00     0.199 A 
ATOM     18  F22 J4D d   1      -1.670   9.386  14.574  0.00  0.00    -0.200 F 
ATOM     19  C15 J4D d   1       1.153   8.184  12.549  0.00  0.00     0.199 A 
ATOM     20  F21 J4D d   1       0.954  10.017  14.103  0.00  0.00    -0.199 F 
ATOM     21  C16 J4D d   1       0.558   7.101  11.895  0.00  0.00     0.199 A 
ATOM     22  F20 J4D d   1       2.476   8.489  12.308  0.00  0.00    -0.199 F 
ATOM     23  C17 J4D d   1      -0.781   6.798  12.140  0.00  0.00     0.188 A 
ATOM     24  F19 J4D d   1       1.272   6.328  11.007  0.00  0.00    -0.199 F 
ATOM     25  F18 J4D d   1      -1.325   5.727  11.481  0.00  0.00    -0.200 F 
ENDBRANCH  11  15
ENDBRANCH   4   9
BRANCH   3  26
ATOM     26  O07 J4D d   1      -4.375   3.743  11.355  0.00  0.00    -0.356 OA
ATOM     27  H3  J4D d   1      -4.272   3.073  10.690  0.00  0.00     0.218 HD
ENDBRANCH   3  26
BRANCH   2  28
ATOM     28  N23 J4D d   1      -4.547   0.881  11.476  0.00  0.00    -0.113 N 
ATOM     29  O24 J4D d   1      -4.872   1.233  10.396  0.00  0.00    -0.532 OA
ATOM     30  O25 J4D d   1      -4.017  -0.413  11.650  0.00  0.00    -0.532 OA
ENDBRANCH   2  28
BRANCH   6  31
ATOM     31  S26 J4D d   1      -5.545   1.011  16.524  0.00  0.00     0.256 S 
ATOM     32  O27 J4D d   1      -6.917   1.262  16.939  0.00  0.00    -0.201 OA
ATOM     33  O28 J4D d   1      -4.752   1.450  17.671  0.00  0.00    -0.201 OA
BRANCH  31  34
ATOM     34  N29 J4D d   1      -5.339  -0.657  16.238  0.00  0.00    -0.324 N 
ATOM     35  H6  J4D d   1      -5.498  -1.314  16.975  0.00  0.00     0.169 HD
ATOM     36  H7  J4D d   1      -5.059  -0.978  15.333  0.00  0.00     0.169 HD
ENDBRANCH  31  34
ENDBRANCH   6  31
TORSDOF 6
