REMARK  16 active torsions:
REMARK  status: ('A' for Active; 'I' for Inactive)
REMARK       I    between atoms: N01_1  and  C02_2 
REMARK    1  A    between atoms: C02_2  and  C04_4 
REMARK    2  A    between atoms: N08_9  and  C09_10 
REMARK    3  A    between atoms: C42_12  and  O43_13 
REMARK    4  A    between atoms: C40_14  and  O41_15 
REMARK    5  A    between atoms: C11_16  and  C12_17 
REMARK    6  A    between atoms: C12_17  and  O13_18 
REMARK    7  A    between atoms: O13_18  and  P14_19 
REMARK    8  A    between atoms: P14_19  and  O17_22 
REMARK    9  A    between atoms: O17_22  and  P18_23 
REMARK   10  A    between atoms: P18_23  and  O21_26 
REMARK   11  A    between atoms: O21_26  and  C22_27 
REMARK   12  A    between atoms: C22_27  and  C23_28 
REMARK   13  A    between atoms: C38_30  and  O39_31 
REMARK   14  A    between atoms: C36_32  and  O37_33 
REMARK   15  A    between atoms: C25_34  and  N26_35 
REMARK   16  A    between atoms: C30_43  and  N31_44 
ROOT
ATOM      1  P14 ZNA d   1     -11.447  -5.586   0.108  0.00  0.00     0.417 P 
ATOM      2  O15 ZNA d   1     -10.420  -5.151   1.075  0.00  0.00    -0.624 OA
ATOM      3  O16 ZNA d   1     -11.764  -7.032  -0.014  0.00  0.00    -0.624 OA
ENDROOT
BRANCH   1   4
ATOM      4  O13 ZNA d   1     -11.049  -4.944  -1.333  0.00  0.00    -0.288 OA
BRANCH   4   5
ATOM      5  C12 ZNA d   1     -10.982  -5.704  -2.555  0.00  0.00     0.045 C 
ATOM      6  H14 ZNA d   1     -10.084  -5.397  -3.112  0.00  0.00     0.077 H 
ATOM      7  H15 ZNA d   1     -10.909  -6.772  -2.301  0.00  0.00     0.077 H 
BRANCH   5   8
ATOM      8  C11 ZNA d   1     -12.208  -5.496  -3.449  0.00  0.00     0.041 C 
ATOM      9  S10 ZNA d   1     -13.417  -4.399  -2.643  0.00  0.00    -0.131 SA
ATOM     10  C09 ZNA d   1     -14.204  -3.716  -4.127  0.00  0.00     0.084 C 
ATOM     11  C42 ZNA d   1     -13.289  -4.268  -5.274  0.00  0.00     0.089 C 
ATOM     12  H8  ZNA d   1     -15.227  -4.092  -4.276  0.00  0.00     0.094 H 
ATOM     13  C40 ZNA d   1     -11.903  -4.676  -4.705  0.00  0.00     0.077 C 
ATOM     14  H9  ZNA d   1     -13.170  -3.511  -6.064  0.00  0.00     0.091 H 
ATOM     15  H11 ZNA d   1     -11.305  -3.787  -4.458  0.00  0.00     0.088 H 
ATOM     16  H13 ZNA d   1     -12.644  -6.473  -3.703  0.00  0.00     0.064 H 
BRANCH  10  17
ATOM     17  N08 ZNA d   1     -14.268  -2.256  -3.832  0.00  0.00    -0.370 N 
ATOM     18  C44 ZNA d   1     -15.331  -1.827  -3.004  0.00  0.00    -0.008 A 
ATOM     19  C04 ZNA d   1     -15.493  -0.477  -2.644  0.00  0.00     0.046 A 
ATOM     20  H3  ZNA d   1     -16.044  -2.562  -2.635  0.00  0.00     0.112 H 
ATOM     21  C05 ZNA d   1     -14.533   0.431  -3.130  0.00  0.00    -0.068 A 
ATOM     22  C06 ZNA d   1     -13.466   0.008  -3.931  0.00  0.00    -0.085 A 
ATOM     23  H4  ZNA d   1     -14.623   1.486  -2.877  0.00  0.00     0.084 H 
ATOM     24  C07 ZNA d   1     -13.323  -1.332  -4.284  0.00  0.00     0.011 A 
ATOM     25  H5  ZNA d   1     -12.737   0.737  -4.283  0.00  0.00     0.079 H 
ATOM     26  H6  ZNA d   1     -12.344  -1.662  -3.907  0.00  0.00     0.070 H 
ATOM     27  H7  ZNA d   1     -13.327  -1.378  -5.383  0.00  0.00     0.070 H 
BRANCH  19  28
ATOM     28  C02 ZNA d   1     -16.549  -0.012  -1.822  0.00  0.00     0.250 C 
ATOM     29  N01 ZNA d   1     -17.634  -0.787  -1.646  0.00  0.00    -0.366 N 
ATOM     30  H1  ZNA d   1     -17.695  -1.673  -2.106  0.00  0.00     0.159 HD
ATOM     31  H2  ZNA d   1     -18.379  -0.477  -1.056  0.00  0.00     0.159 HD
ATOM     32  O03 ZNA d   1     -16.462   1.083  -1.260  0.00  0.00    -0.268 OA
ENDBRANCH  19  28
ENDBRANCH  10  17
BRANCH  11  33
ATOM     33  O43 ZNA d   1     -13.908  -5.453  -5.793  0.00  0.00    -0.390 OA
ATOM     34  H10 ZNA d   1     -13.372  -5.809  -6.492  0.00  0.00     0.210 HD
ENDBRANCH  11  33
BRANCH  13  35
ATOM     35  O41 ZNA d   1     -11.194  -5.499  -5.658  0.00  0.00    -0.392 OA
ATOM     36  H12 ZNA d   1     -11.068  -5.012  -6.464  0.00  0.00     0.210 HD
ENDBRANCH  13  35
ENDBRANCH   5   8
ENDBRANCH   4   5
ENDBRANCH   1   4
BRANCH   1  37
ATOM     37  O17 ZNA d   1     -12.852  -4.831   0.415  0.00  0.00    -0.180 OA
BRANCH  37  38
ATOM     38  P18 ZNA d   1     -13.044  -3.502   1.308  0.00  0.00     0.417 P 
ATOM     39  O19 ZNA d   1     -12.361  -3.688   2.604  0.00  0.00    -0.624 OA
ATOM     40  O20 ZNA d   1     -14.489  -3.194   1.299  0.00  0.00    -0.624 OA
BRANCH  38  41
ATOM     41  O21 ZNA d   1     -12.224  -2.326   0.498  0.00  0.00    -0.287 OA
BRANCH  41  42
ATOM     42  C22 ZNA d   1     -12.795  -1.529  -0.561  0.00  0.00     0.058 C 
ATOM     43  H16 ZNA d   1     -13.890  -1.633  -0.529  0.00  0.00     0.079 H 
ATOM     44  H17 ZNA d   1     -12.419  -1.902  -1.525  0.00  0.00     0.079 H 
BRANCH  42  45
ATOM     45  C23 ZNA d   1     -12.435  -0.029  -0.435  0.00  0.00     0.089 C 
ATOM     46  O24 ZNA d   1     -12.544   0.527   0.894  0.00  0.00    -0.353 OA
ATOM     47  C25 ZNA d   1     -11.829   1.800   0.836  0.00  0.00     0.139 C 
ATOM     48  C36 ZNA d   1     -10.869   1.688  -0.370  0.00  0.00     0.105 C 
ATOM     49  H23 ZNA d   1     -12.539   2.624   0.672  0.00  0.00     0.122 H 
ATOM     50  C38 ZNA d   1     -10.975   0.228  -0.776  0.00  0.00     0.091 C 
ATOM     51  H21 ZNA d   1      -9.839   1.949  -0.086  0.00  0.00     0.093 H 
ATOM     52  H19 ZNA d   1     -10.299  -0.411  -0.190  0.00  0.00     0.091 H 
ATOM     53  H18 ZNA d   1     -13.090   0.530  -1.120  0.00  0.00     0.090 H 
BRANCH  47  54
ATOM     54  N26 ZNA d   1     -11.085   2.046   2.118  0.00  0.00    -0.294 N 
ATOM     55  C27 ZNA d   1     -10.391   1.107   2.757  0.00  0.00     0.071 A 
ATOM     56  N28 ZNA d   1      -9.858   1.649   3.848  0.00  0.00    -0.236 NA
ATOM     57  H24 ZNA d   1     -10.279   0.071   2.440  0.00  0.00     0.144 H 
ATOM     58  C29 ZNA d   1     -10.215   2.931   3.900  0.00  0.00     0.149 A 
ATOM     59  C35 ZNA d   1     -10.982   3.180   2.821  0.00  0.00     0.167 A 
ATOM     60  C30 ZNA d   1      -9.939   3.900   4.793  0.00  0.00     0.155 A 
ATOM     61  N34 ZNA d   1     -11.490   4.415   2.614  0.00  0.00    -0.222 NA
ATOM     62  C33 ZNA d   1     -11.217   5.448   3.533  0.00  0.00     0.091 A 
ATOM     63  N32 ZNA d   1     -10.412   5.154   4.649  0.00  0.00    -0.222 NA
ATOM     64  H25 ZNA d   1     -11.617   6.444   3.384  0.00  0.00     0.146 H 
BRANCH  60  65
ATOM     65  N31 ZNA d   1      -9.171   3.564   5.831  0.00  0.00    -0.382 N 
ATOM     66  H26 ZNA d   1      -8.930   4.268   6.543  0.00  0.00     0.157 HD
ATOM     67  H27 ZNA d   1      -8.819   2.600   5.920  0.00  0.00     0.157 HD
ENDBRANCH  60  65
ENDBRANCH  47  54
BRANCH  48  68
ATOM     68  O37 ZNA d   1     -11.315   2.544  -1.442  0.00  0.00    -0.388 OA
ATOM     69  H22 ZNA d   1     -10.775   2.396  -2.209  0.00  0.00     0.210 HD
ENDBRANCH  48  68
BRANCH  50  70
ATOM     70  O39 ZNA d   1     -10.710   0.046  -2.188  0.00  0.00    -0.390 OA
ATOM     71  H20 ZNA d   1     -11.244   0.650  -2.690  0.00  0.00     0.210 HD
ENDBRANCH  50  70
ENDBRANCH  42  45
ENDBRANCH  41  42
ENDBRANCH  38  41
ENDBRANCH  37  38
ENDBRANCH   1  37
TORSDOF 16
