REMARK  2 active torsions:
REMARK  status: ('A' for Active; 'I' for Inactive)
REMARK    1  A    between atoms: C21_16  and  C22_17 
REMARK    2  A    between atoms: C21_16  and  C23_18 
ROOT
ATOM      1  C02 J6P d   1       3.713  62.809 109.808  0.00  0.00     0.058 A 
ATOM      2  C03 J6P d   1       2.500  62.585 110.493  0.00  0.00    -0.034 A 
ATOM      3  C04 J6P d   1       2.482  61.698 111.607  0.00  0.00     0.045 A 
ATOM      4  C06 J6P d   1       1.935  60.409 113.407  0.00  0.00     0.025 A 
ATOM      5  C07 J6P d   1       3.337  60.241 113.140  0.00  0.00    -0.020 A 
ATOM      6  C08 J6P d   1       4.257  59.300 114.033  0.00  0.00    -0.013 C 
ATOM      7  C09 J6P d   1       3.745  59.351 115.482  0.00  0.00     0.066 C 
ATOM      8  C10 J6P d   1       2.114  58.885 115.575  0.00  0.00    -0.013 C 
ATOM      9  C11 J6P d   1       1.642  58.970 116.898  0.00  0.00    -0.015 C 
ATOM     10  C12 J6P d   1       2.657  59.563 117.812  0.00  0.00     0.225 C 
ATOM     11  C13 J6P d   1       3.939  58.612 117.636  0.00  0.00     0.259 C 
ATOM     12  C16 J6P d   1       2.267  59.775 119.228  0.00  0.00    -0.061 C 
ATOM     13  C17 J6P d   1       2.911  61.012 119.640  0.00  0.00    -0.079 C 
ATOM     14  C18 J6P d   1       3.741  61.538 118.343  0.00  0.00     0.100 C 
ATOM     15  C20 J6P d   1       3.996  60.756 116.179  0.00  0.00     0.109 C 
ATOM     16  C21 J6P d   1       1.181  59.676 114.574  0.00  0.00     0.002 C 
ATOM     17  C24 J6P d   1       3.678  61.063 112.006  0.00  0.00     0.001 A 
ATOM     18  C25 J6P d   1       4.898  61.295 111.312  0.00  0.00    -0.048 A 
ATOM     19  C26 J6P d   1       4.907  62.171 110.211  0.00  0.00     0.056 A 
ATOM     20  N05 J6P d   1       1.438  61.275 112.478  0.00  0.00    -0.358 N 
ATOM     21  N14 J6P d   1       4.381  58.496 116.317  0.00  0.00    -0.347 N 
ATOM     22  N19 J6P d   1       3.175  60.905 117.288  0.00  0.00    -0.044 N 
ATOM     23  O15 J6P d   1       4.474  58.061 118.550  0.00  0.00    -0.270 OA
ATOM     24 CL1  J6P d   1       3.803  63.907 108.405  0.00  0.00    -0.082 Cl
ATOM     25 CL2  J6P d   1       6.406  62.509 109.295  0.00  0.00    -0.083 Cl
ATOM     26  H1  J6P d   1       1.591  63.083 110.175  0.00  0.00     0.089 H 
ATOM     27  H2  J6P d   1       5.298  59.654 113.995  0.00  0.00     0.044 H 
ATOM     28  H3  J6P d   1       4.207  58.267 113.658  0.00  0.00     0.044 H 
ATOM     29  H4  J6P d   1       2.068  57.826 115.281  0.00  0.00     0.045 H 
ATOM     30  H5  J6P d   1       1.392  57.959 117.252  0.00  0.00     0.038 H 
ATOM     31  H6  J6P d   1       0.739  59.598 116.914  0.00  0.00     0.038 H 
ATOM     32  H7  J6P d   1       1.629  59.135 119.835  0.00  0.00     0.081 H 
ATOM     33  H8  J6P d   1       2.850  61.489 120.617  0.00  0.00     0.079 H 
ATOM     34  H9  J6P d   1       4.805  61.271 118.430  0.00  0.00     0.082 H 
ATOM     35  H10 J6P d   1       3.644  62.629 118.237  0.00  0.00     0.082 H 
ATOM     36  H11 J6P d   1       3.781  61.560 115.460  0.00  0.00     0.080 H 
ATOM     37  H12 J6P d   1       5.047  60.819 116.496  0.00  0.00     0.080 H 
ATOM     38  H19 J6P d   1       5.811  60.802 111.628  0.00  0.00     0.087 H 
ATOM     39  H20 J6P d   1       0.455  61.578 112.416  0.00  0.00     0.166 HD
ATOM     40  H21 J6P d   1       5.088  57.853 116.022  0.00  0.00     0.163 HD
ATOM     41  H22 J6P d   1       2.385  61.454 116.989  0.00  0.00     0.282 HD
ENDROOT
BRANCH  16  42
ATOM     42  C22 J6P d   1       0.192  58.651 113.935  0.00  0.00    -0.064 C 
ATOM     43  H13 J6P d   1      -0.473  59.173 113.231  0.00  0.00     0.029 H 
ATOM     44  H14 J6P d   1      -0.409  58.179 114.726  0.00  0.00     0.029 H 
ATOM     45  H15 J6P d   1       0.761  57.878 113.397  0.00  0.00     0.029 H 
ENDBRANCH  16  42
BRANCH  16  46
ATOM     46  C23 J6P d   1       0.342  60.752 115.336  0.00  0.00    -0.064 C 
ATOM     47  H16 J6P d   1       1.019  61.487 115.796  0.00  0.00     0.029 H 
ATOM     48  H17 J6P d   1      -0.256  60.264 116.120  0.00  0.00     0.029 H 
ATOM     49  H18 J6P d   1      -0.328  61.263 114.629  0.00  0.00     0.029 H 
ENDBRANCH  16  46
TORSDOF 2
