REMARK  7 active torsions:
REMARK  status: ('A' for Active; 'I' for Inactive)
REMARK    1  A    between atoms: C16_4  and  C18_18 
REMARK    2  A    between atoms: C02_6  and  N24_24 
REMARK    3  A    between atoms: C03_7  and  O07_11 
REMARK    4  A    between atoms: N08_12  and  C04_8 
REMARK    5  A    between atoms: C06_10  and  S20_20 
REMARK       I    between atoms: C09_13  and  N08_12 
REMARK       I    between atoms: N10_14  and  C09_13 
REMARK    6  A    between atoms: N10_14  and  C12_16 
REMARK    7  A    between atoms: S20_20  and  N23_23 
ROOT
ATOM      1  N08 J6V d   1      -5.026   4.804  13.807  0.00  0.00    -0.306 N 
ATOM      2  C09 J6V d   1      -4.506   6.111  14.025  0.00  0.00     0.325 C 
ATOM      3  N10 J6V d   1      -3.181   6.593  13.688  0.00  0.00    -0.309 N 
ATOM      4  O11 J6V d   1      -5.344   6.813  14.479  0.00  0.00    -0.247 OA
ATOM      5  H6  J6V d   1      -6.012   4.841  13.970  0.00  0.00     0.171 HD
ATOM      6  H7  J6V d   1      -2.483   5.984  13.310  0.00  0.00     0.170 HD
ENDROOT
BRANCH   1   7
ATOM      7  C04 J6V d   1      -4.698   3.457  13.447  0.00  0.00     0.073 A 
ATOM      8  C03 J6V d   1      -4.376   2.718  12.298  0.00  0.00     0.126 A 
ATOM      9  C02 J6V d   1      -4.256   1.315  12.439  0.00  0.00     0.139 A 
ATOM     10  C01 J6V d   1      -4.502   0.716  13.664  0.00  0.00    -0.025 A 
ATOM     11  C06 J6V d   1      -4.832   1.530  14.721  0.00  0.00     0.084 A 
ATOM     12  H3  J6V d   1      -4.436  -0.359  13.785  0.00  0.00     0.089 H 
ATOM     13  C05 J6V d   1      -4.963   2.848  14.604  0.00  0.00    -0.032 A 
ATOM     14  H4  J6V d   1      -5.288   3.433  15.457  0.00  0.00     0.089 H 
BRANCH   8  15
ATOM     15  O07 J6V d   1      -4.129   3.343  11.068  0.00  0.00    -0.356 OA
ATOM     16  H5  J6V d   1      -3.929   2.684  10.414  0.00  0.00     0.218 HD
ENDBRANCH   8  15
BRANCH   9  17
ATOM     17  N24 J6V d   1      -3.928   0.377  11.375  0.00  0.00    -0.113 N 
ATOM     18  O25 J6V d   1      -3.554  -0.710  11.646  0.00  0.00    -0.532 OA
ATOM     19  O26 J6V d   1      -4.164   0.708  10.036  0.00  0.00    -0.532 OA
ENDBRANCH   9  17
BRANCH  11  20
ATOM     20  S20 J6V d   1      -5.252   1.022  16.379  0.00  0.00     0.256 S 
ATOM     21  O21 J6V d   1      -4.442   1.614  17.439  0.00  0.00    -0.201 OA
ATOM     22  O22 J6V d   1      -6.622   1.416  16.687  0.00  0.00    -0.201 OA
BRANCH  20  23
ATOM     23  N23 J6V d   1      -5.027  -0.651  16.379  0.00  0.00    -0.324 N 
ATOM     24  H12 J6V d   1      -5.201  -1.179  17.210  0.00  0.00     0.169 HD
ATOM     25  H13 J6V d   1      -4.720  -1.114  15.548  0.00  0.00     0.169 HD
ENDBRANCH  20  23
ENDBRANCH  11  20
ENDBRANCH   1   7
BRANCH   3  26
ATOM     26  C12 J6V d   1      -2.912   8.008  13.926  0.00  0.00     0.037 A 
ATOM     27  C13 J6V d   1      -3.910   8.936  13.637  0.00  0.00    -0.054 A 
ATOM     28  C14 J6V d   1      -3.731  10.284  13.837  0.00  0.00    -0.043 A 
ATOM     29  H1  J6V d   1      -4.856   8.584  13.242  0.00  0.00     0.087 H 
ATOM     30  C15 J6V d   1      -2.511  10.722  14.305  0.00  0.00     0.122 A 
ATOM     31  H8  J6V d   1      -4.531  10.986  13.631  0.00  0.00     0.088 H 
ATOM     32  C16 J6V d   1      -1.488   9.816  14.584  0.00  0.00    -0.021 A 
ATOM     33  F19 J6V d   1      -2.328  12.060  14.488  0.00  0.00    -0.206 F 
ATOM     34  C17 J6V d   1      -1.684   8.452  14.391  0.00  0.00    -0.048 A 
ATOM     35  H2  J6V d   1      -0.888   7.747  14.601  0.00  0.00     0.087 H 
BRANCH  32  36
ATOM     36  C18 J6V d   1      -0.141  10.328  15.105  0.00  0.00    -0.048 C 
ATOM     37  H9  J6V d   1      -0.174  11.424  15.193  0.00  0.00     0.033 H 
ATOM     38  H10 J6V d   1       0.656  10.041  14.404  0.00  0.00     0.033 H 
ATOM     39  H11 J6V d   1       0.062   9.887  16.092  0.00  0.00     0.033 H 
ENDBRANCH  32  36
ENDBRANCH   3  26
TORSDOF 7
