REMARK  5 active torsions:
REMARK  status: ('A' for Active; 'I' for Inactive)
REMARK    1  A    between atoms: C09_3  and  C02_1 
REMARK       I    between atoms: C02_1  and  N03_16 
REMARK    2  A    between atoms: N03_16  and  C04_2 
REMARK    3  A    between atoms: C09_3  and  C17_10 
REMARK    4  A    between atoms: N10_21  and  C09_3 
REMARK    5  A    between atoms: C11_4  and  N10_21 
ROOT
ATOM      1  C09 O5E d   1      49.926  13.171  47.061  0.00  0.00     0.114 C 
ATOM      2  H1  O5E d   1      49.757  13.511  48.093  0.00  0.00     0.095 H 
ENDROOT
BRANCH   1   3
ATOM      3  C02 O5E d   1      49.296  11.783  46.890  0.00  0.00     0.263 C 
ATOM      4  N03 O5E d   1      47.961  11.801  46.316  0.00  0.00    -0.151 N 
ATOM      5  H12 O5E d   1      47.591  12.698  46.077  0.00  0.00     0.187 HD
ATOM      6  O01 O5E d   1      49.837  10.766  47.203  0.00  0.00    -0.270 OA
BRANCH   4   7
ATOM      7  C04 O5E d   1      47.109  10.660  46.053  0.00  0.00     0.761 A 
ATOM      8  N05 O5E d   1      45.929  10.756  45.476  0.00  0.00     0.035 NA
ATOM      9  N06 O5E d   1      45.384   9.513  45.393  0.00  0.00     0.037 NA
ATOM     10  N07 O5E d   1      46.272   8.649  45.956  0.00  0.00    -0.185 N 
ATOM     11  N08 O5E d   1      47.344   9.393  46.353  0.00  0.00     0.034 NA
ATOM     12  H13 O5E d   1      46.157   7.631  46.062  0.00  0.00     0.208 HD
ENDBRANCH   4   7
ENDBRANCH   1   3
BRANCH   1  13
ATOM     13  C17 O5E d   1      51.421  13.285  46.753  0.00  0.00    -0.026 A 
ATOM     14  C18 O5E d   1      52.092  12.340  45.997  0.00  0.00    -0.074 A 
ATOM     15  C19 O5E d   1      53.438  12.482  45.706  0.00  0.00    -0.082 A 
ATOM     16  H7  O5E d   1      51.555  11.474  45.627  0.00  0.00     0.084 H 
ATOM     17  C20 O5E d   1      54.127  13.580  46.180  0.00  0.00    -0.083 A 
ATOM     18  H8  O5E d   1      53.948  11.735  45.109  0.00  0.00     0.083 H 
ATOM     19  C21 O5E d   1      53.466  14.536  46.937  0.00  0.00    -0.082 A 
ATOM     20  H9  O5E d   1      55.182  13.695  45.961  0.00  0.00     0.083 H 
ATOM     21  C22 O5E d   1      52.114  14.394  47.217  0.00  0.00    -0.074 A 
ATOM     22  H10 O5E d   1      54.007  15.397  47.311  0.00  0.00     0.083 H 
ATOM     23  H11 O5E d   1      51.599  15.150  47.799  0.00  0.00     0.084 H 
ENDBRANCH   1  13
BRANCH   1  24
ATOM     24  N10 O5E d   1      49.227  14.032  46.113  0.00  0.00    -0.373 N 
ATOM     25  H14 O5E d   1      48.355  14.504  46.393  0.00  0.00     0.161 HD
BRANCH  24  26
ATOM     26  C11 O5E d   1      49.762  14.226  44.766  0.00  0.00     0.028 A 
ATOM     27  C12 O5E d   1      49.855  13.158  43.891  0.00  0.00    -0.058 A 
ATOM     28  C13 O5E d   1      50.380  13.321  42.620  0.00  0.00    -0.081 A 
ATOM     29  H2  O5E d   1      49.512  12.179  44.205  0.00  0.00     0.086 H 
ATOM     30  C14 O5E d   1      50.801  14.567  42.201  0.00  0.00    -0.083 A 
ATOM     31  H3  O5E d   1      50.460  12.470  41.954  0.00  0.00     0.083 H 
ATOM     32  C15 O5E d   1      50.704  15.640  43.072  0.00  0.00    -0.081 A 
ATOM     33  H4  O5E d   1      51.202  14.704  41.203  0.00  0.00     0.083 H 
ATOM     34  C16 O5E d   1      50.194  15.477  44.351  0.00  0.00    -0.058 A 
ATOM     35  H5  O5E d   1      51.032  16.622  42.749  0.00  0.00     0.083 H 
ATOM     36  H6  O5E d   1      50.133  16.324  45.024  0.00  0.00     0.086 H 
ENDBRANCH  24  26
ENDBRANCH   1  24
TORSDOF 5
