REMARK  6 active torsions:
REMARK  status: ('A' for Active; 'I' for Inactive)
REMARK       I    between atoms: C2_2  and  N3_18 
REMARK    1  A    between atoms: C5_19  and  C2_2 
REMARK    2  A    between atoms: C15_9  and  C11_6 
REMARK    3  A    between atoms: C13_8  and  N14_23 
REMARK    4  A    between atoms: N30_31  and  C31_17 
REMARK    5  A    between atoms: C29_30  and  C28_29 
REMARK    6  A    between atoms: C29_30  and  N30_31 
ROOT
ATOM      1  C1  B5Q d   1     -33.209 -10.422 -26.072  0.00  0.00     0.029 A 
ATOM      2  C7  B5Q d   1     -32.177  -9.770 -26.789  0.00  0.00    -0.058 A 
ATOM      3  C9  B5Q d   1     -34.789  -9.876 -27.891  0.00  0.00    -0.053 A 
ATOM      4  C11 B5Q d   1     -32.458  -9.194 -28.027  0.00  0.00    -0.024 A 
ATOM      5  C12 B5Q d   1     -33.769  -9.266 -28.571  0.00  0.00    -0.070 A 
ATOM      6  C13 B5Q d   1     -35.263 -11.639 -24.757  0.00  0.00     0.721 A 
ATOM      7  C5  B5Q d   1     -33.008 -11.025 -24.794  0.00  0.00     0.156 A 
ATOM      8  C6  B5Q d   1     -34.532 -10.475 -26.634  0.00  0.00     0.088 A 
ATOM      9  N8  B5Q d   1     -34.047 -11.623 -24.200  0.00  0.00    -0.057 NA
ATOM     10  N10 B5Q d   1     -35.501 -11.097 -25.944  0.00  0.00    -0.063 NA
ATOM     11  H1  B5Q d   1     -31.175  -9.719 -26.378  0.00  0.00     0.086 H 
ATOM     12  H2  B5Q d   1     -35.787  -9.900 -28.312  0.00  0.00     0.087 H 
ATOM     13  H3  B5Q d   1     -33.965  -8.829 -29.544  0.00  0.00     0.084 H 
ENDROOT
BRANCH   4  14
ATOM     14  C15 B5Q d   1     -31.366  -8.522 -28.786  0.00  0.00    -0.018 A 
ATOM     15  C24 B5Q d   1     -30.338  -9.333 -29.299  0.00  0.00    -0.072 A 
ATOM     16  C25 B5Q d   1     -29.280  -8.779 -30.010  0.00  0.00    -0.082 A 
ATOM     17  H8  B5Q d   1     -30.371 -10.404 -29.138  0.00  0.00     0.084 H 
ATOM     18  C26 B5Q d   1     -29.246  -7.406 -30.247  0.00  0.00    -0.082 A 
ATOM     19  H17 B5Q d   1     -28.483  -9.414 -30.380  0.00  0.00     0.083 H 
ATOM     20  C27 B5Q d   1     -30.257  -6.586 -29.745  0.00  0.00    -0.074 A 
ATOM     21  H18 B5Q d   1     -28.434  -6.975 -30.821  0.00  0.00     0.083 H 
ATOM     22  C28 B5Q d   1     -31.322  -7.122 -29.022  0.00  0.00    -0.022 A 
ATOM     23  H9  B5Q d   1     -30.214  -5.517 -29.919  0.00  0.00     0.084 H 
BRANCH  22  24
ATOM     24  C29 B5Q d   1     -32.360  -6.141 -28.496  0.00  0.00     0.105 C 
ATOM     25  H19 B5Q d   1     -33.329  -6.366 -28.966  0.00  0.00     0.083 H 
ATOM     26  H20 B5Q d   1     -32.050  -5.120 -28.765  0.00  0.00     0.083 H 
BRANCH  24  27
ATOM     27  N30 B5Q d   1     -32.514  -6.220 -27.026  0.00  0.00    -0.075 N 
ATOM     28  H21 B5Q d   1     -33.217  -5.554 -26.747  0.00  0.00     0.277 HD
ATOM     29  H22 B5Q d   1     -32.820  -7.151 -26.791  0.00  0.00     0.277 HD
BRANCH  27  30
ATOM     30  C31 B5Q d   1     -31.279  -5.934 -26.265  0.00  0.00     0.065 C 
ATOM     31  H10 B5Q d   1     -31.485  -6.015 -25.188  0.00  0.00     0.067 H 
ATOM     32  H11 B5Q d   1     -30.933  -4.916 -26.497  0.00  0.00     0.067 H 
ATOM     33  H12 B5Q d   1     -30.500  -6.658 -26.545  0.00  0.00     0.067 H 
ENDBRANCH  27  30
ENDBRANCH  24  27
ENDBRANCH  22  24
ENDBRANCH   4  14
BRANCH   7  34
ATOM     34  C2  B5Q d   1     -31.645 -11.058 -24.199  0.00  0.00     0.281 C 
ATOM     35  O4  B5Q d   1     -31.162 -10.041 -23.722  0.00  0.00    -0.265 OA
ATOM     36  N3  B5Q d   1     -30.921 -12.204 -24.244  0.00  0.00    -0.297 N 
ATOM     37  C16 B5Q d   1     -29.542 -12.379 -23.767  0.00  0.00    -0.002 C 
ATOM     38  C17 B5Q d   1     -31.326 -13.512 -24.807  0.00  0.00    -0.002 C 
ATOM     39  C19 B5Q d   1     -29.024 -13.685 -24.336  0.00  0.00    -0.009 A 
ATOM     40  H4  B5Q d   1     -28.992 -11.695 -23.122  0.00  0.00     0.113 H 
ATOM     41  C20 B5Q d   1     -27.764 -14.262 -24.298  0.00  0.00    -0.071 A 
ATOM     42  C18 B5Q d   1     -30.081 -14.352 -24.951  0.00  0.00    -0.009 A 
ATOM     43  C21 B5Q d   1     -27.561 -15.492 -24.894  0.00  0.00    -0.082 A 
ATOM     44  H5  B5Q d   1     -26.944 -13.752 -23.805  0.00  0.00     0.084 H 
ATOM     45  C22 B5Q d   1     -28.608 -16.154 -25.539  0.00  0.00    -0.082 A 
ATOM     46  H6  B5Q d   1     -26.578 -15.948 -24.861  0.00  0.00     0.083 H 
ATOM     47  C23 B5Q d   1     -29.869 -15.583 -25.561  0.00  0.00    -0.071 A 
ATOM     48  H7  B5Q d   1     -28.434 -17.110 -26.020  0.00  0.00     0.083 H 
ATOM     49  H16 B5Q d   1     -30.689 -16.094 -26.052  0.00  0.00     0.084 H 
ATOM     50  H15 B5Q d   1     -32.339 -13.813 -25.070  0.00  0.00     0.113 H 
ENDBRANCH   7  34
BRANCH   6  51
ATOM     51  N14 B5Q d   1     -36.314 -12.251 -24.102  0.00  0.00    -0.231 N 
ATOM     52  H13 B5Q d   1     -36.164 -12.682 -23.179  0.00  0.00     0.174 HD
ATOM     53  H14 B5Q d   1     -37.247 -12.276 -24.537  0.00  0.00     0.174 HD
ENDBRANCH   6  51
TORSDOF 6
