REMARK  4 active torsions:
REMARK  status: ('A' for Active; 'I' for Inactive)
REMARK    1  A    between atoms: CAE_3  and  SAB_4 
REMARK    2  A    between atoms: SAB_4  and  NAA_7 
REMARK    3  A    between atoms: CAH_10  and  CAK_11 
REMARK    4  A    between atoms: CAQ_19  and  CAT_20 
ROOT
ATOM      1  CAK B5T d   1       8.529  16.172 -47.853  0.00  0.00    -0.007 A 
ATOM      2  CAS B5T d   1       7.442  16.046 -46.972  0.00  0.00    -0.056 A 
ATOM      3  CAR B5T d   1       6.856  14.855 -46.743  0.00  0.00     0.023 A 
ATOM      4  CAL B5T d   1       8.974  15.003 -48.483  0.00  0.00     0.015 A 
ATOM      5  NAM B5T d   1       8.327  13.787 -48.213  0.00  0.00    -0.242 NA
ATOM      6  CAN B5T d   1       7.292  13.742 -47.356  0.00  0.00     0.138 A 
ATOM      7  NAO B5T d   1       6.545  12.715 -46.957  0.00  0.00    -0.349 N 
ATOM      8  CAP B5T d   1       5.639  13.166 -46.100  0.00  0.00    -0.009 A 
ATOM      9  CAQ B5T d   1       5.831  14.474 -45.971  0.00  0.00     0.005 A 
ATOM     10  H7  B5T d   1       7.066  16.927 -46.465  0.00  0.00     0.086 H 
ATOM     11  H8  B5T d   1       9.810  15.037 -49.172  0.00  0.00     0.116 H 
ATOM     12  H9  B5T d   1       6.652  11.737 -47.262  0.00  0.00     0.167 HD
ATOM     13  H10 B5T d   1       4.878  12.573 -45.595  0.00  0.00     0.112 H 
ENDROOT
BRANCH   1  14
ATOM     14  CAH B5T d   1       9.144  17.415 -48.105  0.00  0.00    -0.024 A 
ATOM     15  CAG B5T d   1       9.589  17.736 -49.397  0.00  0.00    -0.071 A 
ATOM     16  CAF B5T d   1      10.199  18.960 -49.668  0.00  0.00    -0.059 A 
ATOM     17  H1  B5T d   1       9.456  17.019 -50.199  0.00  0.00     0.084 H 
ATOM     18  CAE B5T d   1      10.374  19.900 -48.658  0.00  0.00     0.079 A 
ATOM     19  H2  B5T d   1      10.539  19.181 -50.673  0.00  0.00     0.085 H 
ATOM     20  CAJ B5T d   1       9.934  19.602 -47.367  0.00  0.00    -0.059 A 
ATOM     21  CAI B5T d   1       9.323  18.372 -47.092  0.00  0.00    -0.071 A 
ATOM     22  H5  B5T d   1      10.066  20.327 -46.572  0.00  0.00     0.085 H 
ATOM     23  H6  B5T d   1       8.984  18.156 -46.085  0.00  0.00     0.084 H 
BRANCH  18  24
ATOM     24  SAB B5T d   1      11.147  21.439 -49.043  0.00  0.00     0.256 S 
ATOM     25  OAC B5T d   1      11.745  22.049 -47.776  0.00  0.00    -0.201 OA
ATOM     26  OAD B5T d   1      10.112  22.402 -49.629  0.00  0.00    -0.201 OA
BRANCH  24  27
ATOM     27  NAA B5T d   1      12.321  21.194 -50.131  0.00  0.00    -0.324 N 
ATOM     28  H3  B5T d   1      12.864  21.965 -50.462  0.00  0.00     0.169 HD
ATOM     29  H4  B5T d   1      12.502  20.271 -50.472  0.00  0.00     0.169 HD
ENDBRANCH  24  27
ENDBRANCH  18  24
ENDBRANCH   1  14
BRANCH   9  30
ATOM     30  CAT B5T d   1       5.088  15.250 -45.171  0.00  0.00    -0.006 A 
ATOM     31  CAY B5T d   1       4.430  16.377 -45.672  0.00  0.00    -0.069 A 
ATOM     32  CAX B5T d   1       3.654  17.184 -44.836  0.00  0.00    -0.065 A 
ATOM     33  H11 B5T d   1       4.523  16.628 -46.722  0.00  0.00     0.085 H 
ATOM     34  CAW B5T d   1       3.518  16.869 -43.484  0.00  0.00     0.002 A 
ATOM     35  H12 B5T d   1       3.156  18.058 -45.240  0.00  0.00     0.085 H 
ATOM     36  NAV B5T d   1       4.169  15.735 -42.969  0.00  0.00    -0.272 NA
ATOM     37  H13 B5T d   1       2.915  17.494 -42.836  0.00  0.00     0.114 H 
ATOM     38  CAU B5T d   1       4.954  14.928 -43.816  0.00  0.00     0.013 A 
ATOM     39  H14 B5T d   1       5.456  14.054 -43.416  0.00  0.00     0.116 H 
ENDBRANCH   9  30
TORSDOF 4
