REMARK  7 active torsions:
REMARK  status: ('A' for Active; 'I' for Inactive)
REMARK    1  A    between atoms: CBF_3  and  CAY_4 
REMARK       I    between atoms: CAY_4  and  NAU_6 
REMARK    2  A    between atoms: NAU_6  and  CBC_7 
REMARK    3  A    between atoms: CBB_15  and  CBA_16 
REMARK    4  A    between atoms: CAZ_21  and  NAT_22 
REMARK       I    between atoms: NAT_22  and  CAX_23 
REMARK       I    between atoms: CAX_23  and  NAS_25 
REMARK    5  A    between atoms: NAS_25  and  CAI_26 
REMARK    6  A    between atoms: CAI_26  and  CAN_27 
REMARK    7  A    between atoms: CAN_27  and  NBG_28 
ROOT
ATOM      1  CBA B5Z d   1       4.009 -16.109  44.276  0.00  0.00    -0.005 A 
ATOM      2  CAH B5Z d   1       3.502 -17.423  44.144  0.00  0.00    -0.045 A 
ATOM      3  CAE B5Z d   1       3.391 -15.080  43.553  0.00  0.00    -0.071 A 
ATOM      4  CAC B5Z d   1       2.311 -15.374  42.711  0.00  0.00    -0.080 A 
ATOM      5  CAD B5Z d   1       1.826 -16.680  42.588  0.00  0.00    -0.057 A 
ATOM      6  CAZ B5Z d   1       2.429 -17.720  43.305  0.00  0.00     0.037 A 
ATOM      7  H7  B5Z d   1       3.962 -18.223  44.712  0.00  0.00     0.088 H 
ATOM      8  H8  B5Z d   1       3.747 -14.060  43.645  0.00  0.00     0.084 H 
ATOM      9  H9  B5Z d   1       1.843 -14.576  42.145  0.00  0.00     0.083 H 
ATOM     10  H10 B5Z d   1       0.984 -16.887  41.938  0.00  0.00     0.086 H 
ENDROOT
BRANCH   6  11
ATOM     11  NAT B5Z d   1       2.007 -18.998  43.219  0.00  0.00    -0.309 N 
ATOM     12  CAX B5Z d   1       2.138 -19.663  42.043  0.00  0.00     0.320 C 
ATOM     13  OAA B5Z d   1       2.635 -19.126  41.052  0.00  0.00    -0.247 OA
ATOM     14  NAS B5Z d   1       1.698 -20.940  41.964  0.00  0.00    -0.341 N 
ATOM     15  H12 B5Z d   1       1.252 -21.364  42.752  0.00  0.00     0.164 HD
ATOM     16  H11 B5Z d   1       1.602 -19.451  44.013  0.00  0.00     0.170 HD
BRANCH  14  17
ATOM     17  CAI B5Z d   1       1.873 -21.699  40.730  0.00  0.00     0.019 C 
ATOM     18  H13 B5Z d   1       2.872 -22.160  40.738  0.00  0.00     0.066 H 
ATOM     19  H14 B5Z d   1       1.795 -21.008  39.877  0.00  0.00     0.066 H 
BRANCH  17  20
ATOM     20  CAN B5Z d   1       0.832 -22.796  40.565  0.00  0.00     0.098 C 
ATOM     21  H15 B5Z d   1       0.746 -23.363  41.504  0.00  0.00     0.078 H 
ATOM     22  H16 B5Z d   1       1.140 -23.473  39.755  0.00  0.00     0.078 H 
BRANCH  20  23
ATOM     23  NBG B5Z d   1      -0.490 -22.188  40.229  0.00  0.00    -0.066 N 
ATOM     24  CAO B5Z d   1      -1.552 -23.228  40.268  0.00  0.00     0.103 C 
ATOM     25  CAJ B5Z d   1      -2.942 -22.682  39.831  0.00  0.00     0.042 C 
ATOM     26  H18 B5Z d   1      -1.632 -23.611  41.296  0.00  0.00     0.079 H 
ATOM     27  H19 B5Z d   1      -1.267 -24.048  39.592  0.00  0.00     0.079 H 
ATOM     28  OAV B5Z d   1      -2.811 -21.421  39.097  0.00  0.00    -0.388 OA
ATOM     29  H20 B5Z d   1      -3.558 -22.513  40.726  0.00  0.00     0.076 H 
ATOM     30  H21 B5Z d   1      -3.431 -23.424  39.184  0.00  0.00     0.076 H 
ATOM     31  CAK B5Z d   1      -1.803 -21.578  38.131  0.00  0.00     0.042 C 
ATOM     32  CAP B5Z d   1      -0.504 -21.432  38.938  0.00  0.00     0.103 C 
ATOM     33  H22 B5Z d   1      -1.875 -20.799  37.358  0.00  0.00     0.076 H 
ATOM     34  H23 B5Z d   1      -1.863 -22.570  37.659  0.00  0.00     0.076 H 
ATOM     35  H24 B5Z d   1       0.329 -21.795  38.318  0.00  0.00     0.079 H 
ATOM     36  H25 B5Z d   1      -0.356 -20.365  39.162  0.00  0.00     0.079 H 
ATOM     37  H17 B5Z d   1      -0.697 -21.520  40.955  0.00  0.00     0.280 HD
ENDBRANCH  20  23
ENDBRANCH  17  20
ENDBRANCH  14  17
ENDBRANCH   6  11
BRANCH   1  38
ATOM     38  CBB B5Z d   1       5.085 -15.893  45.155  0.00  0.00     0.068 A 
ATOM     39  NAR B5Z d   1       5.884 -16.933  45.407  0.00  0.00    -0.238 NA
ATOM     40  CBE B5Z d   1       6.921 -16.866  46.243  0.00  0.00     0.130 A 
ATOM     41  SAW B5Z d   1       7.925 -17.993  46.616  0.00  0.00    -0.030 SA
ATOM     42  CBD B5Z d   1       7.249 -15.739  46.908  0.00  0.00     0.095 A 
ATOM     43  CBC B5Z d   1       8.824 -17.188  47.594  0.00  0.00     0.176 A 
ATOM     44  NAQ B5Z d   1       8.344 -15.929  47.689  0.00  0.00    -0.222 NA
ATOM     45  CAG B5Z d   1       6.481 -14.651  46.704  0.00  0.00    -0.050 A 
ATOM     46  CAF B5Z d   1       5.377 -14.694  45.831  0.00  0.00    -0.052 A 
ATOM     47  H5  B5Z d   1       6.717 -13.727  47.220  0.00  0.00     0.087 H 
ATOM     48  H6  B5Z d   1       4.760 -13.815  45.682  0.00  0.00     0.087 H 
BRANCH  43  49
ATOM     49  NAU B5Z d   1       9.852 -17.792  48.210  0.00  0.00    -0.305 N 
ATOM     50  CAY B5Z d   1      10.708 -17.070  48.955  0.00  0.00     0.234 C 
ATOM     51  OAB B5Z d   1      10.630 -15.854  49.065  0.00  0.00    -0.272 OA
ATOM     52  H4  B5Z d   1       9.982 -18.779  48.115  0.00  0.00     0.171 HD
BRANCH  50  53
ATOM     53  CBF B5Z d   1      11.849 -17.816  49.701  0.00  0.00     0.056 A 
ATOM     54  CAL B5Z d   1      12.270 -19.145  49.361  0.00  0.00    -0.089 A 
ATOM     55  CAM B5Z d   1      11.442 -18.911  50.488  0.00  0.00    -0.089 A 
ATOM     56  H1  B5Z d   1      12.819 -19.828  48.715  0.00  0.00     0.078 H 
ATOM     57  H2  B5Z d   1      10.890 -19.298  51.343  0.00  0.00     0.078 H 
ATOM     58  H3  B5Z d   1      12.596 -17.093  50.061  0.00  0.00     0.067 H 
ENDBRANCH  50  53
ENDBRANCH  43  49
ENDBRANCH   1  38
TORSDOF 7
