REMARK  12 active torsions:
REMARK  status: ('A' for Active; 'I' for Inactive)
REMARK    1  A    between atoms: NBH_3  and  CAC_4 
REMARK    2  A    between atoms: NBI_7  and  CBC_8 
REMARK    3  A    between atoms: CBF_10  and  OAV_11 
REMARK    4  A    between atoms: OAV_11  and  CAB_12 
REMARK    5  A    between atoms: CBD_15  and  NAU_16 
REMARK    6  A    between atoms: NAU_16  and  CBE_17 
REMARK    7  A    between atoms: CBA_20  and  NAD_21 
REMARK    8  A    between atoms: CBG_22  and  CAY_23 
REMARK    9  A    between atoms: CAY_23  and  CBB_25 
REMARK   10  A    between atoms: CAZ_30  and  NAT_31 
REMARK       I    between atoms: NAT_31  and  CAX_32 
REMARK   11  A    between atoms: CAX_32  and  CAG_34 
REMARK   12  A    between atoms: CAG_34  and  CAA_35 
ROOT
ATOM      1  CBC B6H d   1     -10.199 108.497 278.104  0.00  0.00     0.033 A 
ATOM      2  CAN B6H d   1     -11.202 107.582 277.764  0.00  0.00    -0.023 A 
ATOM      3  CBF B6H d   1     -10.914 106.214 277.716  0.00  0.00     0.097 A 
ATOM      4  CAL B6H d   1      -8.909 108.034 278.384  0.00  0.00    -0.055 A 
ATOM      5  CAM B6H d   1      -8.621 106.671 278.333  0.00  0.00    -0.052 A 
ATOM      6  CBD B6H d   1      -9.621 105.755 277.988  0.00  0.00     0.068 A 
ATOM      7  H13 B6H d   1     -12.202 107.933 277.538  0.00  0.00     0.091 H 
ATOM      8  H17 B6H d   1      -8.128 108.740 278.642  0.00  0.00     0.087 H 
ATOM      9  H18 B6H d   1      -7.621 106.320 278.561  0.00  0.00     0.087 H 
ENDROOT
BRANCH   6  10
ATOM     10  NAU B6H d   1      -9.409 104.429 277.930  0.00  0.00    -0.333 N 
ATOM     11  H19 B6H d   1      -9.947 103.794 278.537  0.00  0.00     0.168 HD
BRANCH  10  12
ATOM     12  CBE B6H d   1      -8.495 103.932 277.080  0.00  0.00     0.174 A 
ATOM     13  SAW B6H d   1      -7.597 104.745 275.963  0.00  0.00    -0.044 SA
ATOM     14  CBG B6H d   1      -6.783 103.421 275.401  0.00  0.00     0.104 A 
ATOM     15  CBA B6H d   1      -7.223 102.352 276.093  0.00  0.00     0.145 A 
ATOM     16  NAS B6H d   1      -8.166 102.639 277.015  0.00  0.00    -0.205 NA
BRANCH  14  17
ATOM     17  CAY B6H d   1      -5.845 103.385 274.430  0.00  0.00     0.203 C 
ATOM     18  OAF B6H d   1      -5.273 102.331 274.145  0.00  0.00    -0.286 OA
BRANCH  17  19
ATOM     19  CBB B6H d   1      -5.502 104.558 273.739  0.00  0.00     0.016 A 
ATOM     20  CAK B6H d   1      -4.164 104.962 273.710  0.00  0.00    -0.067 A 
ATOM     21  CAI B6H d   1      -3.782 106.115 273.017  0.00  0.00    -0.056 A 
ATOM     22  H22 B6H d   1      -3.415 104.376 274.230  0.00  0.00     0.085 H 
ATOM     23  CAZ B6H d   1      -4.729 106.885 272.341  0.00  0.00     0.034 A 
ATOM     24  H23 B6H d   1      -2.740 106.413 273.005  0.00  0.00     0.086 H 
ATOM     25  CAH B6H d   1      -6.065 106.475 272.350  0.00  0.00    -0.056 A 
ATOM     26  CAJ B6H d   1      -6.445 105.321 273.038  0.00  0.00    -0.067 A 
ATOM     27  H25 B6H d   1      -6.811 107.056 271.820  0.00  0.00     0.086 H 
ATOM     28  H24 B6H d   1      -7.484 105.011 273.030  0.00  0.00     0.085 H 
BRANCH  23  29
ATOM     29  NAT B6H d   1      -4.333 107.977 271.669  0.00  0.00    -0.327 N 
ATOM     30  CAX B6H d   1      -4.849 109.196 271.956  0.00  0.00     0.221 C 
ATOM     31  OAE B6H d   1      -5.695 109.430 272.823  0.00  0.00    -0.273 OA
ATOM     32  H26 B6H d   1      -3.647 107.889 270.946  0.00  0.00     0.169 HD
BRANCH  30  33
ATOM     33  CAG B6H d   1      -4.292 110.334 271.087  0.00  0.00     0.006 C 
ATOM     34  H27 B6H d   1      -4.514 110.070 270.043  0.00  0.00     0.046 H 
ATOM     35  H28 B6H d   1      -3.203 110.342 271.239  0.00  0.00     0.046 H 
BRANCH  33  36
ATOM     36  CAA B6H d   1      -4.773 111.775 271.287  0.00  0.00    -0.068 C 
ATOM     37  H29 B6H d   1      -4.259 112.436 270.573  0.00  0.00     0.028 H 
ATOM     38  H30 B6H d   1      -4.547 112.098 272.314  0.00  0.00     0.028 H 
ATOM     39  H31 B6H d   1      -5.859 111.826 271.117  0.00  0.00     0.028 H 
ENDBRANCH  33  36
ENDBRANCH  30  33
ENDBRANCH  23  29
ENDBRANCH  17  19
ENDBRANCH  14  17
BRANCH  15  40
ATOM     40  NAD B6H d   1      -6.826 101.088 275.952  0.00  0.00    -0.383 N 
ATOM     41  H20 B6H d   1      -6.107 100.849 275.254  0.00  0.00     0.157 HD
ATOM     42  H21 B6H d   1      -7.238 100.350 276.541  0.00  0.00     0.157 HD
ENDBRANCH  15  40
ENDBRANCH  10  12
ENDBRANCH   6  10
BRANCH   3  43
ATOM     43  OAV B6H d   1     -11.858 105.280 277.396  0.00  0.00    -0.354 OA
BRANCH  43  44
ATOM     44  CAB B6H d   1     -12.952 105.258 278.328  0.00  0.00     0.010 C 
ATOM     45  H14 B6H d   1     -13.679 104.491 278.022  0.00  0.00     0.066 H 
ATOM     46  H15 B6H d   1     -13.442 106.243 278.341  0.00  0.00     0.066 H 
ATOM     47  H16 B6H d   1     -12.572 105.024 279.334  0.00  0.00     0.066 H 
ENDBRANCH  43  44
ENDBRANCH   3  43
BRANCH   1  48
ATOM     48  NBI B6H d   1     -10.458 109.818 278.156  0.00  0.00    -0.378 N 
ATOM     49  CAQ B6H d   1      -9.677 110.732 277.259  0.00  0.00     0.018 C 
ATOM     50  CAO B6H d   1     -10.312 112.095 277.087  0.00  0.00     0.098 C 
ATOM     51  H1  B6H d   1      -8.673 110.867 277.688  0.00  0.00     0.066 H 
ATOM     52  H2  B6H d   1      -9.592 110.260 276.269  0.00  0.00     0.066 H 
ATOM     53  NBH B6H d   1     -11.024 112.509 278.325  0.00  0.00    -0.072 N 
ATOM     54  H3  B6H d   1     -11.030 112.055 276.255  0.00  0.00     0.078 H 
ATOM     55  H4  B6H d   1      -9.527 112.832 276.859  0.00  0.00     0.078 H 
ATOM     56  CAP B6H d   1     -12.122 111.589 278.650  0.00  0.00     0.098 C 
ATOM     57  H5  B6H d   1     -10.358 112.485 279.081  0.00  0.00     0.279 HD
ATOM     58  CAR B6H d   1     -11.451 110.322 279.142  0.00  0.00     0.018 C 
ATOM     59  H9  B6H d   1     -12.728 111.382 277.756  0.00  0.00     0.078 H 
ATOM     60  H10 B6H d   1     -12.762 112.016 279.436  0.00  0.00     0.078 H 
ATOM     61  H11 B6H d   1     -12.218 109.550 279.304  0.00  0.00     0.066 H 
ATOM     62  H12 B6H d   1     -10.937 110.534 280.091  0.00  0.00     0.066 H 
BRANCH  53  63
ATOM     63  CAC B6H d   1     -11.566 113.891 278.230  0.00  0.00     0.066 C 
ATOM     64  H6  B6H d   1     -12.081 114.148 279.167  0.00  0.00     0.068 H 
ATOM     65  H7  B6H d   1     -12.277 113.949 277.393  0.00  0.00     0.068 H 
ATOM     66  H8  B6H d   1     -10.741 114.598 278.060  0.00  0.00     0.068 H 
ENDBRANCH  53  63
ENDBRANCH   1  48
TORSDOF 12
