REMARK  3 active torsions:
REMARK  status: ('A' for Active; 'I' for Inactive)
REMARK    1  A    between atoms: CBB_2  and  CAD_5 
REMARK    2  A    between atoms: CAE_11  and  NAH_12 
REMARK    3  A    between atoms: CAS_26  and  CAW_27 
ROOT
ATOM      1  NAH B6N d   1       2.000 -28.335 -10.839  0.00  0.00    -0.277 N 
ATOM      2  CAV B6N d   1       3.312 -28.706 -10.651  0.00  0.00     0.067 A 
ATOM      3  CAU B6N d   1       4.454 -28.167 -11.314  0.00  0.00     0.022 A 
ATOM      4  CAT B6N d   1       4.406 -27.153 -12.277  0.00  0.00    -0.058 A 
ATOM      5  CAI B6N d   1       1.002 -28.920 -10.148  0.00  0.00     0.252 A 
ATOM      6  OAJ B6N d   1      -0.156 -28.555 -10.352  0.00  0.00    -0.268 OA
ATOM      7  CAK B6N d   1       1.231 -29.923  -9.224  0.00  0.00    -0.016 A 
ATOM      8  CAL B6N d   1       2.531 -30.326  -9.006  0.00  0.00    -0.064 A 
ATOM      9  CAM B6N d   1       3.557 -29.721  -9.715  0.00  0.00     0.010 A 
ATOM     10  CAN B6N d   1       4.839 -30.173  -9.450  0.00  0.00     0.015 A 
ATOM     11  NAO B6N d   1       5.922 -29.621 -10.112  0.00  0.00    -0.259 NA
ATOM     12  CAP B6N d   1       5.733 -28.655 -11.012  0.00  0.00     0.069 A 
ATOM     13  CAQ B6N d   1       6.870 -28.150 -11.637  0.00  0.00    -0.053 A 
ATOM     14  CAR B6N d   1       6.785 -27.144 -12.585  0.00  0.00    -0.070 A 
ATOM     15  CAS B6N d   1       5.535 -26.643 -12.907  0.00  0.00    -0.022 A 
ATOM     16  H4  B6N d   1       3.439 -26.744 -12.546  0.00  0.00     0.086 H 
ATOM     17  H5  B6N d   1       0.406 -30.383  -8.682  0.00  0.00     0.092 H 
ATOM     18  H6  B6N d   1       2.750 -31.112  -8.284  0.00  0.00     0.085 H 
ATOM     19  H7  B6N d   1       4.995 -30.961  -8.722  0.00  0.00     0.116 H 
ATOM     20  H8  B6N d   1       7.842 -28.553 -11.376  0.00  0.00     0.087 H 
ATOM     21  H9  B6N d   1       7.677 -26.757 -13.064  0.00  0.00     0.084 H 
ENDROOT
BRANCH   1  22
ATOM     22  CAE B6N d   1       1.563 -27.389 -11.692  0.00  0.00     0.058 A 
ATOM     23  CAD B6N d   1       1.174 -27.724 -12.994  0.00  0.00     0.078 A 
ATOM     24  CAC B6N d   1       0.725 -26.730 -13.856  0.00  0.00    -0.029 A 
ATOM     25  CAB B6N d   1       0.658 -25.409 -13.433  0.00  0.00     0.117 A 
ATOM     26  H1  B6N d   1       0.425 -26.988 -14.865  0.00  0.00     0.089 H 
ATOM     27  FAA B6N d   1       0.219 -24.449 -14.285  0.00  0.00    -0.206 F 
ATOM     28  CAG B6N d   1       1.039 -25.075 -12.139  0.00  0.00    -0.043 A 
ATOM     29  CAF B6N d   1       1.486 -26.064 -11.270  0.00  0.00    -0.053 A 
ATOM     30  H2  B6N d   1       0.988 -24.044 -11.807  0.00  0.00     0.088 H 
ATOM     31  H3  B6N d   1       1.776 -25.802 -10.259  0.00  0.00     0.087 H 
BRANCH  23  32
ATOM     32  CBB B6N d   1       1.223 -29.040 -13.470  0.00  0.00     0.419 C 
ATOM     33  FBC B6N d   1       0.338 -29.792 -12.826  0.00  0.00    -0.166 F 
ATOM     34  FBD B6N d   1       0.920 -29.045 -14.755  0.00  0.00    -0.166 F 
ATOM     35  FBE B6N d   1       2.438 -29.547 -13.308  0.00  0.00    -0.166 F 
ENDBRANCH  23  32
ENDBRANCH   1  22
BRANCH  15  36
ATOM     36  CAW B6N d   1       5.426 -25.673 -13.812  0.00  0.00     0.010 A 
ATOM     37  CAX B6N d   1       4.300 -25.238 -14.354  0.00  0.00     0.034 A 
ATOM     38  NAY B6N d   1       4.654 -24.264 -15.195  0.00  0.00    -0.187 NA
ATOM     39  H10 B6N d   1       3.292 -25.600 -14.155  0.00  0.00     0.118 H 
ATOM     40  NAZ B6N d   1       5.892 -24.110 -15.167  0.00  0.00    -0.289 N 
ATOM     41  CBA B6N d   1       6.435 -24.974 -14.308  0.00  0.00     0.008 A 
ATOM     42  H11 B6N d   1       6.416 -23.419 -15.723  0.00  0.00     0.188 HD
ATOM     43  H12 B6N d   1       7.491 -25.082 -14.065  0.00  0.00     0.115 H 
ENDBRANCH  15  36
TORSDOF 3
