REMARK  12 active torsions:
REMARK  status: ('A' for Active; 'I' for Inactive)
REMARK    1  A    between atoms: C1_1  and  C2_2 
REMARK    2  A    between atoms: C2_2  and  C3_3 
REMARK    3  A    between atoms: C4_4  and  C5_5 
REMARK    4  A    between atoms: C5_5  and  C6_6 
REMARK    5  A    between atoms: C6_6  and  C7_7 
REMARK    6  A    between atoms: C7_7  and  C8_8 
REMARK    7  A    between atoms: C9_9  and  C10_10 
REMARK    8  A    between atoms: C10_10  and  C11_11 
REMARK    9  A    between atoms: C11_11  and  C12_12 
REMARK   10  A    between atoms: C12_12  and  C13_13 
REMARK   11  A    between atoms: C14_14  and  C15_15 
REMARK   12  A    between atoms: C15_15  and  O1_16 
ROOT
ATOM      1  C7  FOH d   1      77.390 395.725 118.280  0.00  0.00    -0.087 C 
ATOM      2  C9  FOH d   1      77.922 396.938 118.492  0.00  0.00    -0.101 C 
ATOM      3  H15 FOH d   1      79.007 397.022 118.542  0.00  0.00     0.077 H 
ENDROOT
BRANCH   1   4
ATOM      4  C6  FOH d   1      78.258 394.512 118.142  0.00  0.00    -0.042 C 
ATOM      5  H10 FOH d   1      78.949 394.634 117.295  0.00  0.00     0.040 H 
ATOM      6  H11 FOH d   1      78.835 394.351 119.065  0.00  0.00     0.040 H 
BRANCH   4   7
ATOM      7  C5  FOH d   1      77.310 393.317 117.890  0.00  0.00    -0.046 C 
ATOM      8  H8  FOH d   1      76.636 393.204 118.752  0.00  0.00     0.039 H 
ATOM      9  H9  FOH d   1      76.717 393.513 116.985  0.00  0.00     0.039 H 
BRANCH   7  10
ATOM     10  C4  FOH d   1      78.084 392.045 117.703  0.00  0.00    -0.101 C 
ATOM     11  C2  FOH d   1      77.449 390.883 117.918  0.00  0.00    -0.091 C 
ATOM     12  H7  FOH d   1      79.130 392.065 117.402  0.00  0.00     0.077 H 
BRANCH  11  13
ATOM     13  C1  FOH d   1      78.044 389.560 117.475  0.00  0.00    -0.055 C 
ATOM     14  H1  FOH d   1      77.362 388.741 117.749  0.00  0.00     0.033 H 
ATOM     15  H2  FOH d   1      79.014 389.410 117.971  0.00  0.00     0.033 H 
ATOM     16  H3  FOH d   1      78.187 389.569 116.384  0.00  0.00     0.033 H 
ENDBRANCH  11  13
BRANCH  11  17
ATOM     17  C3  FOH d   1      75.989 390.947 118.188  0.00  0.00    -0.055 C 
ATOM     18  H4  FOH d   1      75.718 391.967 118.497  0.00  0.00     0.033 H 
ATOM     19  H5  FOH d   1      75.733 390.240 118.991  0.00  0.00     0.033 H 
ATOM     20  H6  FOH d   1      75.435 390.681 117.275  0.00  0.00     0.033 H 
ENDBRANCH  11  17
ENDBRANCH   7  10
ENDBRANCH   4   7
ENDBRANCH   1   4
BRANCH   1  21
ATOM     21  C8  FOH d   1      75.925 395.474 118.355  0.00  0.00    -0.055 C 
ATOM     22  H12 FOH d   1      75.394 396.432 118.454  0.00  0.00     0.033 H 
ATOM     23  H13 FOH d   1      75.706 394.841 119.227  0.00  0.00     0.033 H 
ATOM     24  H14 FOH d   1      75.593 394.964 117.439  0.00  0.00     0.033 H 
ENDBRANCH   1  21
BRANCH   2  25
ATOM     25  C10 FOH d   1      77.106 398.184 118.664  0.00  0.00    -0.046 C 
ATOM     26  H16 FOH d   1      76.472 398.079 119.557  0.00  0.00     0.039 H 
ATOM     27  H17 FOH d   1      76.471 398.324 117.777  0.00  0.00     0.039 H 
BRANCH  25  28
ATOM     28  C11 FOH d   1      78.043 399.455 118.838  0.00  0.00    -0.042 C 
ATOM     29  H18 FOH d   1      78.780 399.475 118.022  0.00  0.00     0.040 H 
ATOM     30  H19 FOH d   1      78.566 399.389 119.803  0.00  0.00     0.040 H 
BRANCH  28  31
ATOM     31  C12 FOH d   1      77.225 400.726 118.801  0.00  0.00    -0.085 C 
ATOM     32  C14 FOH d   1      77.715 401.941 119.149  0.00  0.00    -0.079 C 
ATOM     33  H23 FOH d   1      78.719 402.023 119.564  0.00  0.00     0.080 H 
BRANCH  31  34
ATOM     34  C13 FOH d   1      75.914 400.601 118.140  0.00  0.00    -0.055 C 
ATOM     35  H20 FOH d   1      75.397 401.572 118.163  0.00  0.00     0.033 H 
ATOM     36  H21 FOH d   1      75.307 399.850 118.668  0.00  0.00     0.033 H 
ATOM     37  H22 FOH d   1      76.058 400.288 117.096  0.00  0.00     0.033 H 
ENDBRANCH  31  34
BRANCH  32  38
ATOM     38  C15 FOH d   1      76.862 403.197 118.961  0.00  0.00     0.032 C 
ATOM     39  H24 FOH d   1      75.969 403.130 119.600  0.00  0.00     0.080 H 
ATOM     40  H25 FOH d   1      76.554 403.274 117.908  0.00  0.00     0.080 H 
BRANCH  38  41
ATOM     41  O1  FOH d   1      77.618 404.364 119.321  0.00  0.00    -0.397 OA
ATOM     42  H26 FOH d   1      77.080 405.138 119.201  0.00  0.00     0.209 HD
ENDBRANCH  38  41
ENDBRANCH  32  38
ENDBRANCH  28  31
ENDBRANCH  25  28
ENDBRANCH   2  25
TORSDOF 12
