REMARK  5 active torsions:
REMARK  status: ('A' for Active; 'I' for Inactive)
REMARK    1  A    between atoms: O2_18  and  C1_1 
REMARK    2  A    between atoms: C3_2  and  O2_18 
REMARK    3  A    between atoms: C9_5  and  C11_6 
REMARK    4  A    between atoms: C25_25  and  C16_11 
REMARK    5  A    between atoms: C22_14  and  N24_24 
ROOT
ATOM      1  C3  B7E d   1     -16.209 -34.972 -11.018  0.00  0.00     0.041 C 
ATOM      2  C7  B7E d   1     -17.633 -37.346  -9.813  0.00  0.00    -0.004 C 
ATOM      3  C8  B7E d   1     -16.519 -37.499 -10.874  0.00  0.00    -0.050 C 
ATOM      4  C9  B7E d   1     -16.357 -36.283 -11.817  0.00  0.00    -0.032 C 
ATOM      5  C12 B7E d   1     -19.041 -37.458 -10.472  0.00  0.00    -0.031 C 
ATOM      6  C13 B7E d   1     -19.942 -38.022  -9.381  0.00  0.00    -0.048 A 
ATOM      7  C14 B7E d   1     -21.336 -37.996  -9.254  0.00  0.00    -0.075 A 
ATOM      8  C15 B7E d   1     -21.955 -38.592  -8.158  0.00  0.00    -0.072 A 
ATOM      9  C16 B7E d   1     -21.174 -39.204  -7.155  0.00  0.00    -0.022 A 
ATOM     10  C19 B7E d   1     -17.697 -38.528  -8.797  0.00  0.00     0.091 C 
ATOM     11  C20 B7E d   1     -17.181 -39.907  -9.288  0.00  0.00     0.057 C 
ATOM     12  C22 B7E d   1     -16.246 -39.373  -7.291  0.00  0.00     0.213 C 
ATOM     13  N23 B7E d   1     -16.879 -38.291  -7.599  0.00  0.00    -0.340 N 
ATOM     14  C5  B7E d   1     -17.383 -34.771 -10.036  0.00  0.00    -0.040 C 
ATOM     15  C6  B7E d   1     -17.524 -35.980  -9.088  0.00  0.00    -0.053 C 
ATOM     16  C17 B7E d   1     -19.771 -39.238  -7.300  0.00  0.00    -0.063 A 
ATOM     17  C18 B7E d   1     -19.155 -38.651  -8.408  0.00  0.00    -0.020 A 
ATOM     18  O21 B7E d   1     -16.459 -40.400  -8.129  0.00  0.00    -0.320 OA
ATOM     19  H4  B7E d   1     -15.268 -35.010 -10.450  0.00  0.00     0.083 H 
ATOM     20  H5  B7E d   1     -16.749 -38.382 -11.489  0.00  0.00     0.035 H 
ATOM     21  H6  B7E d   1     -15.565 -37.656 -10.350  0.00  0.00     0.035 H 
ATOM     22  H7  B7E d   1     -17.250 -36.203 -12.454  0.00  0.00     0.043 H 
ATOM     23  H11 B7E d   1     -19.010 -38.136 -11.337  0.00  0.00     0.041 H 
ATOM     24  H12 B7E d   1     -19.397 -36.468 -10.794  0.00  0.00     0.041 H 
ATOM     25  H13 B7E d   1     -21.937 -37.509 -10.013  0.00  0.00     0.084 H 
ATOM     26  H14 B7E d   1     -23.036 -38.586  -8.076  0.00  0.00     0.084 H 
ATOM     27  H15 B7E d   1     -16.514 -39.796 -10.155  0.00  0.00     0.079 H 
ATOM     28  H16 B7E d   1     -18.015 -40.574  -9.550  0.00  0.00     0.079 H 
ATOM     29  H17 B7E d   1     -16.820 -37.400  -7.085  0.00  0.00     0.164 HD
ATOM     30  H19 B7E d   1     -18.315 -34.652 -10.609  0.00  0.00     0.036 H 
ATOM     31  H20 B7E d   1     -17.202 -33.865  -9.439  0.00  0.00     0.036 H 
ATOM     32  H21 B7E d   1     -16.642 -36.008  -8.431  0.00  0.00     0.034 H 
ATOM     33  H22 B7E d   1     -18.430 -35.838  -8.481  0.00  0.00     0.034 H 
ATOM     34  H23 B7E d   1     -19.165 -39.724  -6.544  0.00  0.00     0.085 H 
ENDROOT
BRANCH   4  35
ATOM     35  C11 B7E d   1     -15.125 -36.528 -12.707  0.00  0.00    -0.070 C 
ATOM     36  H8  B7E d   1     -14.989 -35.675 -13.388  0.00  0.00     0.028 H 
ATOM     37  H9  B7E d   1     -15.274 -37.446 -13.295  0.00  0.00     0.028 H 
ATOM     38  H10 B7E d   1     -14.232 -36.638 -12.075  0.00  0.00     0.028 H 
ENDBRANCH   4  35
BRANCH   1  39
ATOM     39  O2  B7E d   1     -16.182 -33.841 -11.916  0.00  0.00    -0.390 OA
BRANCH  39  40
ATOM     40  C1  B7E d   1     -15.156 -32.861 -11.681  0.00  0.00     0.004 C 
ATOM     41  H1  B7E d   1     -15.241 -32.056 -12.425  0.00  0.00     0.066 H 
ATOM     42  H2  B7E d   1     -14.168 -33.337 -11.767  0.00  0.00     0.066 H 
ATOM     43  H3  B7E d   1     -15.275 -32.441 -10.671  0.00  0.00     0.066 H 
ENDBRANCH  39  40
ENDBRANCH   1  39
BRANCH  12  44
ATOM     44  N24 B7E d   1     -15.424 -39.447  -6.201  0.00  0.00    -0.365 N 
ATOM     45  H24 B7E d   1     -14.934 -40.327  -5.984  0.00  0.00     0.159 HD
ATOM     46  H25 B7E d   1     -15.295 -38.623  -5.596  0.00  0.00     0.159 HD
ENDBRANCH  12  44
BRANCH   9  47
ATOM     47  C25 B7E d   1     -21.808 -39.917  -6.006  0.00  0.00     0.009 A 
ATOM     48  C30 B7E d   1     -23.008 -40.643  -6.154  0.00  0.00     0.015 A 
ATOM     49  N29 B7E d   1     -23.489 -41.326  -5.116  0.00  0.00    -0.253 NA
ATOM     50  H18 B7E d   1     -23.533 -40.645  -7.102  0.00  0.00     0.116 H 
ATOM     51  C28 B7E d   1     -22.851 -41.365  -3.952  0.00  0.00     0.086 A 
ATOM     52  N27 B7E d   1     -21.697 -40.735  -3.777  0.00  0.00    -0.253 NA
ATOM     53  H27 B7E d   1     -23.282 -41.923  -3.128  0.00  0.00     0.146 H 
ATOM     54  C26 B7E d   1     -21.162 -40.018  -4.759  0.00  0.00     0.015 A 
ATOM     55  H26 B7E d   1     -20.220 -39.506  -4.599  0.00  0.00     0.116 H 
ENDBRANCH   9  47
TORSDOF 5
