REMARK  5 active torsions:
REMARK  status: ('A' for Active; 'I' for Inactive)
REMARK    1  A    between atoms: C7_4  and  C8_5 
REMARK    2  A    between atoms: C11_8  and  C22_17 
REMARK    3  A    between atoms: C12_9  and  N26_19 
REMARK    4  A    between atoms: C19_14  and  O28_20 
REMARK    5  A    between atoms: O28_20  and  C23_26 
ROOT
ATOM      1  C1  B7T d   1     -21.725 -39.400  -8.257  0.00  0.00    -0.072 A 
ATOM      2  C2  B7T d   1     -21.171 -38.688  -9.304  0.00  0.00    -0.075 A 
ATOM      3  C3  B7T d   1     -19.573 -40.113  -7.539  0.00  0.00    -0.063 A 
ATOM      4  C7  B7T d   1     -20.945 -40.118  -7.361  0.00  0.00    -0.024 A 
ATOM      5  C9  B7T d   1     -19.804 -38.709  -9.465  0.00  0.00    -0.048 A 
ATOM      6  C10 B7T d   1     -19.016 -39.411  -8.594  0.00  0.00    -0.020 A 
ATOM      7  C12 B7T d   1     -16.028 -40.075  -7.556  0.00  0.00     0.213 C 
ATOM      8  C13 B7T d   1     -19.005 -38.034 -10.517  0.00  0.00    -0.031 C 
ATOM      9  C14 B7T d   1     -16.222 -37.015 -11.926  0.00  0.00    -0.040 C 
ATOM     10  C15 B7T d   1     -17.069 -35.552 -10.041  0.00  0.00    -0.040 C 
ATOM     11  C16 B7T d   1     -16.538 -38.263 -11.095  0.00  0.00    -0.053 C 
ATOM     12  C19 B7T d   1     -15.965 -35.772 -11.071  0.00  0.00     0.038 C 
ATOM     13  C20 B7T d   1     -17.565 -39.288  -8.951  0.00  0.00     0.091 C 
ATOM     14  C21 B7T d   1     -17.570 -38.100  -9.956  0.00  0.00    -0.004 C 
ATOM     15  N25 B7T d   1     -16.745 -39.020  -7.767  0.00  0.00    -0.340 N 
ATOM     16  C17 B7T d   1     -17.284 -36.794  -9.185  0.00  0.00    -0.053 C 
ATOM     17  C18 B7T d   1     -17.053 -40.642  -9.457  0.00  0.00     0.057 C 
ATOM     18  O27 B7T d   1     -16.173 -41.116  -8.431  0.00  0.00    -0.320 OA
ATOM     19  H1  B7T d   1     -22.802 -39.398  -8.132  0.00  0.00     0.084 H 
ATOM     20  H2  B7T d   1     -21.800 -38.125  -9.984  0.00  0.00     0.084 H 
ATOM     21  H3  B7T d   1     -18.935 -40.658  -6.853  0.00  0.00     0.085 H 
ATOM     22  H4  B7T d   1     -19.329 -36.992 -10.652  0.00  0.00     0.041 H 
ATOM     23  H5  B7T d   1     -19.080 -38.569 -11.475  0.00  0.00     0.041 H 
ATOM     24  H6  B7T d   1     -17.075 -36.812 -12.591  0.00  0.00     0.036 H 
ATOM     25  H7  B7T d   1     -15.325 -37.215 -12.531  0.00  0.00     0.036 H 
ATOM     26  H8  B7T d   1     -18.006 -35.312 -10.566  0.00  0.00     0.036 H 
ATOM     27  H9  B7T d   1     -16.788 -34.712  -9.389  0.00  0.00     0.036 H 
ATOM     28  H10 B7T d   1     -15.597 -38.609 -10.644  0.00  0.00     0.034 H 
ATOM     29  H11 B7T d   1     -16.920 -39.032 -11.782  0.00  0.00     0.034 H 
ATOM     30  H12 B7T d   1     -14.992 -35.858 -10.565  0.00  0.00     0.083 H 
ATOM     31  H16 B7T d   1     -16.741 -38.155  -7.208  0.00  0.00     0.164 HD
ATOM     32  H22 B7T d   1     -18.138 -36.601  -8.519  0.00  0.00     0.034 H 
ATOM     33  H23 B7T d   1     -16.377 -36.950  -8.582  0.00  0.00     0.034 H 
ATOM     34  H24 B7T d   1     -16.509 -40.519 -10.405  0.00  0.00     0.079 H 
ATOM     35  H25 B7T d   1     -17.890 -41.342  -9.602  0.00  0.00     0.079 H 
ENDROOT
BRANCH  12  36
ATOM     36  O28 B7T d   1     -15.983 -34.655 -11.952  0.00  0.00    -0.391 OA
BRANCH  36  37
ATOM     37  C23 B7T d   1     -14.901 -33.763 -11.711  0.00  0.00     0.004 C 
ATOM     38  H26 B7T d   1     -14.958 -32.919 -12.414  0.00  0.00     0.066 H 
ATOM     39  H27 B7T d   1     -13.949 -34.295 -11.853  0.00  0.00     0.066 H 
ATOM     40  H28 B7T d   1     -14.960 -33.386 -10.680  0.00  0.00     0.066 H 
ENDBRANCH  36  37
ENDBRANCH  12  36
BRANCH   7  41
ATOM     41  N26 B7T d   1     -15.119 -40.257  -6.531  0.00  0.00    -0.365 N 
ATOM     42  H17 B7T d   1     -14.598 -41.142  -6.456  0.00  0.00     0.159 HD
ATOM     43  H18 B7T d   1     -14.962 -39.507  -5.842  0.00  0.00     0.159 HD
ENDBRANCH   7  41
BRANCH   4  44
ATOM     44  C8  B7T d   1     -21.531 -40.923  -6.304  0.00  0.00    -0.008 A 
ATOM     45  C4  B7T d   1     -20.897 -41.130  -5.091  0.00  0.00    -0.064 A 
ATOM     46  C11 B7T d   1     -21.416 -42.016  -4.168  0.00  0.00    -0.044 A 
ATOM     47  H19 B7T d   1     -19.984 -40.591  -4.864  0.00  0.00     0.085 H 
ATOM     48  C6  B7T d   1     -22.605 -42.645  -4.471  0.00  0.00     0.007 A 
ATOM     49  N24 B7T d   1     -23.275 -42.459  -5.614  0.00  0.00    -0.272 NA
ATOM     50  H21 B7T d   1     -23.021 -43.330  -3.741  0.00  0.00     0.115 H 
ATOM     51  C5  B7T d   1     -22.706 -41.628  -6.500  0.00  0.00     0.013 A 
ATOM     52  H20 B7T d   1     -23.209 -41.497  -7.451  0.00  0.00     0.116 H 
BRANCH  46  53
ATOM     53  C22 B7T d   1     -20.732 -42.277  -2.874  0.00  0.00    -0.050 C 
ATOM     54  H13 B7T d   1     -19.806 -41.685  -2.822  0.00  0.00     0.033 H 
ATOM     55  H14 B7T d   1     -20.488 -43.347  -2.798  0.00  0.00     0.033 H 
ATOM     56  H15 B7T d   1     -21.396 -41.992  -2.044  0.00  0.00     0.033 H 
ENDBRANCH  46  53
ENDBRANCH   4  44
TORSDOF 5
