REMARK  13 active torsions:
REMARK  status: ('A' for Active; 'I' for Inactive)
REMARK    1  A    between atoms: C15_3  and  O3_4 
REMARK    2  A    between atoms: O3_4  and  C20_5 
REMARK    3  A    between atoms: C17_6  and  O2_7 
REMARK    4  A    between atoms: O2_7  and  C19_8 
REMARK    5  A    between atoms: C16_9  and  O1_10 
REMARK    6  A    between atoms: O1_10  and  C18_11 
REMARK    7  A    between atoms: C12_13  and  C6_14 
REMARK    8  A    between atoms: C6_14  and  C5_15 
REMARK    9  A    between atoms: C3_18  and  N5_19 
REMARK   10  A    between atoms: N4_24  and  C7_25 
REMARK   11  A    between atoms: C7_25  and  C8_26 
REMARK   12  A    between atoms: C8_26  and  C9_27 
REMARK   13  A    between atoms: C9_27  and  C10_28 
ROOT
ATOM      1  C10 PU1 d   1       4.335  38.065  25.712  0.00  0.00    -0.117 C 
ATOM      2  C11 PU1 d   1       5.410  38.033  26.200  0.00  0.00    -0.154 C 
ATOM      3  H21 PU1 d   1       6.371  38.004  26.636  0.00  0.00     0.166 H 
ENDROOT
BRANCH   1   4
ATOM      4  C9  PU1 d   1       2.962  38.133  25.154  0.00  0.00    -0.009 C 
ATOM      5  H19 PU1 d   1       2.317  37.458  25.736  0.00  0.00     0.051 H 
ATOM      6  H20 PU1 d   1       2.597  39.166  25.255  0.00  0.00     0.051 H 
BRANCH   4   7
ATOM      7  C8  PU1 d   1       2.875  37.733  23.681  0.00  0.00    -0.040 C 
ATOM      8  H17 PU1 d   1       1.933  38.119  23.265  0.00  0.00     0.036 H 
ATOM      9  H18 PU1 d   1       3.724  38.180  23.143  0.00  0.00     0.036 H 
BRANCH   7  10
ATOM     10  C7  PU1 d   1       2.914  36.209  23.486  0.00  0.00     0.004 C 
ATOM     11  H15 PU1 d   1       2.911  35.986  22.409  0.00  0.00     0.065 H 
ATOM     12  H16 PU1 d   1       3.835  35.814  23.939  0.00  0.00     0.065 H 
BRANCH  10  13
ATOM     13  N4  PU1 d   1       1.750  35.552  24.115  0.00  0.00    -0.317 N 
ATOM     14  C5  PU1 d   1       1.668  34.876  25.298  0.00  0.00     0.113 A 
ATOM     15  N3  PU1 d   1       0.450  34.499  25.527  0.00  0.00    -0.227 NA
ATOM     16  C2  PU1 d   1      -0.326  34.851  24.494  0.00  0.00     0.150 A 
ATOM     17  C3  PU1 d   1      -1.680  34.686  24.192  0.00  0.00     0.159 A 
ATOM     18  C1  PU1 d   1       0.498  35.524  23.586  0.00  0.00     0.168 A 
ATOM     19  N2  PU1 d   1      -2.111  35.144  23.010  0.00  0.00    -0.183 NA
ATOM     20  C4  PU1 d   1      -1.261  35.739  22.170  0.00  0.00     0.313 A 
ATOM     21  N1  PU1 d   1      -0.011  35.971  22.459  0.00  0.00    -0.182 NA
ATOM     22  F   PU1 d   1      -1.656  36.195  20.981  0.00  0.00    -0.161 F 
BRANCH  14  23
ATOM     23  C6  PU1 d   1       2.805  34.573  26.249  0.00  0.00     0.016 C 
ATOM     24  H11 PU1 d   1       3.195  35.519  26.652  0.00  0.00     0.051 H 
ATOM     25  H12 PU1 d   1       2.425  33.952  27.074  0.00  0.00     0.051 H 
BRANCH  23  26
ATOM     26  C12 PU1 d   1       3.934  33.831  25.554  0.00  0.00    -0.024 A 
ATOM     27  C13 PU1 d   1       3.778  32.597  24.889  0.00  0.00     0.077 A 
ATOM     28 CL   PU1 d   1       2.239  31.781  24.812  0.00  0.00    -0.081 Cl
ATOM     29  C15 PU1 d   1       4.899  31.951  24.332  0.00  0.00     0.126 A 
ATOM     30  C17 PU1 d   1       6.151  32.579  24.359  0.00  0.00     0.136 A 
ATOM     31  C16 PU1 d   1       6.311  33.785  25.045  0.00  0.00     0.104 A 
ATOM     32  C14 PU1 d   1       5.196  34.413  25.619  0.00  0.00    -0.040 A 
ATOM     33  H10 PU1 d   1       5.319  35.366  26.121  0.00  0.00     0.088 H 
BRANCH  29  34
ATOM     34  O3  PU1 d   1       4.738  30.856  23.523  0.00  0.00    -0.351 OA
BRANCH  34  35
ATOM     35  C20 PU1 d   1       4.874  29.538  24.000  0.00  0.00     0.011 C 
ATOM     36  H1  PU1 d   1       4.702  28.830  23.176  0.00  0.00     0.067 H 
ATOM     37  H2  PU1 d   1       4.138  29.359  24.797  0.00  0.00     0.067 H 
ATOM     38  H3  PU1 d   1       5.889  29.395  24.399  0.00  0.00     0.067 H 
ENDBRANCH  34  35
ENDBRANCH  29  34
BRANCH  30  39
ATOM     39  O2  PU1 d   1       7.263  31.961  23.848  0.00  0.00    -0.351 OA
BRANCH  39  40
ATOM     40  C19 PU1 d   1       7.494  31.883  22.434  0.00  0.00     0.011 C 
ATOM     41  H4  PU1 d   1       8.437  31.349  22.245  0.00  0.00     0.067 H 
ATOM     42  H5  PU1 d   1       7.558  32.899  22.016  0.00  0.00     0.067 H 
ATOM     43  H6  PU1 d   1       6.664  31.341  21.956  0.00  0.00     0.067 H 
ENDBRANCH  39  40
ENDBRANCH  30  39
BRANCH  31  44
ATOM     44  O1  PU1 d   1       7.570  34.315  25.128  0.00  0.00    -0.353 OA
BRANCH  44  45
ATOM     45  C18 PU1 d   1       7.796  35.449  25.982  0.00  0.00     0.010 C 
ATOM     46  H7  PU1 d   1       8.855  35.743  25.929  0.00  0.00     0.066 H 
ATOM     47  H8  PU1 d   1       7.540  35.184  27.019  0.00  0.00     0.066 H 
ATOM     48  H9  PU1 d   1       7.166  36.288  25.652  0.00  0.00     0.066 H 
ENDBRANCH  44  45
ENDBRANCH  31  44
ENDBRANCH  23  26
ENDBRANCH  14  23
BRANCH  17  49
ATOM     49  N5  PU1 d   1      -2.532  34.106  25.111  0.00  0.00    -0.382 N 
ATOM     50  H13 PU1 d   1      -3.530  33.986  24.884  0.00  0.00     0.157 HD
ATOM     51  H14 PU1 d   1      -2.170  33.793  26.023  0.00  0.00     0.157 HD
ENDBRANCH  17  49
ENDBRANCH  10  13
ENDBRANCH   7  10
ENDBRANCH   4   7
ENDBRANCH   1   4
TORSDOF 13
