REMARK  7 active torsions:
REMARK  status: ('A' for Active; 'I' for Inactive)
REMARK    1  A    between atoms: C3_3  and  C6_6 
REMARK    2  A    between atoms: C4_4  and  C7_7 
REMARK    3  A    between atoms: C5_5  and  C8_8 
REMARK    4  A    between atoms: C14_11  and  O33_21 
REMARK    5  A    between atoms: C21_14  and  O30_20 
REMARK    6  A    between atoms: C23_16  and  O29_19 
REMARK    7  A    between atoms: O33_21  and  C34_22 
ROOT
ATOM      1  N1  P4A d   1      63.443  36.048  22.157  0.00  0.00    -0.178 NA
ATOM      2  N2  P4A d   1      63.222  34.992  23.044  0.00  0.00    -0.276 N 
ATOM      3  C3  P4A d   1      64.030  35.152  24.084  0.00  0.00     0.076 A 
ATOM      4  C4  P4A d   1      64.757  36.378  23.904  0.00  0.00     0.029 A 
ATOM      5  C5  P4A d   1      64.364  36.889  22.689  0.00  0.00     0.064 A 
ATOM      6  H1  P4A d   1      62.549  34.223  22.913  0.00  0.00     0.189 HD
ENDROOT
BRANCH   4   7
ATOM      7  C7  P4A d   1      65.735  36.984  24.871  0.00  0.00    -0.021 A 
ATOM      8  C12 P4A d   1      67.107  37.039  24.533  0.00  0.00    -0.070 A 
ATOM      9  C13 P4A d   1      68.028  37.592  25.416  0.00  0.00    -0.050 A 
ATOM     10  H5  P4A d   1      67.443  36.648  23.580  0.00  0.00     0.085 H 
ATOM     11  C14 P4A d   1      67.626  38.063  26.674  0.00  0.00     0.068 A 
ATOM     12  H6  P4A d   1      69.071  37.660  25.128  0.00  0.00     0.087 H 
ATOM     13  C15 P4A d   1      66.264  37.992  27.034  0.00  0.00    -0.050 A 
ATOM     14  C16 P4A d   1      65.329  37.428  26.151  0.00  0.00    -0.070 A 
ATOM     15  H7  P4A d   1      65.938  38.374  27.995  0.00  0.00     0.087 H 
ATOM     16  H8  P4A d   1      64.292  37.333  26.452  0.00  0.00     0.085 H 
BRANCH  11  17
ATOM     17  O33 P4A d   1      68.605  38.609  27.471  0.00  0.00    -0.356 OA
BRANCH  17  18
ATOM     18  C34 P4A d   1      68.302  39.196  28.743  0.00  0.00     0.010 C 
ATOM     19  H14 P4A d   1      69.228  39.567  29.205  0.00  0.00     0.066 H 
ATOM     20  H15 P4A d   1      67.844  38.439  29.396  0.00  0.00     0.066 H 
ATOM     21  H16 P4A d   1      67.601  40.032  28.603  0.00  0.00     0.066 H 
ENDBRANCH  17  18
ENDBRANCH  11  17
ENDBRANCH   4   7
BRANCH   3  22
ATOM     22  C6  P4A d   1      64.086  34.276  25.283  0.00  0.00     0.026 A 
ATOM     23  C21 P4A d   1      62.882  33.868  25.913  0.00  0.00     0.081 A 
ATOM     24  C22 P4A d   1      62.920  33.099  27.078  0.00  0.00    -0.018 A 
ATOM     25  C23 P4A d   1      64.162  32.686  27.581  0.00  0.00     0.068 A 
ATOM     26  H9  P4A d   1      62.002  32.825  27.586  0.00  0.00     0.092 H 
ATOM     27  C24 P4A d   1      65.359  33.071  26.948  0.00  0.00    -0.050 A 
ATOM     28  C25 P4A d   1      65.328  33.852  25.806  0.00  0.00    -0.065 A 
ATOM     29  H10 P4A d   1      66.311  32.754  27.358  0.00  0.00     0.087 H 
ATOM     30  H11 P4A d   1      66.252  34.137  25.315  0.00  0.00     0.085 H 
BRANCH  23  31
ATOM     31  O30 P4A d   1      61.683  34.238  25.398  0.00  0.00    -0.360 OA
ATOM     32  H13 P4A d   1      61.178  33.462  25.184  0.00  0.00     0.217 HD
ENDBRANCH  23  31
BRANCH  25  33
ATOM     33  O29 P4A d   1      64.233  31.945  28.714  0.00  0.00    -0.361 OA
ATOM     34  H12 P4A d   1      63.355  31.762  29.027  0.00  0.00     0.217 HD
ENDBRANCH  25  33
ENDBRANCH   3  22
BRANCH   5  35
ATOM     35  C8  P4A d   1      64.847  38.153  22.017  0.00  0.00    -0.033 C 
ATOM     36  H2  P4A d   1      65.591  38.648  22.659  0.00  0.00     0.035 H 
ATOM     37  H3  P4A d   1      63.995  38.830  21.853  0.00  0.00     0.035 H 
ATOM     38  H4  P4A d   1      65.307  37.901  21.050  0.00  0.00     0.035 H 
ENDBRANCH   5  35
TORSDOF 7
