REMARK  7 active torsions:
REMARK  status: ('A' for Active; 'I' for Inactive)
REMARK    1  A    between atoms: C1_1  and  O7_16 
REMARK    2  A    between atoms: C3_3  and  O8_17 
REMARK    3  A    between atoms: C9_4  and  C10_5 
REMARK    4  A    between atoms: C6_15  and  C9_4 
REMARK    5  A    between atoms: C11_6  and  C4_13 
REMARK    6  A    between atoms: C14_7  and  C23_23 
REMARK    7  A    between atoms: C16_9  and  C15_8 
ROOT
ATOM      1  C11 BAW d   1      64.411  34.963  24.015  0.00  0.00     0.076 A 
ATOM      2  C14 BAW d   1      64.698  36.709  22.617  0.00  0.00     0.064 A 
ATOM      3  C15 BAW d   1      65.049  36.233  23.865  0.00  0.00     0.032 A 
ATOM      4  N12 BAW d   1      63.634  34.763  22.981  0.00  0.00    -0.276 N 
ATOM      5  N13 BAW d   1      63.784  35.855  22.101  0.00  0.00    -0.178 NA
ATOM      6  H13 BAW d   1      63.020  33.949  22.835  0.00  0.00     0.189 HD
ENDROOT
BRANCH   1   7
ATOM      7  C4  BAW d   1      64.509  34.059  25.172  0.00  0.00     0.027 A 
ATOM      8  C3  BAW d   1      63.354  33.699  25.868  0.00  0.00     0.081 A 
ATOM      9  C2  BAW d   1      63.436  32.866  26.973  0.00  0.00    -0.018 A 
ATOM     10  C1  BAW d   1      64.663  32.349  27.372  0.00  0.00     0.074 A 
ATOM     11  H1  BAW d   1      62.539  32.617  27.528  0.00  0.00     0.092 H 
ATOM     12  C6  BAW d   1      65.816  32.644  26.637  0.00  0.00    -0.024 A 
ATOM     13  C5  BAW d   1      65.749  33.538  25.558  0.00  0.00    -0.059 A 
ATOM     14  H10 BAW d   1      66.650  33.823  25.028  0.00  0.00     0.086 H 
BRANCH   8  15
ATOM     15  O8  BAW d   1      62.137  34.181  25.506  0.00  0.00    -0.360 OA
ATOM     16  H12 BAW d   1      61.473  33.831  26.088  0.00  0.00     0.217 HD
ENDBRANCH   8  15
BRANCH  10  17
ATOM     17  O7  BAW d   1      64.676  31.531  28.457  0.00  0.00    -0.360 OA
ATOM     18  H11 BAW d   1      63.797  31.462  28.810  0.00  0.00     0.217 HD
ENDBRANCH  10  17
BRANCH  12  19
ATOM     19  C9  BAW d   1      67.164  32.054  26.933  0.00  0.00    -0.042 C 
ATOM     20  H2  BAW d   1      67.951  32.756  26.621  0.00  0.00     0.039 H 
ATOM     21  H3  BAW d   1      67.253  31.859  28.012  0.00  0.00     0.039 H 
BRANCH  19  22
ATOM     22  C10 BAW d   1      67.310  30.727  26.151  0.00  0.00    -0.073 C 
ATOM     23  H4  BAW d   1      68.295  30.285  26.360  0.00  0.00     0.028 H 
ATOM     24  H5  BAW d   1      67.218  30.925  25.073  0.00  0.00     0.028 H 
ATOM     25  H6  BAW d   1      66.520  30.028  26.464  0.00  0.00     0.028 H 
ENDBRANCH  19  22
ENDBRANCH  12  19
ENDBRANCH   1   7
BRANCH   3  26
ATOM     26  C16 BAW d   1      65.975  36.845  24.866  0.00  0.00     0.017 A 
ATOM     27  C21 BAW d   1      65.524  37.279  26.123  0.00  0.00    -0.069 A 
ATOM     28  C20 BAW d   1      66.418  37.848  27.041  0.00  0.00    -0.082 A 
ATOM     29  H9  BAW d   1      64.478  37.173  26.385  0.00  0.00     0.085 H 
ATOM     30  C19 BAW d   1      67.763  37.993  26.715  0.00  0.00    -0.080 A 
ATOM     31  H8  BAW d   1      66.060  38.177  28.010  0.00  0.00     0.083 H 
ATOM     32  C18 BAW d   1      68.209  37.598  25.455  0.00  0.00    -0.045 A 
ATOM     33  H7  BAW d   1      68.458  38.410  27.435  0.00  0.00     0.083 H 
ATOM     34  C17 BAW d   1      67.327  37.005  24.539  0.00  0.00     0.127 A 
ATOM     35  H14 BAW d   1      69.246  37.750  25.180  0.00  0.00     0.088 H 
ATOM     36  F22 BAW d   1      67.726  36.645  23.296  0.00  0.00    -0.205 F 
ENDBRANCH   3  26
BRANCH   2  37
ATOM     37  C23 BAW d   1      65.080  38.027  21.979  0.00  0.00    -0.033 C 
ATOM     38  H15 BAW d   1      64.632  38.092  20.976  0.00  0.00     0.035 H 
ATOM     39  H16 BAW d   1      66.175  38.091  21.896  0.00  0.00     0.035 H 
ATOM     40  H17 BAW d   1      64.710  38.856  22.600  0.00  0.00     0.035 H 
ENDBRANCH   2  37
TORSDOF 7
