REMARK  7 active torsions:
REMARK  status: ('A' for Active; 'I' for Inactive)
REMARK    1  A    between atoms: C21_11  and  C1_1 
REMARK    2  A    between atoms: C2_2  and  O7_19 
REMARK    3  A    between atoms: C5_17  and  C8_4 
REMARK    4  A    between atoms: N12_21  and  C13_7 
REMARK    5  A    between atoms: C28_28  and  C21_11 
REMARK    6  A    between atoms: C4_16  and  O20_25 
REMARK    7  A    between atoms: C26_27  and  C28_28 
ROOT
ATOM      1  C1  BA8 d   1       1.243  33.737  25.692  0.00  0.00    -0.024 A 
ATOM      2  C2  BA8 d   1       0.067  33.346  26.356  0.00  0.00     0.074 A 
ATOM      3  C3  BA8 d   1      -1.186  33.724  25.857  0.00  0.00    -0.018 A 
ATOM      4  C4  BA8 d   1      -1.279  34.526  24.716  0.00  0.00     0.081 A 
ATOM      5  C5  BA8 d   1      -0.109  34.922  24.033  0.00  0.00     0.026 A 
ATOM      6  C6  BA8 d   1       1.140  34.512  24.543  0.00  0.00    -0.059 A 
ATOM      7  H1  BA8 d   1      -2.088  33.393  26.358  0.00  0.00     0.092 H 
ATOM      8  H11 BA8 d   1       2.045  34.809  24.025  0.00  0.00     0.086 H 
ENDROOT
BRANCH   5   9
ATOM      9  C8  BA8 d   1      -0.111  35.830  22.852  0.00  0.00     0.073 A 
ATOM     10  C9  BA8 d   1      -0.669  35.642  21.607  0.00  0.00    -0.036 A 
ATOM     11  C10 BA8 d   1      -0.396  36.787  20.851  0.00  0.00     0.024 A 
ATOM     12  H2  BA8 d   1      -1.221  34.764  21.273  0.00  0.00     0.089 H 
ATOM     13  N11 BA8 d   1       0.289  37.628  21.581  0.00  0.00    -0.179 NA
ATOM     14  H3  BA8 d   1      -0.705  36.952  19.820  0.00  0.00     0.117 H 
ATOM     15  N12 BA8 d   1       0.457  37.084  22.866  0.00  0.00    -0.232 N 
BRANCH  15  16
ATOM     16  C13 BA8 d   1       1.091  37.690  23.987  0.00  0.00     0.080 A 
ATOM     17  C14 BA8 d   1       2.481  37.635  24.138  0.00  0.00     0.062 A 
ATOM     18  C15 BA8 d   1       3.117  38.174  25.267  0.00  0.00    -0.060 A 
ATOM     19 CL   BA8 d   1       3.413  36.897  22.881  0.00  0.00    -0.082 Cl
ATOM     20  C16 BA8 d   1       2.338  38.741  26.272  0.00  0.00    -0.081 A 
ATOM     21  H4  BA8 d   1       4.197  38.149  25.355  0.00  0.00     0.086 H 
ATOM     22  C17 BA8 d   1       0.945  38.784  26.131  0.00  0.00    -0.081 A 
ATOM     23  H5  BA8 d   1       2.808  39.148  27.160  0.00  0.00     0.083 H 
ATOM     24  C18 BA8 d   1       0.313  38.225  25.027  0.00  0.00    -0.053 A 
ATOM     25  H13 BA8 d   1       0.348  39.263  26.899  0.00  0.00     0.083 H 
ATOM     26  H14 BA8 d   1      -0.769  38.202  24.969  0.00  0.00     0.087 H 
ENDBRANCH  15  16
ENDBRANCH   5   9
BRANCH   4  27
ATOM     27  O20 BA8 d   1      -2.509  34.840  24.249  0.00  0.00    -0.360 OA
ATOM     28  H15 BA8 d   1      -3.168  34.491  24.837  0.00  0.00     0.217 HD
ENDBRANCH   4  27
BRANCH   1  29
ATOM     29  C21 BA8 d   1       2.613  33.269  26.181  0.00  0.00    -0.033 C 
ATOM     30  H6  BA8 d   1       2.486  32.396  26.838  0.00  0.00     0.040 H 
ATOM     31  H7  BA8 d   1       3.096  34.083  26.742  0.00  0.00     0.040 H 
BRANCH  29  32
ATOM     32  C28 BA8 d   1       3.496  32.881  24.989  0.00  0.00    -0.021 C 
ATOM     33  H17 BA8 d   1       3.718  33.800  24.427  0.00  0.00     0.042 H 
ATOM     34  H18 BA8 d   1       2.916  32.194  24.355  0.00  0.00     0.042 H 
BRANCH  32  35
ATOM     35  C26 BA8 d   1       4.815  32.208  25.305  0.00  0.00     0.034 A 
ATOM     36  N25 BA8 d   1       5.834  32.903  25.811  0.00  0.00    -0.266 NA
ATOM     37  C24 BA8 d   1       7.047  32.370  25.985  0.00  0.00     0.002 A 
ATOM     38  C23 BA8 d   1       7.290  31.040  25.630  0.00  0.00    -0.066 A 
ATOM     39  H9  BA8 d   1       7.846  32.972  26.403  0.00  0.00     0.114 H 
ATOM     40  C22 BA8 d   1       6.247  30.272  25.100  0.00  0.00    -0.080 A 
ATOM     41  H16 BA8 d   1       8.275  30.608  25.764  0.00  0.00     0.085 H 
ATOM     42  C27 BA8 d   1       4.994  30.881  24.909  0.00  0.00    -0.059 A 
ATOM     43  H8  BA8 d   1       6.402  29.230  24.842  0.00  0.00     0.083 H 
ATOM     44  H10 BA8 d   1       4.177  30.327  24.460  0.00  0.00     0.086 H 
ENDBRANCH  32  35
ENDBRANCH  29  32
ENDBRANCH   1  29
BRANCH   2  45
ATOM     45  O7  BA8 d   1       0.134  32.652  27.523  0.00  0.00    -0.360 OA
ATOM     46  H12 BA8 d   1      -0.253  33.169  28.220  0.00  0.00     0.217 HD
ENDBRANCH   2  45
TORSDOF 7
