REMARK  11 active torsions:
REMARK  status: ('A' for Active; 'I' for Inactive)
REMARK    1  A    between atoms: C02_2  and  C01_1 
REMARK    2  A    between atoms: C21_13  and  C02_2 
REMARK    3  A    between atoms: C02_2  and  N03_19 
REMARK    4  A    between atoms: C04_3  and  C05_4 
REMARK    5  A    between atoms: C04_3  and  C08_5 
REMARK    6  A    between atoms: N03_19  and  C04_3 
REMARK    7  A    between atoms: C13_9  and  C15_10 
REMARK       I    between atoms: N12_20  and  C13_9 
REMARK    8  A    between atoms: C15_10  and  C17_11 
REMARK    9  A    between atoms: C15_10  and  N16_21 
REMARK   10  A    between atoms: C17_11  and  C18_12 
REMARK       I    between atoms: N23_22  and  C21_13 
REMARK   11  A    between atoms: C27_17  and  C28_18 
ROOT
ATOM      1  C04 BJ2 d   1      -2.320  28.147  -3.895  0.00  0.00     0.204 C 
ATOM      2  H5  BJ2 d   1      -2.369  27.052  -3.802  0.00  0.00     0.105 H 
ENDROOT
BRANCH   1   3
ATOM      3  C05 BJ2 d   1      -0.838  28.535  -4.224  0.00  0.00     0.207 C 
ATOM      4  O06 BJ2 d   1       0.006  27.634  -4.531  0.00  0.00    -0.646 OA
ATOM      5  O07 BJ2 d   1      -0.475  29.773  -4.172  0.00  0.00    -0.646 OA
ENDBRANCH   1   3
BRANCH   1   6
ATOM      6  C08 BJ2 d   1      -3.401  28.647  -4.960  0.00  0.00     0.052 C 
ATOM      7  C09 BJ2 d   1      -4.530  27.817  -5.042  0.00  0.00    -0.042 C 
ATOM      8  C10 BJ2 d   1      -3.955  26.564  -5.785  0.00  0.00    -0.048 C 
ATOM      9  H7  BJ2 d   1      -5.335  28.292  -5.622  0.00  0.00     0.036 H 
ATOM     10  H8  BJ2 d   1      -4.906  27.552  -4.043  0.00  0.00     0.036 H 
ATOM     11  C11 BJ2 d   1      -2.988  27.223  -6.843  0.00  0.00    -0.002 C 
ATOM     12  H9  BJ2 d   1      -4.754  25.990  -6.277  0.00  0.00     0.035 H 
ATOM     13  H10 BJ2 d   1      -3.404  25.908  -5.095  0.00  0.00     0.035 H 
ATOM     14  N12 BJ2 d   1      -2.809  28.505  -6.415  0.00  0.00    -0.343 N 
ATOM     15  H11 BJ2 d   1      -3.445  27.211  -7.843  0.00  0.00     0.064 H 
ATOM     16  H12 BJ2 d   1      -2.027  26.689  -6.872  0.00  0.00     0.064 H 
ATOM     17  C13 BJ2 d   1      -2.263  29.602  -7.159  0.00  0.00     0.251 C 
ATOM     18  O14 BJ2 d   1      -2.178  30.720  -6.696  0.00  0.00    -0.271 OA
ATOM     19  H6  BJ2 d   1      -3.688  29.684  -4.732  0.00  0.00     0.076 H 
BRANCH  17  20
ATOM     20  C15 BJ2 d   1      -1.755  29.245  -8.625  0.00  0.00     0.185 C 
ATOM     21  H13 BJ2 d   1      -1.847  28.168  -8.828  0.00  0.00     0.100 H 
BRANCH  20  22
ATOM     22  C17 BJ2 d   1      -0.203  29.663  -8.664  0.00  0.00     0.050 C 
ATOM     23  H14 BJ2 d   1       0.304  29.240  -7.784  0.00  0.00     0.052 H 
ATOM     24  H15 BJ2 d   1      -0.127  30.760  -8.638  0.00  0.00     0.052 H 
BRANCH  22  25
ATOM     25  C18 BJ2 d   1       0.494  29.139  -9.948  0.00  0.00     0.175 C 
ATOM     26  O19 BJ2 d   1       1.053  29.977 -10.734  0.00  0.00    -0.648 OA
ATOM     27  O20 BJ2 d   1       0.492  27.897 -10.172  0.00  0.00    -0.648 OA
ENDBRANCH  22  25
ENDBRANCH  20  22
BRANCH  20  28
ATOM     28  N16 BJ2 d   1      -2.622  29.985  -9.537  0.00  0.00    -0.066 N 
ATOM     29  H25 BJ2 d   1      -3.570  29.655  -9.442  0.00  0.00     0.275 HD
ATOM     30  H26 BJ2 d   1      -2.311  29.844 -10.485  0.00  0.00     0.275 HD
ATOM     31  H27 BJ2 d   1      -2.584  30.967  -9.314  0.00  0.00     0.275 HD
ENDBRANCH  20  28
ENDBRANCH  17  20
ENDBRANCH   1   6
BRANCH   1  32
ATOM     32  N03 BJ2 d   1      -2.798  28.795  -2.646  0.00  0.00    -0.047 N 
ATOM     33  H23 BJ2 d   1      -2.945  29.776  -2.826  0.00  0.00     0.279 HD
ATOM     34  H24 BJ2 d   1      -3.670  28.369  -2.373  0.00  0.00     0.279 HD
BRANCH  32  35
ATOM     35  C02 BJ2 d   1      -1.822  28.654  -1.522  0.00  0.00     0.175 C 
ATOM     36  H4  BJ2 d   1      -0.826  28.999  -1.837  0.00  0.00     0.099 H 
BRANCH  35  37
ATOM     37  C01 BJ2 d   1      -2.319  29.500  -0.362  0.00  0.00    -0.041 C 
ATOM     38  H1  BJ2 d   1      -2.362  30.555  -0.670  0.00  0.00     0.030 H 
ATOM     39  H2  BJ2 d   1      -1.631  29.395   0.490  0.00  0.00     0.030 H 
ATOM     40  H3  BJ2 d   1      -3.323  29.163  -0.066  0.00  0.00     0.030 H 
ENDBRANCH  35  37
BRANCH  35  41
ATOM     41  C21 BJ2 d   1      -1.753  27.168  -1.113  0.00  0.00     0.251 C 
ATOM     42  N23 BJ2 d   1      -0.573  26.742  -0.367  0.00  0.00    -0.336 N 
ATOM     43  C24 BJ2 d   1       0.481  27.510  -0.007  0.00  0.00    -0.001 C 
ATOM     44  C27 BJ2 d   1      -0.418  25.258   0.174  0.00  0.00     0.098 C 
ATOM     45  C25 BJ2 d   1       1.556  26.506   0.547  0.00  0.00    -0.048 C 
ATOM     46  H16 BJ2 d   1       0.875  28.055  -0.877  0.00  0.00     0.064 H 
ATOM     47  H17 BJ2 d   1       0.186  28.228   0.773  0.00  0.00     0.064 H 
ATOM     48  C26 BJ2 d   1       0.713  25.258   0.963  0.00  0.00    -0.035 C 
ATOM     49  H18 BJ2 d   1       2.081  26.932   1.415  0.00  0.00     0.035 H 
ATOM     50  H19 BJ2 d   1       2.287  26.244  -0.232  0.00  0.00     0.035 H 
ATOM     51  H20 BJ2 d   1       0.434  25.327   2.025  0.00  0.00     0.036 H 
ATOM     52  H21 BJ2 d   1       1.291  24.338   0.795  0.00  0.00     0.036 H 
ATOM     53  H22 BJ2 d   1      -0.321  24.530  -0.645  0.00  0.00     0.089 H 
ATOM     54  O22 BJ2 d   1      -2.623  26.371  -1.340  0.00  0.00    -0.271 OA
BRANCH  44  55
ATOM     55  C28 BJ2 d   1      -1.674  24.983   0.997  0.00  0.00     0.196 C 
ATOM     56  O29 BJ2 d   1      -2.221  23.857   1.009  0.00  0.00    -0.646 OA
ATOM     57  O30 BJ2 d   1      -2.162  25.900   1.702  0.00  0.00    -0.646 OA
ENDBRANCH  44  55
ENDBRANCH  35  41
ENDBRANCH  32  35
ENDBRANCH   1  32
TORSDOF 11
