REMARK  8 active torsions:
REMARK  status: ('A' for Active; 'I' for Inactive)
REMARK    1  A    between atoms: C1_1  and  N_27 
REMARK    2  A    between atoms: C2_2  and  C5_5 
REMARK    3  A    between atoms: C3_3  and  O1_26 
REMARK    4  A    between atoms: S_21  and  C4_4 
REMARK    5  A    between atoms: C5_5  and  O3_23 
REMARK    6  A    between atoms: C7_13  and  C8_14 
REMARK    7  A    between atoms: C17_19  and  S_21 
REMARK    8  A    between atoms: C_24  and  O_25 
ROOT
ATOM      1  C1  BKK d   1     -17.334   7.526  -1.671  0.00  0.00     0.086 C 
ATOM      2  C2  BKK d   1     -19.354   6.350  -0.904  0.00  0.00     0.087 C 
ATOM      3  C3  BKK d   1     -18.110   8.825  -1.585  0.00  0.00     0.093 C 
ATOM      4  C4  BKK d   1     -19.587   8.489  -1.797  0.00  0.00     0.114 C 
ATOM      5  O2  BKK d   1     -20.002   7.600  -0.761  0.00  0.00    -0.362 OA
ATOM      6  C   BKK d   1     -17.889   6.553  -0.675  0.00  0.00     0.086 C 
ATOM      7  H1  BKK d   1     -17.458   7.105  -2.680  0.00  0.00     0.083 H 
ATOM      8  H2  BKK d   1     -19.510   5.957  -1.920  0.00  0.00     0.090 H 
ATOM      9  H3  BKK d   1     -17.961   9.284  -0.596  0.00  0.00     0.091 H 
ATOM     10  H4  BKK d   1     -19.672   7.975  -2.766  0.00  0.00     0.105 H 
ATOM     11  H15 BKK d   1     -17.385   5.587  -0.828  0.00  0.00     0.090 H 
ENDROOT
BRANCH   1  12
ATOM     12  N   BKK d   1     -15.916   7.764  -1.445  0.00  0.00    -0.273 N 
ATOM     13  C6  BKK d   1     -15.209   8.186  -0.382  0.00  0.00     0.025 A 
ATOM     14  C7  BKK d   1     -13.887   8.176  -0.751  0.00  0.00     0.102 A 
ATOM     15  H7  BKK d   1     -15.609   8.480   0.587  0.00  0.00     0.117 H 
ATOM     16  N2  BKK d   1     -13.799   7.718  -2.033  0.00  0.00    -0.158 NA
ATOM     17  N1  BKK d   1     -15.071   7.488  -2.467  0.00  0.00     0.005 NA
BRANCH  14  18
ATOM     18  C8  BKK d   1     -12.705   8.494   0.044  0.00  0.00     0.001 C 
ATOM     19  C10 BKK d   1     -11.488   8.694  -0.588  0.00  0.00    -0.030 C 
ATOM     20  C13 BKK d   1     -10.363   8.928   0.129  0.00  0.00     0.158 C 
ATOM     21  H8  BKK d   1     -11.436   8.663  -1.670  0.00  0.00     0.089 H 
ATOM     22  C12 BKK d   1     -10.451   8.916   1.567  0.00  0.00     0.193 C 
ATOM     23  F2  BKK d   1      -9.160   9.108  -0.456  0.00  0.00    -0.203 F 
ATOM     24  C11 BKK d   1     -11.684   8.730   2.145  0.00  0.00     0.158 C 
ATOM     25  F1  BKK d   1      -9.341   9.157   2.255  0.00  0.00    -0.200 F 
ATOM     26  C9  BKK d   1     -12.792   8.422   1.419  0.00  0.00    -0.030 C 
ATOM     27  F   BKK d   1     -11.701   8.703   3.516  0.00  0.00    -0.203 F 
ATOM     28  H11 BKK d   1     -13.715   8.129   1.906  0.00  0.00     0.089 H 
ENDBRANCH  14  18
ENDBRANCH   1  12
BRANCH   3  29
ATOM     29  O1  BKK d   1     -17.692   9.750  -2.616  0.00  0.00    -0.390 OA
ATOM     30  H17 BKK d   1     -17.813   9.348  -3.468  0.00  0.00     0.210 HD
ENDBRANCH   3  29
BRANCH   6  31
ATOM     31  O   BKK d   1     -17.628   6.970   0.652  0.00  0.00    -0.391 OA
ATOM     32  H16 BKK d   1     -16.693   7.090   0.767  0.00  0.00     0.210 HD
ENDBRANCH   6  31
BRANCH   4  33
ATOM     33  S   BKK d   1     -20.664   9.820  -1.824  0.00  0.00    -0.095 SA
BRANCH  33  34
ATOM     34  C17 BKK d   1     -21.837   8.976  -2.797  0.00  0.00     0.004 A 
ATOM     35  C18 BKK d   1     -22.597   7.854  -2.353  0.00  0.00    -0.046 A 
ATOM     36  C19 BKK d   1     -23.523   7.205  -3.189  0.00  0.00     0.035 A 
ATOM     37  H12 BKK d   1     -22.457   7.491  -1.341  0.00  0.00     0.088 H 
ATOM     38  C14 BKK d   1     -23.737   7.619  -4.500  0.00  0.00    -0.062 A 
ATOM     39 CL   BKK d   1     -24.487   5.805  -2.635  0.00  0.00    -0.084 Cl
ATOM     40  C15 BKK d   1     -22.976   8.706  -4.913  0.00  0.00    -0.080 A 
ATOM     41  H9  BKK d   1     -24.448   7.128  -5.154  0.00  0.00     0.086 H 
ATOM     42  C16 BKK d   1     -22.081   9.364  -4.122  0.00  0.00    -0.067 A 
ATOM     43  H10 BKK d   1     -23.102   9.054  -5.932  0.00  0.00     0.083 H 
ATOM     44  H13 BKK d   1     -21.542  10.212  -4.530  0.00  0.00     0.085 H 
ENDBRANCH  33  34
ENDBRANCH   4  33
BRANCH   2  45
ATOM     45  C5  BKK d   1     -19.970   5.388   0.108  0.00  0.00     0.043 C 
ATOM     46  H5  BKK d   1     -19.854   5.815   1.115  0.00  0.00     0.078 H 
ATOM     47  H6  BKK d   1     -19.435   4.428   0.052  0.00  0.00     0.078 H 
BRANCH  45  48
ATOM     48  O3  BKK d   1     -21.355   5.153  -0.131  0.00  0.00    -0.398 OA
ATOM     49  H14 BKK d   1     -21.828   5.975  -0.078  0.00  0.00     0.209 HD
ENDBRANCH  45  48
ENDBRANCH   2  45
TORSDOF 8
