REMARK  8 active torsions:
REMARK  status: ('A' for Active; 'I' for Inactive)
REMARK    1  A    between atoms: C7_29  and  C8_7 
REMARK    2  A    between atoms: C2_12  and  C5_10 
REMARK    3  A    between atoms: C5_10  and  O3_14 
REMARK    4  A    between atoms: C3_13  and  O1_26 
REMARK    5  A    between atoms: C4_15  and  S_22 
REMARK    6  A    between atoms: S_22  and  C17_20 
REMARK    7  A    between atoms: C_24  and  O_25 
REMARK    8  A    between atoms: C1_27  and  N_28 
ROOT
ATOM      1  C2  BKH d   1     -19.807   6.451  -0.943  0.00  0.00     0.087 C 
ATOM      2  C3  BKH d   1     -18.653   9.070  -1.233  0.00  0.00     0.093 C 
ATOM      3  C4  BKH d   1     -20.145   8.789  -1.394  0.00  0.00     0.114 C 
ATOM      4  O2  BKH d   1     -20.547   7.652  -0.645  0.00  0.00    -0.362 OA
ATOM      5  C   BKH d   1     -18.320   6.692  -0.713  0.00  0.00     0.086 C 
ATOM      6  C1  BKH d   1     -17.823   7.832  -1.591  0.00  0.00     0.090 C 
ATOM      7  H7  BKH d   1     -19.962   6.169  -1.995  0.00  0.00     0.090 H 
ATOM      8  H8  BKH d   1     -18.451   9.353  -0.189  0.00  0.00     0.091 H 
ATOM      9  H10 BKH d   1     -20.669   9.661  -0.975  0.00  0.00     0.105 H 
ATOM     10  H13 BKH d   1     -17.767   5.777  -0.973  0.00  0.00     0.090 H 
ATOM     11  H16 BKH d   1     -18.019   7.578  -2.643  0.00  0.00     0.084 H 
ENDROOT
BRANCH   6  12
ATOM     12  N   BKH d   1     -16.378   8.030  -1.450  0.00  0.00    -0.250 N 
ATOM     13  C6  BKH d   1     -15.671   8.367  -0.353  0.00  0.00     0.031 A 
ATOM     14  C7  BKH d   1     -14.373   8.436  -0.767  0.00  0.00     0.108 A 
ATOM     15  H4  BKH d   1     -16.054   8.546   0.650  0.00  0.00     0.118 H 
ATOM     16  N2  BKH d   1     -14.342   8.120  -2.096  0.00  0.00    -0.130 NA
ATOM     17  N1  BKH d   1     -15.562   7.878  -2.512  0.00  0.00    -0.065 NA
BRANCH  14  18
ATOM     18  C8  BKH d   1     -13.144   8.653   0.014  0.00  0.00     0.002 A 
ATOM     19  C10 BKH d   1     -11.929   8.841  -0.638  0.00  0.00    -0.030 A 
ATOM     20  C13 BKH d   1     -10.793   9.021   0.108  0.00  0.00     0.158 A 
ATOM     21  H2  BKH d   1     -11.882   8.845  -1.721  0.00  0.00     0.089 H 
ATOM     22  C12 BKH d   1     -10.816   8.966   1.483  0.00  0.00     0.193 A 
ATOM     23  F2  BKH d   1      -9.633   9.343  -0.500  0.00  0.00    -0.203 F 
ATOM     24  C11 BKH d   1     -12.018   8.746   2.115  0.00  0.00     0.158 A 
ATOM     25  F1  BKH d   1      -9.685   9.250   2.147  0.00  0.00    -0.200 F 
ATOM     26  C9  BKH d   1     -13.183   8.596   1.411  0.00  0.00    -0.030 A 
ATOM     27  F   BKH d   1     -12.041   8.667   3.481  0.00  0.00    -0.203 F 
ATOM     28  H3  BKH d   1     -14.122   8.435   1.929  0.00  0.00     0.089 H 
ENDBRANCH  14  18
ENDBRANCH   6  12
BRANCH   2  29
ATOM     29  O1  BKH d   1     -18.270  10.138  -2.099  0.00  0.00    -0.390 OA
ATOM     30  H15 BKH d   1     -18.450   9.894  -2.999  0.00  0.00     0.210 HD
ENDBRANCH   2  29
BRANCH   5  31
ATOM     31  O   BKH d   1     -18.086   7.000   0.665  0.00  0.00    -0.391 OA
ATOM     32  H14 BKH d   1     -18.374   6.273   1.204  0.00  0.00     0.210 HD
ENDBRANCH   5  31
BRANCH   3  33
ATOM     33  S   BKH d   1     -20.713   8.613  -3.099  0.00  0.00    -0.095 SA
BRANCH  33  34
ATOM     34  C17 BKH d   1     -22.448   8.494  -2.759  0.00  0.00     0.004 A 
ATOM     35  C18 BKH d   1     -22.981   7.214  -2.756  0.00  0.00    -0.044 A 
ATOM     36  C19 BKH d   1     -24.279   7.007  -2.330  0.00  0.00     0.057 A 
ATOM     37  H11 BKH d   1     -22.379   6.376  -3.088  0.00  0.00     0.088 H 
ATOM     38  C14 BKH d   1     -25.058   8.073  -1.900  0.00  0.00     0.055 A 
ATOM     39 CL1  BKH d   1     -24.878   5.393  -2.259  0.00  0.00    -0.083 Cl
ATOM     40  C15 BKH d   1     -24.534   9.357  -1.917  0.00  0.00    -0.059 A 
ATOM     41 CL   BKH d   1     -26.671   7.814  -1.310  0.00  0.00    -0.083 Cl
ATOM     42  C16 BKH d   1     -23.236   9.571  -2.359  0.00  0.00    -0.065 A 
ATOM     43  H1  BKH d   1     -25.138  10.193  -1.585  0.00  0.00     0.086 H 
ATOM     44  H12 BKH d   1     -22.835  10.577  -2.393  0.00  0.00     0.085 H 
ENDBRANCH  33  34
ENDBRANCH   3  33
BRANCH   1  45
ATOM     45  C5  BKH d   1     -20.344   5.369  -0.055  0.00  0.00     0.043 C 
ATOM     46  H5  BKH d   1     -20.232   5.685   0.993  0.00  0.00     0.078 H 
ATOM     47  H6  BKH d   1     -19.761   4.452  -0.225  0.00  0.00     0.078 H 
BRANCH  45  48
ATOM     48  O3  BKH d   1     -21.700   5.092  -0.299  0.00  0.00    -0.398 OA
ATOM     49  H9  BKH d   1     -22.215   5.876  -0.148  0.00  0.00     0.209 HD
ENDBRANCH  45  48
ENDBRANCH   1  45
TORSDOF 8
