REMARK  17 active torsions:
REMARK  status: ('A' for Active; 'I' for Inactive)
REMARK    1  A    between atoms: N1_1  and  C2_2 
REMARK    2  A    between atoms: N1_1  and  C13_13 
REMARK    3  A    between atoms: N1_1  and  C14_14 
REMARK    4  A    between atoms: N1_1  and  C15_15 
REMARK    5  A    between atoms: C2_2  and  C3_3 
REMARK    6  A    between atoms: C3_3  and  C4_4 
REMARK    7  A    between atoms: C4_4  and  C5_5 
REMARK    8  A    between atoms: C5_5  and  C6_6 
REMARK    9  A    between atoms: C6_6  and  C7_7 
REMARK   10  A    between atoms: C7_7  and  C8_8 
REMARK   11  A    between atoms: C8_8  and  C9_9 
REMARK   12  A    between atoms: C9_9  and  C10_10 
REMARK   13  A    between atoms: C10_10  and  C11_11 
REMARK   14  A    between atoms: C11_11  and  N12_12 
REMARK   15  A    between atoms: N12_12  and  C16_16 
REMARK   16  A    between atoms: N12_12  and  C17_17 
REMARK   17  A    between atoms: N12_12  and  C18_18 
ROOT
ATOM      1  C6  DME d   1     -22.829 -42.461 -22.173  0.00  0.00    -0.065 C 
ATOM      2  H9  DME d   1     -22.770 -42.588 -21.082  0.00  0.00     0.033 H 
ATOM      3  H10 DME d   1     -23.598 -43.135 -22.580  0.00  0.00     0.033 H 
ENDROOT
BRANCH   1   4
ATOM      4  C5  DME d   1     -21.470 -42.700 -22.836  0.00  0.00    -0.065 C 
ATOM      5  H7  DME d   1     -21.581 -42.560 -23.921  0.00  0.00     0.033 H 
ATOM      6  H8  DME d   1     -20.755 -41.962 -22.443  0.00  0.00     0.033 H 
BRANCH   4   7
ATOM      7  C4  DME d   1     -20.918 -44.085 -22.584  0.00  0.00    -0.064 C 
ATOM      8  H5  DME d   1     -20.676 -44.202 -21.517  0.00  0.00     0.033 H 
ATOM      9  H6  DME d   1     -21.661 -44.842 -22.877  0.00  0.00     0.033 H 
BRANCH   7  10
ATOM     10  C3  DME d   1     -19.654 -44.248 -23.423  0.00  0.00    -0.042 C 
ATOM     11  H3  DME d   1     -19.909 -44.157 -24.489  0.00  0.00     0.035 H 
ATOM     12  H4  DME d   1     -18.931 -43.465 -23.151  0.00  0.00     0.035 H 
BRANCH  10  13
ATOM     13  C2  DME d   1     -19.039 -45.619 -23.164  0.00  0.00     0.084 C 
ATOM     14  H1  DME d   1     -18.710 -45.671 -22.116  0.00  0.00     0.076 H 
ATOM     15  H2  DME d   1     -19.799 -46.392 -23.348  0.00  0.00     0.076 H 
BRANCH  13  16
ATOM     16  N1  DME d   1     -17.887 -45.865 -24.038  0.00  0.00    -0.079 N 
BRANCH  16  17
ATOM     17  C13 DME d   1     -18.385 -46.004 -25.413  0.00  0.00     0.067 C 
ATOM     18  H21 DME d   1     -17.540 -46.190 -26.092  0.00  0.00     0.068 H 
ATOM     19  H22 DME d   1     -18.899 -45.079 -25.712  0.00  0.00     0.068 H 
ATOM     20  H23 DME d   1     -19.089 -46.848 -25.465  0.00  0.00     0.068 H 
ENDBRANCH  16  17
BRANCH  16  21
ATOM     21  C14 DME d   1     -17.008 -44.690 -24.051  0.00  0.00     0.067 C 
ATOM     22  H24 DME d   1     -16.598 -44.528 -23.043  0.00  0.00     0.068 H 
ATOM     23  H25 DME d   1     -17.584 -43.805 -24.359  0.00  0.00     0.068 H 
ATOM     24  H26 DME d   1     -16.184 -44.856 -24.760  0.00  0.00     0.068 H 
ENDBRANCH  16  21
BRANCH  16  25
ATOM     25  C15 DME d   1     -17.154 -47.063 -23.606  0.00  0.00     0.067 C 
ATOM     26  H27 DME d   1     -17.834 -47.928 -23.605  0.00  0.00     0.068 H 
ATOM     27  H28 DME d   1     -16.759 -46.905 -22.591  0.00  0.00     0.068 H 
ATOM     28  H29 DME d   1     -16.320 -47.252 -24.298  0.00  0.00     0.068 H 
ENDBRANCH  16  25
ENDBRANCH  13  16
ENDBRANCH  10  13
ENDBRANCH   7  10
ENDBRANCH   4   7
ENDBRANCH   1   4
BRANCH   1  29
ATOM     29  C7  DME d   1     -23.106 -41.016 -22.547  0.00  0.00    -0.065 C 
ATOM     30  H11 DME d   1     -24.123 -40.731 -22.240  0.00  0.00     0.033 H 
ATOM     31  H12 DME d   1     -22.997 -40.876 -23.633  0.00  0.00     0.033 H 
BRANCH  29  32
ATOM     32  C8  DME d   1     -22.073 -40.174 -21.799  0.00  0.00    -0.065 C 
ATOM     33  H13 DME d   1     -21.068 -40.572 -22.002  0.00  0.00     0.033 H 
ATOM     34  H14 DME d   1     -22.278 -40.227 -20.720  0.00  0.00     0.033 H 
BRANCH  32  35
ATOM     35  C9  DME d   1     -22.135 -38.724 -22.248  0.00  0.00    -0.064 C 
ATOM     36  H15 DME d   1     -21.488 -38.097 -21.616  0.00  0.00     0.033 H 
ATOM     37  H16 DME d   1     -23.168 -38.350 -22.200  0.00  0.00     0.033 H 
BRANCH  35  38
ATOM     38  C10 DME d   1     -21.634 -38.727 -23.688  0.00  0.00    -0.042 C 
ATOM     39  H17 DME d   1     -22.284 -39.377 -24.292  0.00  0.00     0.035 H 
ATOM     40  H18 DME d   1     -20.605 -39.115 -23.709  0.00  0.00     0.035 H 
BRANCH  38  41
ATOM     41  C11 DME d   1     -21.647 -37.325 -24.281  0.00  0.00     0.084 C 
ATOM     42  H19 DME d   1     -21.081 -36.645 -23.627  0.00  0.00     0.076 H 
ATOM     43  H20 DME d   1     -22.686 -36.973 -24.366  0.00  0.00     0.076 H 
BRANCH  41  44
ATOM     44  N12 DME d   1     -21.029 -37.350 -25.611  0.00  0.00    -0.079 N 
BRANCH  44  45
ATOM     45  C16 DME d   1     -21.185 -36.038 -26.246  0.00  0.00     0.067 C 
ATOM     46  H30 DME d   1     -20.722 -36.056 -27.244  0.00  0.00     0.068 H 
ATOM     47  H31 DME d   1     -20.695 -35.271 -25.628  0.00  0.00     0.068 H 
ATOM     48  H32 DME d   1     -22.255 -35.802 -26.343  0.00  0.00     0.068 H 
ENDBRANCH  44  45
BRANCH  44  49
ATOM     49  C17 DME d   1     -21.510 -38.451 -26.453  0.00  0.00     0.067 C 
ATOM     50  H33 DME d   1     -21.367 -39.406 -25.925  0.00  0.00     0.068 H 
ATOM     51  H34 DME d   1     -20.944 -38.465 -27.396  0.00  0.00     0.068 H 
ATOM     52  H35 DME d   1     -22.579 -38.308 -26.669  0.00  0.00     0.068 H 
ENDBRANCH  44  49
BRANCH  44  53
ATOM     53  C18 DME d   1     -19.589 -37.547 -25.387  0.00  0.00     0.067 C 
ATOM     54  H36 DME d   1     -19.201 -36.733 -24.757  0.00  0.00     0.068 H 
ATOM     55  H37 DME d   1     -19.064 -37.544 -26.354  0.00  0.00     0.068 H 
ATOM     56  H38 DME d   1     -19.425 -38.511 -24.883  0.00  0.00     0.068 H 
ENDBRANCH  44  53
ENDBRANCH  41  44
ENDBRANCH  38  41
ENDBRANCH  35  38
ENDBRANCH  32  35
ENDBRANCH  29  32
ENDBRANCH   1  29
TORSDOF 17
