REMARK  5 active torsions:
REMARK  status: ('A' for Active; 'I' for Inactive)
REMARK    1  A    between atoms: C12_16  and  C13_2 
REMARK    2  A    between atoms: C13_2  and  C14_17 
REMARK    3  A    between atoms: C14_17  and  C15_3 
REMARK    4  A    between atoms: C14_17  and  C21_6 
REMARK    5  A    between atoms: N04_24  and  C05_10 
REMARK       I    between atoms: C12_16  and  N04_24 
ROOT
ATOM      1  C14 BNQ d   1      -7.697  -2.769  10.088  0.00  0.00     0.005 C 
ATOM      2  H12 BNQ d   1      -8.003  -2.374   9.108  0.00  0.00     0.055 H 
ENDROOT
BRANCH   1   3
ATOM      3  C13 BNQ d   1      -8.889  -3.592  10.618  0.00  0.00     0.020 C 
ATOM      4  H2  BNQ d   1      -9.169  -3.212  11.611  0.00  0.00     0.048 H 
ATOM      5  H3  BNQ d   1      -9.737  -3.474   9.928  0.00  0.00     0.048 H 
BRANCH   3   6
ATOM      6  C12 BNQ d   1      -8.554  -5.065  10.734  0.00  0.00     0.224 C 
ATOM      7  N04 BNQ d   1      -8.410  -5.523  12.012  0.00  0.00    -0.306 N 
ATOM      8  H18 BNQ d   1      -8.164  -4.873  12.731  0.00  0.00     0.171 HD
ATOM      9  O02 BNQ d   1      -8.662  -5.824   9.774  0.00  0.00    -0.273 OA
BRANCH   7  10
ATOM     10  C05 BNQ d   1      -8.591  -6.845  12.348  0.00  0.00     0.174 A 
ATOM     11  N03 BNQ d   1      -7.729  -7.753  11.985  0.00  0.00    -0.223 NA
ATOM     12  C11 BNQ d   1      -8.150  -9.001  12.439  0.00  0.00     0.076 A 
ATOM     13  C10 BNQ d   1      -7.479 -10.211  12.247  0.00  0.00    -0.054 A 
ATOM     14  C06 BNQ d   1      -9.357  -9.004  13.145  0.00  0.00     0.037 A 
ATOM     15  C09 BNQ d   1      -8.017 -11.382  12.755  0.00  0.00    -0.081 A 
ATOM     16  H1  BNQ d   1      -6.542 -10.233  11.703  0.00  0.00     0.087 H 
ATOM     17  C08 BNQ d   1      -9.210 -11.369  13.452  0.00  0.00    -0.082 A 
ATOM     18  H11 BNQ d   1      -7.496 -12.320  12.604  0.00  0.00     0.083 H 
ATOM     19  C07 BNQ d   1      -9.892 -10.180  13.655  0.00  0.00    -0.064 A 
ATOM     20  H10 BNQ d   1      -9.615 -12.295  13.843  0.00  0.00     0.083 H 
ATOM     21  H9  BNQ d   1     -10.827 -10.168  14.203  0.00  0.00     0.085 H 
ATOM     22  S01 BNQ d   1      -9.988  -7.383  13.245  0.00  0.00    -0.050 SA
ENDBRANCH   7  10
ENDBRANCH   3   6
ENDBRANCH   1   3
BRANCH   1  23
ATOM     23  C15 BNQ d   1      -6.455  -3.617   9.850  0.00  0.00    -0.049 A 
ATOM     24  C20 BNQ d   1      -5.657  -4.036  10.908  0.00  0.00    -0.076 A 
ATOM     25  C19 BNQ d   1      -4.524  -4.797  10.683  0.00  0.00    -0.082 A 
ATOM     26  H5  BNQ d   1      -5.926  -3.763  11.922  0.00  0.00     0.084 H 
ATOM     27  C18 BNQ d   1      -4.163  -5.141   9.398  0.00  0.00    -0.083 A 
ATOM     28  H15 BNQ d   1      -3.918  -5.124  11.520  0.00  0.00     0.083 H 
ATOM     29  C17 BNQ d   1      -4.939  -4.723   8.337  0.00  0.00    -0.082 A 
ATOM     30  H14 BNQ d   1      -3.275  -5.737   9.222  0.00  0.00     0.083 H 
ATOM     31  C16 BNQ d   1      -6.074  -3.964   8.560  0.00  0.00    -0.076 A 
ATOM     32  H4  BNQ d   1      -4.659  -4.990   7.325  0.00  0.00     0.083 H 
ATOM     33  H13 BNQ d   1      -6.673  -3.636   7.718  0.00  0.00     0.084 H 
ENDBRANCH   1  23
BRANCH   1  34
ATOM     34  C21 BNQ d   1      -7.380  -1.565  10.967  0.00  0.00    -0.049 A 
ATOM     35  C22 BNQ d   1      -7.154  -0.319  10.397  0.00  0.00    -0.076 A 
ATOM     36  C23 BNQ d   1      -6.859   0.777  11.188  0.00  0.00    -0.082 A 
ATOM     37  H6  BNQ d   1      -7.209  -0.204   9.320  0.00  0.00     0.084 H 
ATOM     38  C24 BNQ d   1      -6.781   0.644  12.559  0.00  0.00    -0.083 A 
ATOM     39  H16 BNQ d   1      -6.689   1.744  10.729  0.00  0.00     0.083 H 
ATOM     40  C25 BNQ d   1      -6.999  -0.589  13.138  0.00  0.00    -0.082 A 
ATOM     41  H7  BNQ d   1      -6.550   1.504  13.178  0.00  0.00     0.083 H 
ATOM     42  C26 BNQ d   1      -7.294  -1.686  12.348  0.00  0.00    -0.076 A 
ATOM     43  H17 BNQ d   1      -6.939  -0.699  14.215  0.00  0.00     0.083 H 
ATOM     44  H8  BNQ d   1      -7.460  -2.651  12.812  0.00  0.00     0.084 H 
ENDBRANCH   1  34
TORSDOF 5
