REMARK  19 active torsions:
REMARK  status: ('A' for Active; 'I' for Inactive)
REMARK    1  A    between atoms: O6'_1  and  C6'_2 
REMARK    2  A    between atoms: C6'_2  and  C5'_3 
REMARK    3  A    between atoms: C4'_4  and  O4'_5 
REMARK    4  A    between atoms: C3'_6  and  O3'_7 
REMARK    5  A    between atoms: C2'_9  and  C1'_10 
REMARK    6  A    between atoms: C2'_9  and  O1_12 
REMARK    7  A    between atoms: C1'_10  and  O1'_11 
REMARK    8  A    between atoms: O1_12  and  C1_13 
REMARK    9  A    between atoms: C2_14  and  O2_15 
REMARK   10  A    between atoms: C3_16  and  O3_17 
REMARK   11  A    between atoms: C4_18  and  O4_19 
REMARK   12  A    between atoms: C5_20  and  C6_22 
REMARK   13  A    between atoms: C6_22  and  O6_23 
REMARK   14  A    between atoms: O6_23  and  C1X_24 
REMARK   15  A    between atoms: C5X_26  and  C6X_27 
REMARK   16  A    between atoms: C6X_27  and  O6X_28 
REMARK   17  A    between atoms: C4X_29  and  O4X_30 
REMARK   18  A    between atoms: C3X_31  and  O3X_32 
REMARK   19  A    between atoms: C2X_33  and  O2X_34 
ROOT
ATOM      1  C1  RAF d   1     132.873   7.245  73.097  0.00  0.00     0.162 C 
ATOM      2  C2  RAF d   1     132.392   5.860  72.652  0.00  0.00     0.110 C 
ATOM      3  C3  RAF d   1     132.578   4.864  73.815  0.00  0.00     0.092 C 
ATOM      4  C4  RAF d   1     134.076   4.847  74.170  0.00  0.00     0.090 C 
ATOM      5  C5  RAF d   1     134.455   6.248  74.641  0.00  0.00     0.089 C 
ATOM      6  O5  RAF d   1     134.246   7.202  73.558  0.00  0.00    -0.348 OA
ATOM      7  H12 RAF d   1     132.812   7.922  72.232  0.00  0.00     0.133 H 
ATOM      8  H13 RAF d   1     132.989   5.518  71.794  0.00  0.00     0.094 H 
ATOM      9  H15 RAF d   1     131.987   5.190  74.683  0.00  0.00     0.091 H 
ATOM     10  H17 RAF d   1     134.655   4.600  73.268  0.00  0.00     0.091 H 
ATOM     11  H19 RAF d   1     133.858   6.519  75.524  0.00  0.00     0.090 H 
ENDROOT
BRANCH   5  12
ATOM     12  C6  RAF d   1     135.943   6.326  74.952  0.00  0.00     0.049 C 
ATOM     13  H20 RAF d   1     136.411   7.102  74.328  0.00  0.00     0.078 H 
ATOM     14  H21 RAF d   1     136.415   5.354  74.745  0.00  0.00     0.078 H 
BRANCH  12  15
ATOM     15  O6  RAF d   1     136.109   6.655  76.331  0.00  0.00    -0.356 OA
BRANCH  15  16
ATOM     16  C1X RAF d   1     137.338   6.125  76.814  0.00  0.00     0.158 C 
ATOM     17  O5X RAF d   1     138.454   6.791  76.146  0.00  0.00    -0.348 OA
ATOM     18  C5X RAF d   1     138.660   8.189  76.402  0.00  0.00     0.089 C 
ATOM     19  C4X RAF d   1     138.966   8.347  77.885  0.00  0.00     0.090 C 
ATOM     20  H23 RAF d   1     137.737   8.743  76.178  0.00  0.00     0.090 H 
ATOM     21  C3X RAF d   1     137.702   7.865  78.650  0.00  0.00     0.092 C 
ATOM     22  H27 RAF d   1     139.201   9.394  78.127  0.00  0.00     0.091 H 
ATOM     23  C2X RAF d   1     137.411   6.363  78.355  0.00  0.00     0.110 C 
ATOM     24  H29 RAF d   1     136.835   8.475  78.356  0.00  0.00     0.091 H 
ATOM     25  H31 RAF d   1     138.208   5.740  78.786  0.00  0.00     0.094 H 
ATOM     26  H22 RAF d   1     137.382   5.046  76.607  0.00  0.00     0.133 H 
BRANCH  18  27
ATOM     27  C6X RAF d   1     139.772   8.707  75.463  0.00  0.00     0.043 C 
ATOM     28  H24 RAF d   1     140.736   8.253  75.735  0.00  0.00     0.078 H 
ATOM     29  H25 RAF d   1     139.848   9.802  75.539  0.00  0.00     0.078 H 
BRANCH  27  30
ATOM     30  O6X RAF d   1     139.414   8.332  74.126  0.00  0.00    -0.398 OA
ATOM     31  H26 RAF d   1     138.579   8.725  73.901  0.00  0.00     0.209 HD
ENDBRANCH  27  30
ENDBRANCH  18  27
BRANCH  19  32
ATOM     32  O4X RAF d   1     140.077   7.476  78.247  0.00  0.00    -0.390 OA
ATOM     33  H28 RAF d   1     140.843   7.714  77.738  0.00  0.00     0.210 HD
ENDBRANCH  19  32
BRANCH  21  34
ATOM     34  O3X RAF d   1     137.946   7.999  80.022  0.00  0.00    -0.390 OA
ATOM     35  H30 RAF d   1     137.183   7.709  80.508  0.00  0.00     0.210 HD
ENDBRANCH  21  34
BRANCH  23  36
ATOM     36  O2X RAF d   1     136.157   6.019  78.943  0.00  0.00    -0.388 OA
ATOM     37  H32 RAF d   1     136.198   6.163  79.881  0.00  0.00     0.210 HD
ENDBRANCH  23  36
ENDBRANCH  15  16
ENDBRANCH  12  15
ENDBRANCH   5  12
BRANCH   4  38
ATOM     38  O4  RAF d   1     134.372   3.883  75.170  0.00  0.00    -0.390 OA
ATOM     39  H18 RAF d   1     133.881   4.085  75.958  0.00  0.00     0.210 HD
ENDBRANCH   4  38
BRANCH   3  40
ATOM     40  O3  RAF d   1     132.173   3.553  73.431  0.00  0.00    -0.390 OA
ATOM     41  H16 RAF d   1     132.698   3.264  72.694  0.00  0.00     0.210 HD
ENDBRANCH   3  40
BRANCH   1  42
ATOM     42  O1  RAF d   1     132.037   7.788  74.180  0.00  0.00    -0.318 OA
BRANCH  42  43
ATOM     43  C2' RAF d   1     131.868   9.272  74.280  0.00  0.00     0.217 C 
ATOM     44  C3' RAF d   1     133.120  10.065  74.715  0.00  0.00     0.118 C 
ATOM     45  C4' RAF d   1     133.713  10.626  73.446  0.00  0.00     0.092 C 
ATOM     46  H7  RAF d   1     132.809  10.899  75.362  0.00  0.00     0.095 H 
ATOM     47  C5' RAF d   1     132.415  10.912  72.662  0.00  0.00     0.089 C 
ATOM     48  H5  RAF d   1     134.377   9.923  72.922  0.00  0.00     0.091 H 
ATOM     49  O2' RAF d   1     131.523   9.806  72.977  0.00  0.00    -0.341 OA
ATOM     50  H4  RAF d   1     131.990  11.879  72.970  0.00  0.00     0.090 H 
BRANCH  44  51
ATOM     51  O3' RAF d   1     134.048   9.258  75.462  0.00  0.00    -0.387 OA
ATOM     52  H8  RAF d   1     134.331   8.526  74.927  0.00  0.00     0.210 HD
ENDBRANCH  44  51
BRANCH  45  53
ATOM     53  O4' RAF d   1     134.410  11.834  73.792  0.00  0.00    -0.390 OA
ATOM     54  H6  RAF d   1     133.850  12.378  74.333  0.00  0.00     0.210 HD
ENDBRANCH  45  53
BRANCH  47  55
ATOM     55  C6' RAF d   1     132.609  10.881  71.122  0.00  0.00     0.043 C 
ATOM     56  H2  RAF d   1     131.673  11.204  70.643  0.00  0.00     0.078 H 
ATOM     57  H3  RAF d   1     133.417  11.578  70.855  0.00  0.00     0.078 H 
BRANCH  55  58
ATOM     58  O6' RAF d   1     132.951   9.563  70.630  0.00  0.00    -0.398 OA
ATOM     59  H1  RAF d   1     132.256   8.954  70.849  0.00  0.00     0.209 HD
ENDBRANCH  55  58
ENDBRANCH  47  55
BRANCH  43  60
ATOM     60  C1' RAF d   1     130.848   9.543  75.412  0.00  0.00     0.071 C 
ATOM     61  H9  RAF d   1     130.816  10.626  75.603  0.00  0.00     0.082 H 
ATOM     62  H10 RAF d   1     131.184   9.020  76.320  0.00  0.00     0.082 H 
BRANCH  60  63
ATOM     63  O1' RAF d   1     129.541   9.102  75.095  0.00  0.00    -0.395 OA
ATOM     64  H11 RAF d   1     129.554   8.166  74.935  0.00  0.00     0.209 HD
ENDBRANCH  60  63
ENDBRANCH  43  60
ENDBRANCH  42  43
ENDBRANCH   1  42
BRANCH   2  65
ATOM     65  O2  RAF d   1     131.055   5.979  72.259  0.00  0.00    -0.388 OA
ATOM     66  H14 RAF d   1     130.537   6.289  72.993  0.00  0.00     0.210 HD
ENDBRANCH   2  65
TORSDOF 19
