REMARK  12 active torsions:
REMARK  status: ('A' for Active; 'I' for Inactive)
REMARK    1  A    between atoms: O1_2  and  C1_1 
REMARK    2  A    between atoms: C6'_23  and  O1_2 
REMARK    3  A    between atoms: C2_3  and  O2_4 
REMARK    4  A    between atoms: C3_5  and  O3_6 
REMARK    5  A    between atoms: C4_7  and  O4_8 
REMARK    6  A    between atoms: C5_9  and  C6_11 
REMARK    7  A    between atoms: C6_11  and  O6_12 
REMARK    8  A    between atoms: C1'_13  and  O1'_14 
REMARK    9  A    between atoms: C2'_15  and  O2'_16 
REMARK   10  A    between atoms: C3'_17  and  O3'_18 
REMARK   11  A    between atoms: C4'_19  and  O4'_20 
REMARK   12  A    between atoms: C5'_21  and  C6'_23 
ROOT
ATOM      1  O1  MLB d   1     135.173   6.685  75.956  0.00  0.00    -0.356 OA
ENDROOT
BRANCH   1   2
ATOM      2  C1  MLB d   1     136.326   5.961  76.383  0.00  0.00     0.158 C 
ATOM      3  C2  MLB d   1     136.522   6.088  77.942  0.00  0.00     0.110 C 
ATOM      4  C3  MLB d   1     136.965   7.539  78.283  0.00  0.00     0.092 C 
ATOM      5  H2  MLB d   1     137.273   5.365  78.294  0.00  0.00     0.094 H 
ATOM      6  C4  MLB d   1     138.121   8.019  77.441  0.00  0.00     0.090 C 
ATOM      7  H4  MLB d   1     136.107   8.201  78.097  0.00  0.00     0.091 H 
ATOM      8  C5  MLB d   1     137.807   7.837  75.933  0.00  0.00     0.089 C 
ATOM      9  H6  MLB d   1     138.309   9.083  77.645  0.00  0.00     0.091 H 
ATOM     10  O5  MLB d   1     137.513   6.428  75.694  0.00  0.00    -0.348 OA
ATOM     11  H8  MLB d   1     136.925   8.438  75.668  0.00  0.00     0.090 H 
ATOM     12  H1  MLB d   1     136.177   4.899  76.137  0.00  0.00     0.133 H 
BRANCH   3  13
ATOM     13  O2  MLB d   1     135.262   5.849  78.571  0.00  0.00    -0.388 OA
ATOM     14  H3  MLB d   1     135.361   5.921  79.513  0.00  0.00     0.210 HD
ENDBRANCH   3  13
BRANCH   4  15
ATOM     15  O3  MLB d   1     137.339   7.652  79.662  0.00  0.00    -0.390 OA
ATOM     16  H5  MLB d   1     136.597   7.423  80.210  0.00  0.00     0.210 HD
ENDBRANCH   4  15
BRANCH   6  17
ATOM     17  O4  MLB d   1     139.289   7.239  77.799  0.00  0.00    -0.390 OA
ATOM     18  H7  MLB d   1     140.031   7.525  77.279  0.00  0.00     0.210 HD
ENDBRANCH   6  17
BRANCH   8  19
ATOM     19  C6  MLB d   1     138.997   8.313  75.096  0.00  0.00     0.043 C 
ATOM     20  H9  MLB d   1     139.889   7.728  75.365  0.00  0.00     0.078 H 
ATOM     21  H10 MLB d   1     139.183   9.378  75.299  0.00  0.00     0.078 H 
BRANCH  19  22
ATOM     22  O6  MLB d   1     138.717   8.138  73.700  0.00  0.00    -0.398 OA
ATOM     23  H11 MLB d   1     137.948   8.644  73.467  0.00  0.00     0.209 HD
ENDBRANCH  19  22
ENDBRANCH   8  19
ENDBRANCH   1   2
BRANCH   1  24
ATOM     24  C6' MLB d   1     134.740   6.296  74.659  0.00  0.00     0.049 C 
ATOM     25  H21 MLB d   1     134.372   5.260  74.680  0.00  0.00     0.078 H 
ATOM     26  H22 MLB d   1     135.573   6.375  73.945  0.00  0.00     0.078 H 
BRANCH  24  27
ATOM     27  C5' MLB d   1     133.606   7.248  74.250  0.00  0.00     0.089 C 
ATOM     28  C4' MLB d   1     132.895   6.662  73.027  0.00  0.00     0.090 C 
ATOM     29  C3' MLB d   1     132.020   7.719  72.329  0.00  0.00     0.092 C 
ATOM     30  H18 MLB d   1     133.648   6.302  72.310  0.00  0.00     0.091 H 
ATOM     31  C2' MLB d   1     132.886   8.878  71.776  0.00  0.00     0.110 C 
ATOM     32  H16 MLB d   1     131.267   8.107  73.031  0.00  0.00     0.091 H 
ATOM     33  C1' MLB d   1     134.057   9.327  72.764  0.00  0.00     0.156 C 
ATOM     34  H14 MLB d   1     133.379   8.501  70.868  0.00  0.00     0.094 H 
ATOM     35  O5' MLB d   1     134.055   8.651  74.085  0.00  0.00    -0.349 OA
ATOM     36  H12 MLB d   1     134.994   9.039  72.266  0.00  0.00     0.133 H 
ATOM     37  H20 MLB d   1     132.875   7.257  75.072  0.00  0.00     0.090 H 
BRANCH  28  38
ATOM     38  O4' MLB d   1     132.098   5.557  73.471  0.00  0.00    -0.390 OA
ATOM     39  H19 MLB d   1     131.670   5.157  72.724  0.00  0.00     0.210 HD
ENDBRANCH  28  38
BRANCH  29  40
ATOM     40  O3' MLB d   1     131.390   7.095  71.191  0.00  0.00    -0.390 OA
ATOM     41  H17 MLB d   1     130.852   7.734  70.738  0.00  0.00     0.210 HD
ENDBRANCH  29  40
BRANCH  31  42
ATOM     42  O2' MLB d   1     132.043   9.972  71.371  0.00  0.00    -0.388 OA
ATOM     43  H15 MLB d   1     132.567  10.624  70.921  0.00  0.00     0.210 HD
ENDBRANCH  31  42
BRANCH  33  44
ATOM     44  O1' MLB d   1     134.113  10.748  72.969  0.00  0.00    -0.369 OA
ATOM     45  H13 MLB d   1     134.115  11.188  72.127  0.00  0.00     0.212 HD
ENDBRANCH  33  44
ENDBRANCH  24  27
ENDBRANCH   1  24
TORSDOF 12
