REMARK  25 active torsions:
REMARK  status: ('A' for Active; 'I' for Inactive)
REMARK    1  A    between atoms: O6Y_16  and  C1X_1 
REMARK    2  A    between atoms: C5X_3  and  C6X_4 
REMARK    3  A    between atoms: C6X_4  and  O6X_5 
REMARK    4  A    between atoms: C4X_6  and  O4X_7 
REMARK    5  A    between atoms: C3X_8  and  O3X_9 
REMARK    6  A    between atoms: C2X_10  and  O2X_11 
REMARK    7  A    between atoms: O6_39  and  C1Y_12 
REMARK    8  A    between atoms: C5Y_14  and  C6Y_15 
REMARK    9  A    between atoms: C6Y_15  and  O6Y_16 
REMARK   10  A    between atoms: C4Y_17  and  O4Y_18 
REMARK   11  A    between atoms: C3Y_19  and  O3Y_20 
REMARK   12  A    between atoms: C2Y_21  and  O2Y_22 
REMARK   13  A    between atoms: C1_23  and  O1_24 
REMARK   14  A    between atoms: O1_24  and  C2'_25 
REMARK   15  A    between atoms: C2'_25  and  C1'_26 
REMARK   16  A    between atoms: C1'_26  and  O1'_27 
REMARK   17  A    between atoms: C5'_29  and  C6'_34 
REMARK   18  A    between atoms: C4'_30  and  O4'_31 
REMARK   19  A    between atoms: C3'_32  and  O3'_33 
REMARK   20  A    between atoms: C6'_34  and  O6'_35 
REMARK   21  A    between atoms: C6_38  and  C5_37 
REMARK   22  A    between atoms: C6_38  and  O6_39 
REMARK   23  A    between atoms: C4_40  and  O4_41 
REMARK   24  A    between atoms: C3_42  and  O3_43 
REMARK   25  A    between atoms: C2_44  and  O2_45 
ROOT
ATOM      1  O6  STW d   1      29.514  27.845  62.948  0.00  0.00    -0.356 OA
ENDROOT
BRANCH   1   2
ATOM      2  C1Y STW d   1      29.631  29.271  63.159  0.00  0.00     0.158 C 
ATOM      3  O5Y STW d   1      29.530  29.375  64.623  0.00  0.00    -0.348 OA
ATOM      4  C5Y STW d   1      30.761  29.020  65.290  0.00  0.00     0.089 C 
ATOM      5  C4Y STW d   1      31.702  30.222  65.116  0.00  0.00     0.090 C 
ATOM      6  H13 STW d   1      31.222  28.134  64.829  0.00  0.00     0.090 H 
ATOM      7  C3Y STW d   1      31.918  30.570  63.620  0.00  0.00     0.092 C 
ATOM      8  H16 STW d   1      32.667  29.992  65.592  0.00  0.00     0.091 H 
ATOM      9  C2Y STW d   1      31.011  29.805  62.605  0.00  0.00     0.110 C 
ATOM     10  H18 STW d   1      31.673  31.637  63.512  0.00  0.00     0.091 H 
ATOM     11  H20 STW d   1      31.580  28.927  62.264  0.00  0.00     0.094 H 
ATOM     12  H12 STW d   1      28.810  29.816  62.670  0.00  0.00     0.133 H 
BRANCH   4  13
ATOM     13  C6Y STW d   1      30.362  28.690  66.720  0.00  0.00     0.049 C 
ATOM     14  H14 STW d   1      29.685  27.824  66.696  0.00  0.00     0.078 H 
ATOM     15  H15 STW d   1      29.832  29.559  67.138  0.00  0.00     0.078 H 
BRANCH  13  16
ATOM     16  O6Y STW d   1      31.474  28.372  67.599  0.00  0.00    -0.356 OA
BRANCH  16  17
ATOM     17  C1X STW d   1      31.248  28.936  68.882  0.00  0.00     0.158 C 
ATOM     18  O5X STW d   1      30.052  28.332  69.548  0.00  0.00    -0.348 OA
ATOM     19  C5X STW d   1      30.207  26.937  69.814  0.00  0.00     0.089 C 
ATOM     20  C4X STW d   1      31.360  26.740  70.857  0.00  0.00     0.090 C 
ATOM     21  H2  STW d   1      30.543  26.465  68.879  0.00  0.00     0.090 H 
ATOM     22  C3X STW d   1      32.672  27.329  70.262  0.00  0.00     0.092 C 
ATOM     23  H6  STW d   1      31.498  25.667  71.058  0.00  0.00     0.091 H 
ATOM     24  C2X STW d   1      32.472  28.778  69.763  0.00  0.00     0.110 C 
ATOM     25  H8  STW d   1      32.973  26.702  69.410  0.00  0.00     0.091 H 
ATOM     26  H10 STW d   1      32.312  29.409  70.650  0.00  0.00     0.094 H 
ATOM     27  H1  STW d   1      31.057  30.011  68.749  0.00  0.00     0.133 H 
BRANCH  19  28
ATOM     28  C6X STW d   1      28.884  26.254  70.179  0.00  0.00     0.043 C 
ATOM     29  H3  STW d   1      28.571  26.587  71.180  0.00  0.00     0.078 H 
ATOM     30  H4  STW d   1      29.031  25.164  70.184  0.00  0.00     0.078 H 
BRANCH  28  31
ATOM     31  O6X STW d   1      27.865  26.584  69.237  0.00  0.00    -0.398 OA
ATOM     32  H5  STW d   1      27.056  26.151  69.483  0.00  0.00     0.209 HD
ENDBRANCH  28  31
ENDBRANCH  19  28
BRANCH  20  33
ATOM     33  O4X STW d   1      31.019  27.416  72.085  0.00  0.00    -0.390 OA
ATOM     34  H7  STW d   1      30.212  27.053  72.432  0.00  0.00     0.210 HD
ENDBRANCH  20  33
BRANCH  22  35
ATOM     35  O3X STW d   1      33.718  27.324  71.226  0.00  0.00    -0.390 OA
ATOM     36  H9  STW d   1      34.506  27.688  70.839  0.00  0.00     0.210 HD
ENDBRANCH  22  35
BRANCH  24  37
ATOM     37  O2X STW d   1      33.643  29.240  69.120  0.00  0.00    -0.388 OA
ATOM     38  H11 STW d   1      34.369  29.219  69.733  0.00  0.00     0.210 HD
ENDBRANCH  24  37
ENDBRANCH  16  17
ENDBRANCH  13  16
ENDBRANCH   4  13
BRANCH   5  39
ATOM     39  O4Y STW d   1      31.125  31.411  65.703  0.00  0.00    -0.390 OA
ATOM     40  H17 STW d   1      30.298  31.604  65.277  0.00  0.00     0.210 HD
ENDBRANCH   5  39
BRANCH   7  41
ATOM     41  O3Y STW d   1      33.302  30.407  63.267  0.00  0.00    -0.390 OA
ATOM     42  H19 STW d   1      33.421  30.623  62.350  0.00  0.00     0.210 HD
ENDBRANCH   7  41
BRANCH   9  43
ATOM     43  O2Y STW d   1      30.765  30.660  61.467  0.00  0.00    -0.388 OA
ATOM     44  H21 STW d   1      30.213  30.203  60.843  0.00  0.00     0.210 HD
ENDBRANCH   9  43
ENDBRANCH   1   2
BRANCH   1  45
ATOM     45  C6  STW d   1      28.854  27.487  61.767  0.00  0.00     0.049 C 
ATOM     46  H35 STW d   1      27.814  27.195  61.971  0.00  0.00     0.078 H 
ATOM     47  H36 STW d   1      28.867  28.315  61.043  0.00  0.00     0.078 H 
BRANCH  45  48
ATOM     48  C5  STW d   1      29.654  26.314  61.259  0.00  0.00     0.089 C 
ATOM     49  O5  STW d   1      28.579  25.446  60.894  0.00  0.00    -0.348 OA
ATOM     50  C1  STW d   1      29.051  24.173  60.403  0.00  0.00     0.162 C 
ATOM     51  C2  STW d   1      29.914  24.385  59.115  0.00  0.00     0.110 C 
ATOM     52  H22 STW d   1      28.163  23.592  60.113  0.00  0.00     0.133 H 
ATOM     53  C3  STW d   1      31.017  25.471  59.253  0.00  0.00     0.092 C 
ATOM     54  H41 STW d   1      29.241  24.682  58.297  0.00  0.00     0.094 H 
ATOM     55  C4  STW d   1      30.552  26.711  60.021  0.00  0.00     0.090 C 
ATOM     56  H39 STW d   1      31.867  25.026  59.791  0.00  0.00     0.091 H 
ATOM     57  H37 STW d   1      29.941  27.337  59.354  0.00  0.00     0.091 H 
ATOM     58  H34 STW d   1      30.287  25.875  62.044  0.00  0.00     0.090 H 
BRANCH  50  59
ATOM     59  O1  STW d   1      29.777  23.364  61.416  0.00  0.00    -0.318 OA
BRANCH  59  60
ATOM     60  C2' STW d   1      29.051  22.249  62.134  0.00  0.00     0.217 C 
ATOM     61  O2' STW d   1      27.679  22.638  62.562  0.00  0.00    -0.341 OA
ATOM     62  C5' STW d   1      27.585  22.790  64.012  0.00  0.00     0.089 C 
ATOM     63  C4' STW d   1      28.852  22.261  64.661  0.00  0.00     0.092 C 
ATOM     64  H26 STW d   1      26.722  22.221  64.388  0.00  0.00     0.090 H 
ATOM     65  C3' STW d   1      29.854  22.001  63.478  0.00  0.00     0.118 C 
ATOM     66  H27 STW d   1      29.278  23.020  65.333  0.00  0.00     0.091 H 
ATOM     67  H29 STW d   1      30.663  22.744  63.538  0.00  0.00     0.095 H 
BRANCH  60  68
ATOM     68  C1' STW d   1      28.922  20.942  61.274  0.00  0.00     0.071 C 
ATOM     69  H23 STW d   1      28.978  20.073  61.946  0.00  0.00     0.082 H 
ATOM     70  H24 STW d   1      29.758  20.908  60.560  0.00  0.00     0.082 H 
BRANCH  68  71
ATOM     71  O1' STW d   1      27.685  20.876  60.538  0.00  0.00    -0.395 OA
ATOM     72  H25 STW d   1      26.955  20.897  61.145  0.00  0.00     0.209 HD
ENDBRANCH  68  71
ENDBRANCH  60  68
BRANCH  62  73
ATOM     73  C6' STW d   1      27.392  24.269  64.330  0.00  0.00     0.043 C 
ATOM     74  H31 STW d   1      28.301  24.831  64.068  0.00  0.00     0.078 H 
ATOM     75  H32 STW d   1      27.177  24.398  65.401  0.00  0.00     0.078 H 
BRANCH  73  76
ATOM     76  O6' STW d   1      26.286  24.737  63.550  0.00  0.00    -0.398 OA
ATOM     77  H33 STW d   1      26.478  24.618  62.627  0.00  0.00     0.209 HD
ENDBRANCH  73  76
ENDBRANCH  62  73
BRANCH  63  78
ATOM     78  O4' STW d   1      28.532  21.074  65.452  0.00  0.00    -0.390 OA
ATOM     79  H28 STW d   1      27.902  21.304  66.125  0.00  0.00     0.210 HD
ENDBRANCH  63  78
BRANCH  65  80
ATOM     80  O3' STW d   1      30.485  20.664  63.552  0.00  0.00    -0.387 OA
ATOM     81  H30 STW d   1      29.811  19.995  63.518  0.00  0.00     0.210 HD
ENDBRANCH  65  80
ENDBRANCH  59  60
ENDBRANCH  50  59
BRANCH  51  82
ATOM     82  O2  STW d   1      30.535  23.168  58.788  0.00  0.00    -0.388 OA
ATOM     83  H42 STW d   1      31.144  22.930  59.477  0.00  0.00     0.210 HD
ENDBRANCH  51  82
BRANCH  53  84
ATOM     84  O3  STW d   1      31.460  25.904  57.944  0.00  0.00    -0.390 OA
ATOM     85  H40 STW d   1      32.176  26.521  58.041  0.00  0.00     0.210 HD
ENDBRANCH  53  84
BRANCH  55  86
ATOM     86  O4  STW d   1      31.756  27.457  60.380  0.00  0.00    -0.390 OA
ATOM     87  H38 STW d   1      32.247  27.662  59.593  0.00  0.00     0.210 HD
ENDBRANCH  55  86
ENDBRANCH  45  48
ENDBRANCH   1  45
TORSDOF 25
