REMARK  1 active torsions:
REMARK  status: ('A' for Active; 'I' for Inactive)
REMARK    1  A    between atoms: C02_1  and  N01_7 
ROOT
ATOM      1  C02 BU8 d   1     -13.226  13.034  12.687  0.00  0.00     0.700 A 
ATOM      2  C04 BU8 d   1     -13.853  11.683  14.304  0.00  0.00     0.097 A 
ATOM      3  C05 BU8 d   1     -14.467  10.904  15.276  0.00  0.00    -0.051 A 
ATOM      4  C06 BU8 d   1     -13.648  10.117  16.076  0.00  0.00    -0.064 A 
ATOM      5  C07 BU8 d   1     -12.273  10.135  15.895  0.00  0.00     0.005 A 
ATOM      6  C09 BU8 d   1     -12.420  11.623  14.198  0.00  0.00     0.195 A 
ATOM      7  N03 BU8 d   1     -14.365  12.576  13.347  0.00  0.00    -0.186 N 
ATOM      8  N08 BU8 d   1     -11.625  10.874  14.970  0.00  0.00    -0.239 NA
ATOM      9  N10 BU8 d   1     -12.101  12.492  13.177  0.00  0.00    -0.043 NA
ATOM     10  H1  BU8 d   1     -15.543  10.910  15.405  0.00  0.00     0.087 H 
ATOM     11  H2  BU8 d   1     -14.085   9.488  16.843  0.00  0.00     0.085 H 
ATOM     12  H3  BU8 d   1     -11.674   9.508  16.546  0.00  0.00     0.114 H 
ATOM     13  H6  BU8 d   1     -15.348  12.831  13.175  0.00  0.00     0.184 HD
ENDROOT
BRANCH   1  14
ATOM     14  N01 BU8 d   1     -13.214  13.961  11.642  0.00  0.00    -0.233 N 
ATOM     15  H4  BU8 d   1     -14.099  14.355  11.293  0.00  0.00     0.174 HD
ATOM     16  H5  BU8 d   1     -12.320  14.250  11.221  0.00  0.00     0.174 HD
ENDBRANCH   1  14
TORSDOF 1
