REMARK  2 active torsions:
REMARK  status: ('A' for Active; 'I' for Inactive)
REMARK    1  A    between atoms: C12_11  and  C15_3 
REMARK    2  A    between atoms: C15_3  and  O16_15 
ROOT
ATOM      1  C10 BU5 d   1     -15.885  10.179 -21.819  0.00  0.00     0.109 A 
ATOM      2  C13 BU5 d   1     -18.047   9.110 -21.665  0.00  0.00    -0.017 A 
ATOM      3  C01 BU5 d   1     -14.412  12.211 -23.707  0.00  0.00    -0.054 A 
ATOM      4  C02 BU5 d   1     -13.350  12.954 -24.189  0.00  0.00    -0.020 A 
ATOM      5  C04 BU5 d   1     -12.559  11.776 -22.419  0.00  0.00     0.138 A 
ATOM      6  C05 BU5 d   1     -13.939  11.461 -22.585  0.00  0.00     0.024 A 
ATOM      7  C06 BU5 d   1     -14.493  10.548 -21.690  0.00  0.00     0.015 A 
ATOM      8  C07 BU5 d   1     -13.685  10.013 -20.706  0.00  0.00    -0.052 A 
ATOM      9  C08 BU5 d   1     -12.320  10.411 -20.634  0.00  0.00     0.005 A 
ATOM     10  C12 BU5 d   1     -18.008  10.201 -22.493  0.00  0.00     0.065 A 
ATOM     11  N03 BU5 d   1     -12.204  12.707 -23.422  0.00  0.00    -0.350 N 
ATOM     12  N09 BU5 d   1     -11.732  11.279 -21.464  0.00  0.00    -0.242 NA
ATOM     13  N11 BU5 d   1     -16.753  10.816 -22.578  0.00  0.00    -0.243 NA
ATOM     14  S14 BU5 d   1     -16.516   8.806 -20.974  0.00  0.00    -0.079 SA
ATOM     15  H1  BU5 d   1     -18.938   8.515 -21.473  0.00  0.00     0.098 H 
ATOM     16  H4  BU5 d   1     -15.424  12.199 -24.109  0.00  0.00     0.087 H 
ATOM     17  H5  BU5 d   1     -13.398  13.632 -25.040  0.00  0.00     0.111 H 
ATOM     18  H6  BU5 d   1     -14.086   9.298 -19.997  0.00  0.00     0.087 H 
ATOM     19  H7  BU5 d   1     -11.712   9.978 -19.848  0.00  0.00     0.114 H 
ATOM     20  H8  BU5 d   1     -11.274  13.127 -23.563  0.00  0.00     0.166 HD
ENDROOT
BRANCH  10  21
ATOM     21  C15 BU5 d   1     -19.149  10.776 -23.282  0.00  0.00     0.057 C 
ATOM     22  H2  BU5 d   1     -18.977  10.629 -24.358  0.00  0.00     0.083 H 
ATOM     23  H3  BU5 d   1     -19.251  11.851 -23.070  0.00  0.00     0.083 H 
BRANCH  21  24
ATOM     24  O16 BU5 d   1     -20.306  10.094 -22.882  0.00  0.00    -0.395 OA
ATOM     25  H9  BU5 d   1     -20.442  10.223 -21.951  0.00  0.00     0.209 HD
ENDBRANCH  21  24
ENDBRANCH  10  21
TORSDOF 2
