REMARK  0 active torsions:
REMARK  status: ('A' for Active; 'I' for Inactive)
ROOT
ATOM      1  NAF AX7 d   1     -12.347  11.006  14.178  0.00  0.00    -0.063 NA
ATOM      2  CAI AX7 d   1     -13.338  10.603  15.114  0.00  0.00     0.103 A 
ATOM      3  CAD AX7 d   1     -13.267   9.720  16.172  0.00  0.00    -0.052 A 
ATOM      4  CAB AX7 d   1     -14.398   9.522  16.928  0.00  0.00    -0.081 A 
ATOM      5  CAC AX7 d   1     -15.597  10.201  16.624  0.00  0.00    -0.081 A 
ATOM      6  CAE AX7 d   1     -15.681  11.087  15.563  0.00  0.00    -0.054 A 
ATOM      7  CAJ AX7 d   1     -14.537  11.307  14.786  0.00  0.00     0.078 A 
ATOM      8  NAG AX7 d   1     -14.332  12.154  13.658  0.00  0.00    -0.188 N 
ATOM      9  CAH AX7 d   1     -13.008  11.934  13.333  0.00  0.00     0.699 A 
ATOM     10  NAA AX7 d   1     -12.308  12.496  12.337  0.00  0.00    -0.233 N 
ATOM     11  H1  AX7 d   1     -12.345   9.197  16.401  0.00  0.00     0.087 H 
ATOM     12  H2  AX7 d   1     -14.368   8.836  17.767  0.00  0.00     0.083 H 
ATOM     13  H3  AX7 d   1     -16.474  10.025  17.236  0.00  0.00     0.083 H 
ATOM     14  H4  AX7 d   1     -16.610  11.598  15.339  0.00  0.00     0.087 H 
ATOM     15  H5  AX7 d   1     -15.008  12.779  13.197  0.00  0.00     0.184 HD
ATOM     16  H6  AX7 d   1     -11.319  12.246  12.198  0.00  0.00     0.174 HD
ATOM     17  H7  AX7 d   1     -12.760  13.178  11.711  0.00  0.00     0.174 HD
ENDROOT
TORSDOF 0
