REMARK  2 active torsions:
REMARK  status: ('A' for Active; 'I' for Inactive)
REMARK    1  A    between atoms: C02_3  and  N01_13 
REMARK    2  A    between atoms: C06_6  and  C05_5 
ROOT
ATOM      1  C13 BS8 d   1     -16.022 -16.720  10.026  0.00  0.00    -0.053 A 
ATOM      2  C02 BS8 d   1     -12.608 -16.822  12.998  0.00  0.00     0.700 A 
ATOM      3  C04 BS8 d   1     -14.230 -16.377  11.593  0.00  0.00     0.133 A 
ATOM      4  C05 BS8 d   1     -15.219 -15.821  10.729  0.00  0.00     0.012 A 
ATOM      5  C14 BS8 d   1     -15.842 -18.096  10.169  0.00  0.00     0.005 A 
ATOM      6  C16 BS8 d   1     -14.085 -17.738  11.705  0.00  0.00     0.173 A 
ATOM      7  N03 BS8 d   1     -13.285 -15.837  12.418  0.00  0.00    -0.060 NA
ATOM      8  N15 BS8 d   1     -14.900 -18.549  10.985  0.00  0.00    -0.240 NA
ATOM      9  N17 BS8 d   1     -13.073 -17.988  12.583  0.00  0.00    -0.171 N 
ATOM     10  H2  BS8 d   1     -16.793 -16.346   9.362  0.00  0.00     0.087 H 
ATOM     11  H5  BS8 d   1     -16.467 -18.789   9.618  0.00  0.00     0.114 H 
ATOM     12  H8  BS8 d   1     -12.732 -18.916  12.871  0.00  0.00     0.186 HD
ENDROOT
BRANCH   4  13
ATOM     13  C06 BS8 d   1     -15.398 -14.445  10.599  0.00  0.00     0.018 A 
ATOM     14  C07 BS8 d   1     -15.669 -13.684  11.724  0.00  0.00    -0.052 A 
ATOM     15  C08 BS8 d   1     -15.848 -12.317  11.589  0.00  0.00     0.003 A 
ATOM     16  H3  BS8 d   1     -15.740 -14.153  12.699  0.00  0.00     0.087 H 
ATOM     17  N09 BS8 d   1     -15.769 -11.733  10.406  0.00  0.00    -0.270 NA
ATOM     18  H4  BS8 d   1     -16.056 -11.717  12.467  0.00  0.00     0.114 H 
ATOM     19  C10 BS8 d   1     -15.513 -12.437   9.318  0.00  0.00     0.040 A 
ATOM     20  C11 BS8 d   1     -15.318 -13.809   9.367  0.00  0.00     0.144 A 
ATOM     21  H1  BS8 d   1     -15.454 -11.929   8.362  0.00  0.00     0.119 H 
ATOM     22  F12 BS8 d   1     -15.058 -14.507   8.224  0.00  0.00    -0.204 F 
ENDBRANCH   4  13
BRANCH   2  23
ATOM     23  N01 BS8 d   1     -11.528 -16.649  13.944  0.00  0.00    -0.233 N 
ATOM     24  H6  BS8 d   1     -11.227 -15.702  14.214  0.00  0.00     0.174 HD
ATOM     25  H7  BS8 d   1     -11.060 -17.473  14.348  0.00  0.00     0.174 HD
ENDBRANCH   2  23
TORSDOF 2
