REMARK  12 active torsions:
REMARK  status: ('A' for Active; 'I' for Inactive)
REMARK    1  A    between atoms: C4_1  and  O4_16 
REMARK    2  A    between atoms: C5_2  and  C6_3 
REMARK    3  A    between atoms: C6_3  and  O6_18 
REMARK    4  A    between atoms: C11_4  and  O11_22 
REMARK    5  A    between atoms: O1_13  and  C7_5 
REMARK    6  A    between atoms: C8_6  and  O8_19 
REMARK    7  A    between atoms: C9_7  and  O9_20 
REMARK    8  A    between atoms: C10_8  and  O10_21 
REMARK    9  A    between atoms: C12_9  and  O12_23 
REMARK   10  A    between atoms: C3_10  and  O3_15 
REMARK   11  A    between atoms: C1_11  and  O1_13 
REMARK   12  A    between atoms: C2_12  and  O2_14 
ROOT
ATOM      1  O1  BQZ d   1     136.588   6.228  76.216  0.00  0.00    -0.348 OA
ENDROOT
BRANCH   1   2
ATOM      2  C7  BQZ d   1     136.206   5.942  74.861  0.00  0.00     0.096 C 
ATOM      3  C8  BQZ d   1     135.305   4.661  74.851  0.00  0.00     0.090 C 
ATOM      4  C9  BQZ d   1     134.758   4.381  73.440  0.00  0.00     0.090 C 
ATOM      5  H7  BQZ d   1     135.928   3.805  75.150  0.00  0.00     0.091 H 
ATOM      6  C10 BQZ d   1     133.933   5.572  72.905  0.00  0.00     0.090 C 
ATOM      7  H8  BQZ d   1     135.605   4.215  72.758  0.00  0.00     0.091 H 
ATOM      8  C11 BQZ d   1     134.819   6.842  72.865  0.00  0.00     0.090 C 
ATOM      9  H9  BQZ d   1     133.064   5.747  73.556  0.00  0.00     0.091 H 
ATOM     10  C12 BQZ d   1     135.415   7.163  74.290  0.00  0.00     0.090 C 
ATOM     11  H5  BQZ d   1     135.656   6.667  72.173  0.00  0.00     0.091 H 
ATOM     12  H10 BQZ d   1     134.567   7.360  74.963  0.00  0.00     0.091 H 
ATOM     13  H6  BQZ d   1     137.103   5.766  74.249  0.00  0.00     0.091 H 
BRANCH   3  14
ATOM     14  O8  BQZ d   1     134.223   4.785  75.806  0.00  0.00    -0.390 OA
ATOM     15  H18 BQZ d   1     134.582   4.957  76.669  0.00  0.00     0.210 HD
ENDBRANCH   3  14
BRANCH   4  16
ATOM     16  O9  BQZ d   1     133.978   3.207  73.494  0.00  0.00    -0.390 OA
ATOM     17  H19 BQZ d   1     133.667   2.995  72.622  0.00  0.00     0.210 HD
ENDBRANCH   4  16
BRANCH   6  18
ATOM     18  O10 BQZ d   1     133.499   5.264  71.592  0.00  0.00    -0.390 OA
ATOM     19  H20 BQZ d   1     132.989   5.989  71.250  0.00  0.00     0.210 HD
ENDBRANCH   6  18
BRANCH   8  20
ATOM     20  O11 BQZ d   1     134.036   7.932  72.371  0.00  0.00    -0.390 OA
ATOM     21  H21 BQZ d   1     133.691   7.710  71.514  0.00  0.00     0.210 HD
ENDBRANCH   8  20
BRANCH  10  22
ATOM     22  O12 BQZ d   1     136.237   8.317  74.289  0.00  0.00    -0.390 OA
ATOM     23  H22 BQZ d   1     137.002   8.159  73.748  0.00  0.00     0.210 HD
ENDBRANCH  10  22
ENDBRANCH   1   2
BRANCH   1  24
ATOM     24  C1  BQZ d   1     137.841   5.636  76.581  0.00  0.00     0.159 C 
ATOM     25  C2  BQZ d   1     138.061   5.744  78.098  0.00  0.00     0.110 C 
ATOM     26  C3  BQZ d   1     138.382   7.212  78.511  0.00  0.00     0.092 C 
ATOM     27  H13 BQZ d   1     138.937   5.129  78.352  0.00  0.00     0.094 H 
ATOM     28  C4  BQZ d   1     139.581   7.731  77.730  0.00  0.00     0.090 C 
ATOM     29  H11 BQZ d   1     137.503   7.849  78.335  0.00  0.00     0.091 H 
ATOM     30  C5  BQZ d   1     139.254   7.642  76.239  0.00  0.00     0.089 C 
ATOM     31  H1  BQZ d   1     139.803   8.772  78.006  0.00  0.00     0.091 H 
ATOM     32  O5  BQZ d   1     138.954   6.267  75.868  0.00  0.00    -0.348 OA
ATOM     33  H2  BQZ d   1     138.345   8.239  76.071  0.00  0.00     0.090 H 
ATOM     34  H12 BQZ d   1     137.813   4.571  76.306  0.00  0.00     0.133 H 
BRANCH  25  35
ATOM     35  O2  BQZ d   1     136.964   5.231  78.810  0.00  0.00    -0.388 OA
ATOM     36  H14 BQZ d   1     137.128   5.311  79.742  0.00  0.00     0.210 HD
ENDBRANCH  25  35
BRANCH  26  37
ATOM     37  O3  BQZ d   1     138.757   7.246  79.865  0.00  0.00    -0.390 OA
ATOM     38  H15 BQZ d   1     138.044   6.915  80.398  0.00  0.00     0.210 HD
ENDBRANCH  26  37
BRANCH  28  39
ATOM     39  O4  BQZ d   1     140.695   6.888  78.044  0.00  0.00    -0.390 OA
ATOM     40  H16 BQZ d   1     141.461   7.188  77.570  0.00  0.00     0.210 HD
ENDBRANCH  28  39
BRANCH  30  41
ATOM     41  C6  BQZ d   1     140.339   8.221  75.342  0.00  0.00     0.043 C 
ATOM     42  H3  BQZ d   1     141.306   7.744  75.561  0.00  0.00     0.078 H 
ATOM     43  H4  BQZ d   1     140.422   9.306  75.500  0.00  0.00     0.078 H 
BRANCH  41  44
ATOM     44  O6  BQZ d   1     139.949   7.948  73.993  0.00  0.00    -0.398 OA
ATOM     45  H17 BQZ d   1     140.604   8.295  73.399  0.00  0.00     0.209 HD
ENDBRANCH  41  44
ENDBRANCH  30  41
ENDBRANCH   1  24
TORSDOF 12
