REMARK  8 active torsions:
REMARK  status: ('A' for Active; 'I' for Inactive)
REMARK    1  A    between atoms: C15_15  and  N14_13 
REMARK    2  A    between atoms: C16_16  and  C15_15 
REMARK    3  A    between atoms: C16_16  and  C17_17 
REMARK    4  A    between atoms: N18_22  and  C16_16 
REMARK    5  A    between atoms: C19_18  and  C20_19 
REMARK    6  A    between atoms: N18_22  and  C19_18 
REMARK    7  A    between atoms: C21_20  and  C22_21 
REMARK    8  A    between atoms: C21_20  and  N18_22 
ROOT
ATOM      1  C15 BUW d   1      41.449 -17.831  43.173  0.00  0.00     0.027 C 
ATOM      2  H9  BUW d   1      40.762 -18.293  42.449  0.00  0.00     0.068 H 
ATOM      3  H10 BUW d   1      40.952 -17.753  44.151  0.00  0.00     0.068 H 
ENDROOT
BRANCH   1   4
ATOM      4  N14 BUW d   1      41.730 -16.461  42.707  0.00  0.00    -0.343 N 
ATOM      5  C01 BUW d   1      42.487 -16.220  41.589  0.00  0.00     0.052 A 
ATOM      6  C02 BUW d   1      42.469 -17.087  40.489  0.00  0.00    -0.056 A 
ATOM      7  C06 BUW d   1      43.311 -15.086  41.548  0.00  0.00     0.032 A 
ATOM      8  C03 BUW d   1      43.259 -16.826  39.371  0.00  0.00    -0.081 A 
ATOM      9  H1  BUW d   1      41.836 -17.967  40.508  0.00  0.00     0.087 H 
ATOM     10  C04 BUW d   1      44.069 -15.694  39.339  0.00  0.00    -0.082 A 
ATOM     11  H2  BUW d   1      43.243 -17.505  38.526  0.00  0.00     0.083 H 
ATOM     12  C05 BUW d   1      44.094 -14.826  40.426  0.00  0.00    -0.064 A 
ATOM     13  H3  BUW d   1      44.680 -15.489  38.467  0.00  0.00     0.083 H 
ATOM     14  H4  BUW d   1      44.725 -13.945  40.400  0.00  0.00     0.085 H 
ATOM     15  S07 BUW d   1      43.359 -13.962  42.920  0.00  0.00    -0.086 SA
ATOM     16  C08 BUW d   1      41.661 -14.168  43.398  0.00  0.00     0.032 A 
ATOM     17  C09 BUW d   1      40.956 -13.092  43.937  0.00  0.00    -0.064 A 
ATOM     18  C13 BUW d   1      41.031 -15.408  43.226  0.00  0.00     0.052 A 
ATOM     19  C10 BUW d   1      39.621 -13.252  44.313  0.00  0.00    -0.082 A 
ATOM     20  H5  BUW d   1      41.444 -12.133  44.064  0.00  0.00     0.085 H 
ATOM     21  C11 BUW d   1      38.995 -14.486  44.150  0.00  0.00    -0.081 A 
ATOM     22  H6  BUW d   1      39.072 -12.416  44.732  0.00  0.00     0.083 H 
ATOM     23  C12 BUW d   1      39.697 -15.565  43.612  0.00  0.00    -0.056 A 
ATOM     24  H7  BUW d   1      37.958 -14.608  44.442  0.00  0.00     0.083 H 
ATOM     25  H8  BUW d   1      39.208 -16.525  43.493  0.00  0.00     0.087 H 
ENDBRANCH   1   4
BRANCH   1  26
ATOM     26  C16 BUW d   1      42.667 -18.786  43.340  0.00  0.00     0.116 C 
ATOM     27  H11 BUW d   1      43.301 -18.634  42.454  0.00  0.00     0.086 H 
BRANCH  26  28
ATOM     28  C17 BUW d   1      43.530 -18.361  44.554  0.00  0.00    -0.048 C 
ATOM     29  H12 BUW d   1      44.384 -19.047  44.655  0.00  0.00     0.030 H 
ATOM     30  H13 BUW d   1      42.920 -18.398  45.469  0.00  0.00     0.030 H 
ATOM     31  H14 BUW d   1      43.899 -17.336  44.401  0.00  0.00     0.030 H 
ENDBRANCH  26  28
BRANCH  26  32
ATOM     32  N18 BUW d   1      42.275 -20.264  43.308  0.00  0.00    -0.066 N 
ATOM     33  H25 BUW d   1      41.393 -20.362  43.786  0.00  0.00     0.280 HD
BRANCH  32  34
ATOM     34  C19 BUW d   1      43.294 -21.113  44.061  0.00  0.00     0.081 C 
ATOM     35  H15 BUW d   1      44.223 -20.529  44.136  0.00  0.00     0.075 H 
ATOM     36  H16 BUW d   1      42.894 -21.296  45.069  0.00  0.00     0.075 H 
BRANCH  34  37
ATOM     37  C20 BUW d   1      43.650 -22.477  43.447  0.00  0.00    -0.053 C 
ATOM     38  H17 BUW d   1      44.390 -22.984  44.084  0.00  0.00     0.029 H 
ATOM     39  H18 BUW d   1      44.072 -22.328  42.442  0.00  0.00     0.029 H 
ATOM     40  H19 BUW d   1      42.743 -23.095  43.376  0.00  0.00     0.029 H 
ENDBRANCH  34  37
ENDBRANCH  32  34
BRANCH  32  41
ATOM     41  C21 BUW d   1      42.067 -20.709  41.869  0.00  0.00     0.081 C 
ATOM     42  H20 BUW d   1      42.045 -19.812  41.233  0.00  0.00     0.075 H 
ATOM     43  H21 BUW d   1      42.919 -21.343  41.580  0.00  0.00     0.075 H 
BRANCH  41  44
ATOM     44  C22 BUW d   1      40.772 -21.504  41.621  0.00  0.00    -0.053 C 
ATOM     45  H22 BUW d   1      40.709 -21.781  40.558  0.00  0.00     0.029 H 
ATOM     46  H23 BUW d   1      39.904 -20.884  41.890  0.00  0.00     0.029 H 
ATOM     47  H24 BUW d   1      40.777 -22.415  42.237  0.00  0.00     0.029 H 
ENDBRANCH  41  44
ENDBRANCH  32  41
ENDBRANCH  26  32
ENDBRANCH   1  26
TORSDOF 8
