REMARK  8 active torsions:
REMARK  status: ('A' for Active; 'I' for Inactive)
REMARK    1  A    between atoms: C23_23  and  C13_2 
REMARK    2  A    between atoms: C21_9  and  C1_24 
REMARK    3  A    between atoms: C24_12  and  S1_13 
REMARK    4  A    between atoms: S1_13  and  N2_16 
REMARK    5  A    between atoms: C30_20  and  C27_19 
REMARK    6  A    between atoms: C31_21  and  C30_20 
REMARK    7  A    between atoms: N1_22  and  C31_21 
REMARK    8  A    between atoms: C19_31  and  C7_32 
ROOT
ATOM      1  C22 BVE d   1      -1.662   4.399   9.837  0.00  0.00    -0.066 A 
ATOM      2  C21 BVE d   1      -0.797   5.445   9.525  0.00  0.00    -0.025 A 
ATOM      3  N1  BVE d   1      -2.685   5.719  11.546  0.00  0.00    -0.368 N 
ATOM      4  C23 BVE d   1      -2.600   4.539  10.846  0.00  0.00     0.055 A 
ATOM      5  C20 BVE d   1      -0.893   6.628  10.253  0.00  0.00    -0.046 A 
ATOM      6  C19 BVE d   1      -1.834   6.760  11.262  0.00  0.00     0.042 A 
ATOM      7  H3  BVE d   1      -1.600   3.463   9.283  0.00  0.00     0.081 H 
ATOM      8  H18 BVE d   1      -3.337   4.913  10.120  0.00  0.00     0.086 H 
ATOM      9  H24 BVE d   1      -0.223   7.457  10.028  0.00  0.00     0.088 H 
ENDROOT
BRANCH   3  10
ATOM     10  C31 BVE d   1      -3.750   5.896  12.555  0.00  0.00    -0.000 C 
ATOM     11  H16 BVE d   1      -4.169   6.908  12.457  0.00  0.00     0.064 H 
ATOM     12  H17 BVE d   1      -4.540   5.153  12.373  0.00  0.00     0.064 H 
BRANCH  10  13
ATOM     13  C30 BVE d   1      -3.222   5.717  13.965  0.00  0.00    -0.026 C 
ATOM     14  H14 BVE d   1      -2.138   5.538  13.914  0.00  0.00     0.042 H 
ATOM     15  H15 BVE d   1      -3.416   6.639  14.533  0.00  0.00     0.042 H 
BRANCH  13  16
ATOM     16  C27 BVE d   1      -3.869   4.559  14.689  0.00  0.00    -0.057 A 
ATOM     17  C28 BVE d   1      -3.104   3.503  15.158  0.00  0.00    -0.075 A 
ATOM     18  C29 BVE d   1      -3.682   2.428  15.806  0.00  0.00    -0.060 A 
ATOM     19  H8  BVE d   1      -2.030   3.521  15.014  0.00  0.00     0.084 H 
ATOM     20  C24 BVE d   1      -5.054   2.403  15.997  0.00  0.00     0.079 A 
ATOM     21  H9  BVE d   1      -3.066   1.610  16.162  0.00  0.00     0.085 H 
ATOM     22  C25 BVE d   1      -5.841   3.450  15.545  0.00  0.00    -0.060 A 
ATOM     23  C26 BVE d   1      -5.242   4.518  14.895  0.00  0.00    -0.075 A 
ATOM     24  H12 BVE d   1      -6.914   3.434  15.698  0.00  0.00     0.085 H 
ATOM     25  H13 BVE d   1      -5.857   5.337  14.541  0.00  0.00     0.084 H 
BRANCH  20  26
ATOM     26  S1  BVE d   1      -5.791   1.022  16.819  0.00  0.00     0.256 S 
ATOM     27  O2  BVE d   1      -5.325   1.056  18.177  0.00  0.00    -0.201 OA
ATOM     28  O1  BVE d   1      -7.207   1.081  16.591  0.00  0.00    -0.201 OA
BRANCH  26  29
ATOM     29  N2  BVE d   1      -5.241  -0.324  16.149  0.00  0.00    -0.324 N 
ATOM     30  H10 BVE d   1      -5.550  -1.213  16.486  0.00  0.00     0.169 HD
ATOM     31  H11 BVE d   1      -4.588  -0.276  15.393  0.00  0.00     0.169 HD
ENDBRANCH  26  29
ENDBRANCH  20  26
ENDBRANCH  13  16
ENDBRANCH  10  13
ENDBRANCH   3  10
BRANCH   4  32
ATOM     32  C13 BVE d   1      -3.485   3.404  11.172  0.00  0.00    -0.032 A 
ATOM     33  C18 BVE d   1      -4.671   3.199  10.475  0.00  0.00    -0.075 A 
ATOM     34  C17 BVE d   1      -5.470   2.100  10.743  0.00  0.00    -0.082 A 
ATOM     35  H2  BVE d   1      -4.974   3.908   9.713  0.00  0.00     0.084 H 
ATOM     36  C16 BVE d   1      -5.098   1.191  11.710  0.00  0.00    -0.083 A 
ATOM     37  H4  BVE d   1      -6.391   1.954  10.190  0.00  0.00     0.083 H 
ATOM     38  C15 BVE d   1      -3.927   1.380  12.413  0.00  0.00    -0.082 A 
ATOM     39  H5  BVE d   1      -5.724   0.331  11.917  0.00  0.00     0.083 H 
ATOM     40  C14 BVE d   1      -3.126   2.479  12.147  0.00  0.00    -0.075 A 
ATOM     41  H6  BVE d   1      -3.632   0.668  13.175  0.00  0.00     0.083 H 
ATOM     42  H7  BVE d   1      -2.208   2.620  12.706  0.00  0.00     0.084 H 
ENDBRANCH   4  32
BRANCH   6  43
ATOM     43  C7  BVE d   1      -1.887   8.011  12.043  0.00  0.00    -0.010 A 
ATOM     44  C12 BVE d   1      -1.140   8.157  13.208  0.00  0.00    -0.071 A 
ATOM     45  C11 BVE d   1      -1.154   9.347  13.918  0.00  0.00    -0.082 A 
ATOM     46  H1  BVE d   1      -0.539   7.329  13.565  0.00  0.00     0.084 H 
ATOM     47  C10 BVE d   1      -1.915  10.408  13.476  0.00  0.00    -0.083 A 
ATOM     48  H25 BVE d   1      -0.565   9.444  14.823  0.00  0.00     0.083 H 
ATOM     49  C9  BVE d   1      -2.663  10.281  12.325  0.00  0.00    -0.082 A 
ATOM     50  H26 BVE d   1      -1.925  11.339  14.031  0.00  0.00     0.083 H 
ATOM     51  C8  BVE d   1      -2.651   9.092  11.613  0.00  0.00    -0.071 A 
ATOM     52  H27 BVE d   1      -3.263  11.114  11.976  0.00  0.00     0.083 H 
ATOM     53  H28 BVE d   1      -3.244   9.003  10.710  0.00  0.00     0.084 H 
ENDBRANCH   6  43
BRANCH   2  54
ATOM     54  C1  BVE d   1       0.198   5.302   8.431  0.00  0.00    -0.026 A 
ATOM     55  C6  BVE d   1       1.550   5.553   8.653  0.00  0.00    -0.072 A 
ATOM     56  C5  BVE d   1       2.476   5.424   7.630  0.00  0.00    -0.082 A 
ATOM     57  H19 BVE d   1       1.883   5.854   9.640  0.00  0.00     0.084 H 
ATOM     58  C4  BVE d   1       2.068   5.043   6.370  0.00  0.00    -0.083 A 
ATOM     59  H20 BVE d   1       3.524   5.623   7.822  0.00  0.00     0.083 H 
ATOM     60  C3  BVE d   1       0.735   4.790   6.130  0.00  0.00    -0.082 A 
ATOM     61  H21 BVE d   1       2.793   4.943   5.571  0.00  0.00     0.083 H 
ATOM     62  C2  BVE d   1      -0.192   4.919   7.151  0.00  0.00    -0.072 A 
ATOM     63  H22 BVE d   1       0.411   4.489   5.140  0.00  0.00     0.083 H 
ATOM     64  H23 BVE d   1      -1.238   4.718   6.950  0.00  0.00     0.084 H 
ENDBRANCH   2  54
TORSDOF 8
