REMARK  23 active torsions:
REMARK  status: ('A' for Active; 'I' for Inactive)
REMARK    1  A    between atoms: CA_7  and  C1'_1 
REMARK    2  A    between atoms: C_8  and  CA_7 
REMARK       I    between atoms: N2_13  and  C_8 
REMARK    3  A    between atoms: C2_12  and  C1_10 
REMARK       I    between atoms: C1_10  and  N_21 
REMARK    4  A    between atoms: C2_12  and  N2_13 
REMARK    5  A    between atoms: C2_12  and  C3_14 
REMARK    6  A    between atoms: C3_14  and  C4_15 
REMARK    7  A    between atoms: C4_15  and  C5_16 
REMARK    8  A    between atoms: C5_16  and  N6_17 
REMARK       I    between atoms: N6_17  and  C7_18 
REMARK       I    between atoms: C7_18  and  N8_20 
REMARK    9  A    between atoms: N_21  and  CA_22 
REMARK   10  A    between atoms: CA_22  and  C_23 
REMARK   11  A    between atoms: CA_22  and  CB_25 
REMARK       I    between atoms: C_23  and  N_28 
REMARK   12  A    between atoms: CB_25  and  CG1_26 
REMARK   13  A    between atoms: CB_25  and  CG2_27 
REMARK   14  A    between atoms: N_28  and  CA_29 
REMARK   15  A    between atoms: CA_29  and  C_30 
REMARK   16  A    between atoms: CA_29  and  CB_32 
REMARK       I    between atoms: C_30  and  N23_39 
REMARK   17  A    between atoms: CB_32  and  CG_33 
REMARK   18  A    between atoms: CG_33  and  CD_34 
REMARK   19  A    between atoms: CD_34  and  NE_35 
REMARK       I    between atoms: NE_35  and  CZ_36 
REMARK       I    between atoms: CZ_36  and  NH1_37 
REMARK       I    between atoms: CZ_36  and  NH2_38 
REMARK   20  A    between atoms: N23_39  and  C16_40 
REMARK   21  A    between atoms: C16_40  and  C17_41 
REMARK   22  A    between atoms: C24_44  and  C27_45 
REMARK   23  A    between atoms: C27_45  and  N35_46 
ROOT
ATOM      1  CA  VAL d   1      48.978 -36.701  -8.084  0.00  0.00     0.092 C 
ATOM      2  H20 VAL d   1      49.565 -36.141  -8.827  0.00  0.00     0.088 H 
ENDROOT
BRANCH   1   3
ATOM      3  N   VAL d   1      49.271 -36.168  -6.738  0.00  0.00    -0.346 N 
ATOM      4  C1  CIR d   1      50.218 -35.232  -6.598  0.00  0.00     0.241 C 
ATOM      5  O1  CIR d   1      50.868 -34.783  -7.538  0.00  0.00    -0.271 OA
ATOM      6  H19 VAL d   1      48.768 -36.502  -5.941  0.00  0.00     0.163 HD
BRANCH   4   7
ATOM      7  C2  CIR d   1      50.525 -34.744  -5.191  0.00  0.00     0.089 C 
ATOM      8  H8  CIR d   1      50.122 -35.454  -4.454  0.00  0.00     0.087 H 
BRANCH   7   9
ATOM      9  N2  CIR d   1      51.997 -34.709  -5.094  0.00  0.00    -0.348 N 
ATOM     10  C   HY1 d   1      52.695 -35.560  -4.320  0.00  0.00     0.222 C 
ATOM     11  O   HY1 d   1      52.177 -36.414  -3.601  0.00  0.00    -0.273 OA
ATOM     12  H9  CIR d   1      52.496 -34.025  -5.625  0.00  0.00     0.163 HD
BRANCH  10  13
ATOM     13  CA  HY1 d   1      54.222 -35.398  -4.357  0.00  0.00     0.033 C 
ATOM     14  H6  HY1 d   1      54.690 -36.358  -4.621  0.00  0.00     0.054 H 
ATOM     15  H7  HY1 d   1      54.496 -34.639  -5.104  0.00  0.00     0.054 H 
BRANCH  13  16
ATOM     16  C1' HY1 d   1      54.656 -34.996  -3.102  0.00  0.00    -0.050 A 
ATOM     17  C2' HY1 d   1      54.110 -33.857  -2.520  0.00  0.00    -0.076 A 
ATOM     18  C3' HY1 d   1      54.535 -33.447  -1.264  0.00  0.00    -0.082 A 
ATOM     19  H1  HY1 d   1      53.352 -33.289  -3.048  0.00  0.00     0.084 H 
ATOM     20  C4' HY1 d   1      55.507 -34.177  -0.589  0.00  0.00    -0.083 A 
ATOM     21  H2  HY1 d   1      54.110 -32.559  -0.810  0.00  0.00     0.083 H 
ATOM     22  C5' HY1 d   1      56.052 -35.317  -1.170  0.00  0.00    -0.082 A 
ATOM     23  H3  HY1 d   1      55.840 -33.857   0.392  0.00  0.00     0.083 H 
ATOM     24  C6' HY1 d   1      55.626 -35.728  -2.427  0.00  0.00    -0.076 A 
ATOM     25  H4  HY1 d   1      56.809 -35.885  -0.642  0.00  0.00     0.083 H 
ATOM     26  H5  HY1 d   1      56.049 -36.617  -2.880  0.00  0.00     0.084 H 
ENDBRANCH  13  16
ENDBRANCH  10  13
ENDBRANCH   7   9
BRANCH   7  27
ATOM     27  C3  CIR d   1      49.899 -33.358  -4.932  0.00  0.00    -0.036 C 
ATOM     28  H10 CIR d   1      48.815 -33.411  -5.113  0.00  0.00     0.036 H 
ATOM     29  H11 CIR d   1      50.349 -32.624  -5.616  0.00  0.00     0.036 H 
BRANCH  27  30
ATOM     30  C4  CIR d   1      50.151 -32.915  -3.471  0.00  0.00    -0.048 C 
ATOM     31  H12 CIR d   1      49.895 -31.850  -3.368  0.00  0.00     0.035 H 
ATOM     32  H13 CIR d   1      51.214 -33.062  -3.227  0.00  0.00     0.035 H 
BRANCH  30  33
ATOM     33  C5  CIR d   1      49.291 -33.737  -2.496  0.00  0.00    -0.003 C 
ATOM     34  H14 CIR d   1      49.557 -34.800  -2.587  0.00  0.00     0.064 H 
ATOM     35  H15 CIR d   1      48.229 -33.602  -2.748  0.00  0.00     0.064 H 
BRANCH  33  36
ATOM     36  N6  CIR d   1      49.520 -33.295  -1.102  0.00  0.00    -0.343 N 
ATOM     37  C7  CIR d   1      50.376 -33.940  -0.287  0.00  0.00     0.313 C 
ATOM     38  O7  CIR d   1      51.009 -34.921  -0.677  0.00  0.00    -0.248 OA
ATOM     39  N8  CIR d   1      50.508 -33.497   0.972  0.00  0.00    -0.352 N 
ATOM     40  H17 CIR d   1      51.136 -33.956   1.600  0.00  0.00     0.160 HD
ATOM     41  H18 CIR d   1      49.978 -32.708   1.282  0.00  0.00     0.160 HD
ATOM     42  H16 CIR d   1      49.026 -32.497  -0.757  0.00  0.00     0.164 HD
ENDBRANCH  33  36
ENDBRANCH  30  33
ENDBRANCH  27  30
ENDBRANCH   7  27
ENDBRANCH   4   7
ENDBRANCH   1   3
BRANCH   1  43
ATOM     43  C   VAL d   1      47.495 -36.587  -8.419  0.00  0.00     0.241 C 
ATOM     44  O   VAL d   1      46.650 -36.543  -7.531  0.00  0.00    -0.271 OA
ATOM     45  N   ARG d   1      47.213 -36.573  -9.736  0.00  0.00    -0.346 N 
ATOM     46  H28 ARG d   1      47.968 -36.557 -10.392  0.00  0.00     0.163 HD
BRANCH  45  47
ATOM     47  CA  ARG d   1      45.837 -36.580 -10.240  0.00  0.00     0.089 C 
ATOM     48  H29 ARG d   1      45.251 -35.750  -9.819  0.00  0.00     0.087 H 
BRANCH  47  49
ATOM     49  C   ARG d   1      45.256 -37.942  -9.821  0.00  0.00     0.240 C 
ATOM     50  O   ARG d   1      45.943 -38.950  -9.923  0.00  0.00    -0.271 OA
ATOM     51  N23 00S d   1      44.010 -37.955  -9.303  0.00  0.00    -0.355 N 
ATOM     52  H41 00S d   1      43.492 -37.100  -9.266  0.00  0.00     0.162 HD
BRANCH  51  53
ATOM     53  C16 00S d   1      43.386 -39.191  -8.789  0.00  0.00     0.019 C 
ATOM     54  H42 00S d   1      43.883 -40.071  -9.224  0.00  0.00     0.071 H 
ATOM     55  H43 00S d   1      42.318 -39.208  -9.050  0.00  0.00     0.071 H 
BRANCH  53  56
ATOM     56  C17 00S d   1      43.540 -39.198  -7.369  0.00  0.00    -0.040 A 
ATOM     57  C22 00S d   1      42.551 -38.684  -6.528  0.00  0.00    -0.074 A 
ATOM     58  C21 00S d   1      42.719 -38.683  -5.128  0.00  0.00    -0.069 A 
ATOM     59  H44 00S d   1      41.641 -38.280  -6.957  0.00  0.00     0.084 H 
ATOM     60  C24 00S d   1      43.876 -39.187  -4.534  0.00  0.00     0.007 A 
ATOM     61  H45 00S d   1      41.932 -38.282  -4.500  0.00  0.00     0.085 H 
ATOM     62  C19 00S d   1      44.860 -39.706  -5.375  0.00  0.00    -0.069 A 
ATOM     63  C18 00S d   1      44.699 -39.705  -6.777  0.00  0.00    -0.074 A 
ATOM     64  H50 00S d   1      45.765 -40.118  -4.944  0.00  0.00     0.085 H 
ATOM     65  H51 00S d   1      45.488 -40.104  -7.405  0.00  0.00     0.084 H 
BRANCH  60  66
ATOM     66  C27 00S d   1      44.032 -39.186  -3.119  0.00  0.00     0.102 C 
ATOM     67  N34 00S d   1      42.976 -38.896  -2.354  0.00  0.00    -0.385 N 
ATOM     68  H48 00S d   1      42.067 -38.686  -2.790  0.00  0.00     0.157 HD
ATOM     69  H49 00S d   1      43.071 -38.882  -1.329  0.00  0.00     0.157 HD
BRANCH  66  70
ATOM     70  N35 00S d   1      45.224 -39.462  -2.571  0.00  0.00    -0.385 N 
ATOM     71  H46 00S d   1      45.333 -39.460  -1.547  0.00  0.00     0.157 HD
ATOM     72  H47 00S d   1      46.031 -39.676  -3.174  0.00  0.00     0.157 HD
ENDBRANCH  66  70
ENDBRANCH  60  66
ENDBRANCH  53  56
ENDBRANCH  51  53
ENDBRANCH  47  49
BRANCH  47  73
ATOM     73  CB  ARG d   1      45.872 -36.493 -11.760  0.00  0.00    -0.036 C 
ATOM     74  H30 ARG d   1      44.855 -36.642 -12.153  0.00  0.00     0.036 H 
ATOM     75  H31 ARG d   1      46.535 -37.279 -12.151  0.00  0.00     0.036 H 
BRANCH  73  76
ATOM     76  CG  ARG d   1      46.393 -35.120 -12.218  0.00  0.00    -0.048 C 
ATOM     77  H32 ARG d   1      47.377 -34.920 -11.768  0.00  0.00     0.035 H 
ATOM     78  H33 ARG d   1      45.687 -34.330 -11.921  0.00  0.00     0.035 H 
BRANCH  76  79
ATOM     79  CD  ARG d   1      46.514 -35.171 -13.753  0.00  0.00     0.009 C 
ATOM     80  H34 ARG d   1      45.526 -35.396 -14.181  0.00  0.00     0.064 H 
ATOM     81  H35 ARG d   1      47.222 -35.966 -14.028  0.00  0.00     0.064 H 
BRANCH  79  82
ATOM     82  NE  ARG d   1      46.993 -33.894 -14.306  0.00  0.00    -0.227 N 
ATOM     83  CZ  ARG d   1      48.269 -33.483 -14.248  0.00  0.00     0.665 C 
ATOM     84  NH1 ARG d   1      48.607 -32.312 -14.803  0.00  0.00    -0.235 N 
ATOM     85  NH2 ARG d   1      49.204 -34.232 -13.635  0.00  0.00    -0.235 N 
ATOM     86  H37 ARG d   1      49.584 -31.987 -14.764  0.00  0.00     0.174 HD
ATOM     87  H38 ARG d   1      47.891 -31.737 -15.268  0.00  0.00     0.174 HD
ATOM     88  H39 ARG d   1      48.944 -35.133 -13.208  0.00  0.00     0.174 HD
ATOM     89  H40 ARG d   1      50.180 -33.905 -13.593  0.00  0.00     0.174 HD
ATOM     90  H36 ARG d   1      46.307 -33.278 -14.765  0.00  0.00     0.177 HD
ENDBRANCH  79  82
ENDBRANCH  76  79
ENDBRANCH  73  76
ENDBRANCH  47  73
ENDBRANCH  45  47
ENDBRANCH   1  43
BRANCH   1  91
ATOM     91  CB  VAL d   1      49.356 -38.198  -8.138  0.00  0.00    -0.033 C 
ATOM     92  H21 VAL d   1      49.149 -38.574  -9.151  0.00  0.00     0.042 H 
BRANCH  91  93
ATOM     93  CG1 VAL d   1      50.846 -38.401  -7.830  0.00  0.00    -0.071 C 
ATOM     94  H22 VAL d   1      51.087 -39.473  -7.875  0.00  0.00     0.028 H 
ATOM     95  H23 VAL d   1      51.068 -38.017  -6.823  0.00  0.00     0.028 H 
ATOM     96  H24 VAL d   1      51.451 -37.858  -8.571  0.00  0.00     0.028 H 
ENDBRANCH  91  93
BRANCH  91  97
ATOM     97  CG2 VAL d   1      48.521 -39.003  -7.127  0.00  0.00    -0.071 C 
ATOM     98  H25 VAL d   1      47.451 -38.863  -7.341  0.00  0.00     0.028 H 
ATOM     99  H26 VAL d   1      48.740 -38.651  -6.108  0.00  0.00     0.028 H 
ATOM    100  H27 VAL d   1      48.775 -40.070  -7.209  0.00  0.00     0.028 H 
ENDBRANCH  91  97
ENDBRANCH   1  91
TORSDOF 23
