REMARK  26 active torsions:
REMARK  status: ('A' for Active; 'I' for Inactive)
REMARK    1  A    between atoms: C7_11  and  N1_1 
REMARK    2  A    between atoms: C4_4  and  C7_11 
REMARK    3  A    between atoms: CA_7  and  C_8 
REMARK    4  A    between atoms: CA_7  and  C1_10 
REMARK       I    between atoms: C_8  and  N_12 
REMARK    5  A    between atoms: N_12  and  CA_13 
REMARK    6  A    between atoms: CA_13  and  C_14 
REMARK    7  A    between atoms: CA_13  and  CB_16 
REMARK       I    between atoms: C_14  and  N_23 
REMARK    8  A    between atoms: CB_16  and  CG_17 
REMARK    9  A    between atoms: CG_17  and  CD_18 
REMARK   10  A    between atoms: CD_18  and  NE_19 
REMARK       I    between atoms: NE_19  and  CZ_20 
REMARK       I    between atoms: CZ_20  and  NH1_21 
REMARK       I    between atoms: CZ_20  and  NH2_22 
REMARK   11  A    between atoms: N_23  and  CA_24 
REMARK   12  A    between atoms: CA_24  and  CB_25 
REMARK   13  A    between atoms: CA_24  and  C_29 
REMARK   14  A    between atoms: CB_25  and  CG1_26 
REMARK   15  A    between atoms: CB_25  and  CG2_27 
REMARK   16  A    between atoms: CB_25  and  CG3_28 
REMARK       I    between atoms: C_29  and  N_31 
REMARK   17  A    between atoms: N_31  and  CA_32 
REMARK   18  A    between atoms: CA_32  and  C_33 
REMARK   19  A    between atoms: CA_32  and  CB_35 
REMARK       I    between atoms: C_33  and  N23_42 
REMARK   20  A    between atoms: CB_35  and  CG_36 
REMARK   21  A    between atoms: CG_36  and  CD_37 
REMARK   22  A    between atoms: CD_37  and  NE_38 
REMARK       I    between atoms: NE_38  and  CZ_39 
REMARK       I    between atoms: CZ_39  and  NH1_40 
REMARK       I    between atoms: CZ_39  and  NH2_41 
REMARK   23  A    between atoms: N23_42  and  C16_43 
REMARK   24  A    between atoms: C16_43  and  C17_44 
REMARK   25  A    between atoms: C24_47  and  C27_48 
REMARK   26  A    between atoms: C27_48  and  N35_49 
ROOT
ATOM      1  CA  TBG d   1      48.977 -36.807  -8.023  0.00  0.00     0.095 C 
ATOM      2  H26 TBG d   1      49.586 -36.322  -8.800  0.00  0.00     0.088 H 
ENDROOT
BRANCH   1   3
ATOM      3  N   TBG d   1      49.237 -36.168  -6.726  0.00  0.00    -0.345 N 
ATOM      4  C   ARG d   1      50.114 -35.163  -6.626  0.00  0.00     0.241 C 
ATOM      5  O   ARG d   1      50.736 -34.724  -7.587  0.00  0.00    -0.271 OA
ATOM      6  H25 TBG d   1      48.754 -36.487  -5.911  0.00  0.00     0.163 HD
BRANCH   4   7
ATOM      7  CA  ARG d   1      50.390 -34.617  -5.216  0.00  0.00     0.089 C 
ATOM      8  H13 ARG d   1      50.046 -35.354  -4.476  0.00  0.00     0.087 H 
BRANCH   7   9
ATOM      9  N   ARG d   1      51.853 -34.443  -5.083  0.00  0.00    -0.348 N 
ATOM     10  C   BVK d   1      52.552 -35.088  -4.123  0.00  0.00     0.222 C 
ATOM     11  O   BVK d   1      52.036 -35.828  -3.282  0.00  0.00    -0.273 OA
ATOM     12  H12 ARG d   1      52.334 -33.836  -5.716  0.00  0.00     0.163 HD
BRANCH  10  13
ATOM     13  CA  BVK d   1      54.064 -34.811  -4.059  0.00  0.00     0.033 C 
ATOM     14  H8  BVK d   1      54.342 -34.033  -4.785  0.00  0.00     0.054 H 
ATOM     15  H9  BVK d   1      54.631 -35.730  -4.270  0.00  0.00     0.054 H 
BRANCH  13  16
ATOM     16  C1  BVK d   1      54.314 -34.372  -2.754  0.00  0.00    -0.049 A 
ATOM     17  C2  BVK d   1      53.884 -33.104  -2.378  0.00  0.00    -0.076 A 
ATOM     18  C3  BVK d   1      54.091 -32.645  -1.085  0.00  0.00    -0.075 A 
ATOM     19  H4  BVK d   1      53.383 -32.469  -3.100  0.00  0.00     0.084 H 
ATOM     20  C4  BVK d   1      54.736 -33.444  -0.149  0.00  0.00    -0.033 A 
ATOM     21  H5  BVK d   1      53.747 -31.656  -0.803  0.00  0.00     0.084 H 
ATOM     22  C5  BVK d   1      55.169 -34.719  -0.515  0.00  0.00    -0.075 A 
ATOM     23  C6  BVK d   1      54.951 -35.182  -1.812  0.00  0.00    -0.076 A 
ATOM     24  H6  BVK d   1      55.674 -35.349   0.208  0.00  0.00     0.084 H 
ATOM     25  H7  BVK d   1      55.278 -36.177  -2.091  0.00  0.00     0.084 H 
BRANCH  20  26
ATOM     26  C7  BVK d   1      54.939 -32.947   1.146  0.00  0.00     0.103 C 
ATOM     27  H10 BVK d   1      56.010 -32.734   1.280  0.00  0.00     0.082 H 
ATOM     28  H11 BVK d   1      54.363 -32.017   1.263  0.00  0.00     0.082 H 
BRANCH  26  29
ATOM     29  N1  BVK d   1      54.512 -33.904   2.182  0.00  0.00    -0.075 N 
ATOM     30  H1  BVK d   1      54.675 -33.507   3.094  0.00  0.00     0.274 HD
ATOM     31  H2  BVK d   1      55.039 -34.758   2.088  0.00  0.00     0.274 HD
ATOM     32  H3  BVK d   1      53.530 -34.101   2.073  0.00  0.00     0.274 HD
ENDBRANCH  26  29
ENDBRANCH  20  26
ENDBRANCH  13  16
ENDBRANCH  10  13
ENDBRANCH   7   9
BRANCH   7  33
ATOM     33  CB  ARG d   1      49.650 -33.283  -4.951  0.00  0.00    -0.036 C 
ATOM     34  H14 ARG d   1      48.569 -33.430  -5.092  0.00  0.00     0.036 H 
ATOM     35  H15 ARG d   1      50.011 -32.518  -5.654  0.00  0.00     0.036 H 
BRANCH  33  36
ATOM     36  CG  ARG d   1      49.922 -32.816  -3.495  0.00  0.00    -0.048 C 
ATOM     37  H16 ARG d   1      49.487 -31.816  -3.351  0.00  0.00     0.035 H 
ATOM     38  H17 ARG d   1      51.008 -32.771  -3.329  0.00  0.00     0.035 H 
BRANCH  36  39
ATOM     39  CD  ARG d   1      49.295 -33.791  -2.473  0.00  0.00     0.009 C 
ATOM     40  H18 ARG d   1      49.751 -34.784  -2.599  0.00  0.00     0.064 H 
ATOM     41  H19 ARG d   1      48.213 -33.858  -2.659  0.00  0.00     0.064 H 
BRANCH  39  42
ATOM     42  NE  ARG d   1      49.518 -33.329  -1.076  0.00  0.00    -0.227 N 
ATOM     43  CZ  ARG d   1      50.414 -33.893  -0.231  0.00  0.00     0.665 C 
ATOM     44  NH1 ARG d   1      50.533 -33.448   1.040  0.00  0.00    -0.235 N 
ATOM     45  NH2 ARG d   1      51.179 -34.921  -0.640  0.00  0.00    -0.235 N 
ATOM     46  H21 ARG d   1      51.217 -33.883   1.676  0.00  0.00     0.174 HD
ATOM     47  H22 ARG d   1      49.940 -32.674   1.373  0.00  0.00     0.174 HD
ATOM     48  H23 ARG d   1      51.099 -35.270  -1.606  0.00  0.00     0.174 HD
ATOM     49  H24 ARG d   1      51.845 -35.359   0.012  0.00  0.00     0.174 HD
ATOM     50  H20 ARG d   1      48.959 -32.535  -0.732  0.00  0.00     0.177 HD
ENDBRANCH  39  42
ENDBRANCH  36  39
ENDBRANCH  33  36
ENDBRANCH   7  33
ENDBRANCH   4   7
ENDBRANCH   1   3
BRANCH   1  51
ATOM     51  CB  TBG d   1      49.378 -38.303  -7.904  0.00  0.00    -0.022 C 
BRANCH  51  52
ATOM     52  CG1 TBG d   1      49.233 -38.996  -9.267  0.00  0.00    -0.067 C 
ATOM     53  H27 TBG d   1      49.519 -40.054  -9.173  0.00  0.00     0.028 H 
ATOM     54  H28 TBG d   1      49.888 -38.503 -10.001  0.00  0.00     0.028 H 
ATOM     55  H29 TBG d   1      48.188 -38.927  -9.604  0.00  0.00     0.028 H 
ENDBRANCH  51  52
BRANCH  51  56
ATOM     56  CG2 TBG d   1      50.832 -38.430  -7.414  0.00  0.00    -0.067 C 
ATOM     57  H30 TBG d   1      50.935 -37.933  -6.438  0.00  0.00     0.028 H 
ATOM     58  H31 TBG d   1      51.507 -37.954  -8.140  0.00  0.00     0.028 H 
ATOM     59  H32 TBG d   1      51.093 -39.494  -7.314  0.00  0.00     0.028 H 
ENDBRANCH  51  56
BRANCH  51  60
ATOM     60  CG3 TBG d   1      48.484 -39.012  -6.875  0.00  0.00    -0.067 C 
ATOM     61  H33 TBG d   1      47.433 -38.942  -7.192  0.00  0.00     0.028 H 
ATOM     62  H34 TBG d   1      48.603 -38.531  -5.893  0.00  0.00     0.028 H 
ATOM     63  H35 TBG d   1      48.776 -40.070  -6.803  0.00  0.00     0.028 H 
ENDBRANCH  51  60
ENDBRANCH   1  51
BRANCH   1  64
ATOM     64  C   TBG d   1      47.493 -36.687  -8.402  0.00  0.00     0.241 C 
ATOM     65  O   TBG d   1      46.639 -36.660  -7.524  0.00  0.00    -0.271 OA
ATOM     66  N   ARG d   1      47.212 -36.603  -9.718  0.00  0.00    -0.346 N 
ATOM     67  H36 ARG d   1      47.971 -36.577 -10.368  0.00  0.00     0.163 HD
BRANCH  66  68
ATOM     68  CA  ARG d   1      45.841 -36.548 -10.239  0.00  0.00     0.089 C 
ATOM     69  H37 ARG d   1      45.268 -35.727  -9.783  0.00  0.00     0.087 H 
BRANCH  68  70
ATOM     70  C   ARG d   1      45.238 -37.916  -9.893  0.00  0.00     0.240 C 
ATOM     71  O   ARG d   1      45.889 -38.932 -10.120  0.00  0.00    -0.271 OA
ATOM     72  N23 00S d   1      44.033 -37.932  -9.298  0.00  0.00    -0.355 N 
ATOM     73  H49 00S d   1      43.549 -37.067  -9.169  0.00  0.00     0.162 HD
BRANCH  72  74
ATOM     74  C16 00S d   1      43.396 -39.180  -8.827  0.00  0.00     0.019 C 
ATOM     75  H50 00S d   1      43.896 -40.051  -9.276  0.00  0.00     0.071 H 
ATOM     76  H51 00S d   1      42.331 -39.186  -9.102  0.00  0.00     0.071 H 
BRANCH  74  77
ATOM     77  C17 00S d   1      43.536 -39.215  -7.397  0.00  0.00    -0.040 A 
ATOM     78  C22 00S d   1      42.545 -38.724  -6.551  0.00  0.00    -0.074 A 
ATOM     79  C21 00S d   1      42.702 -38.739  -5.153  0.00  0.00    -0.069 A 
ATOM     80  H52 00S d   1      41.634 -38.322  -6.978  0.00  0.00     0.084 H 
ATOM     81  C24 00S d   1      43.858 -39.247  -4.550  0.00  0.00     0.007 A 
ATOM     82  H53 00S d   1      41.908 -38.347  -4.528  0.00  0.00     0.085 H 
ATOM     83  C19 00S d   1      44.852 -39.735  -5.397  0.00  0.00    -0.069 A 
ATOM     84  C18 00S d   1      44.691 -39.718  -6.796  0.00  0.00    -0.074 A 
ATOM     85  H58 00S d   1      45.765 -40.135  -4.971  0.00  0.00     0.085 H 
ATOM     86  H59 00S d   1      45.486 -40.106  -7.423  0.00  0.00     0.084 H 
BRANCH  81  87
ATOM     87  C27 00S d   1      44.012 -39.261  -3.134  0.00  0.00     0.102 C 
ATOM     88  N34 00S d   1      42.979 -38.925  -2.362  0.00  0.00    -0.385 N 
ATOM     89  H56 00S d   1      42.070 -38.697  -2.789  0.00  0.00     0.157 HD
ATOM     90  H57 00S d   1      43.090 -38.893  -1.339  0.00  0.00     0.157 HD
BRANCH  87  91
ATOM     91  N35 00S d   1      45.196 -39.558  -2.585  0.00  0.00    -0.385 N 
ATOM     92  H54 00S d   1      45.301 -39.566  -1.560  0.00  0.00     0.157 HD
ATOM     93  H55 00S d   1      46.002 -39.778  -3.187  0.00  0.00     0.157 HD
ENDBRANCH  87  91
ENDBRANCH  81  87
ENDBRANCH  74  77
ENDBRANCH  72  74
ENDBRANCH  68  70
BRANCH  68  94
ATOM     94  CB  ARG d   1      45.890 -36.391 -11.760  0.00  0.00    -0.036 C 
ATOM     95  H38 ARG d   1      44.889 -36.588 -12.171  0.00  0.00     0.036 H 
ATOM     96  H39 ARG d   1      46.605 -37.120 -12.170  0.00  0.00     0.036 H 
BRANCH  94  97
ATOM     97  CG  ARG d   1      46.330 -34.971 -12.177  0.00  0.00    -0.048 C 
ATOM     98  H40 ARG d   1      47.223 -34.675 -11.607  0.00  0.00     0.035 H 
ATOM     99  H41 ARG d   1      45.517 -34.256 -11.981  0.00  0.00     0.035 H 
BRANCH  97 100
ATOM    100  CD  ARG d   1      46.655 -34.992 -13.683  0.00  0.00     0.009 C 
ATOM    101  H42 ARG d   1      45.752 -35.292 -14.236  0.00  0.00     0.064 H 
ATOM    102  H43 ARG d   1      47.455 -35.725 -13.862  0.00  0.00     0.064 H 
BRANCH 100 103
ATOM    103  NE  ARG d   1      47.099 -33.674 -14.178  0.00  0.00    -0.227 N 
ATOM    104  CZ  ARG d   1      48.375 -33.252 -14.097  0.00  0.00     0.665 C 
ATOM    105  NH1 ARG d   1      49.299 -34.026 -13.508  0.00  0.00    -0.235 N 
ATOM    106  NH2 ARG d   1      48.729 -32.053 -14.582  0.00  0.00    -0.235 N 
ATOM    107  H45 ARG d   1      50.276 -33.705 -13.445  0.00  0.00     0.174 HD
ATOM    108  H46 ARG d   1      49.032 -34.941 -13.119  0.00  0.00     0.174 HD
ATOM    109  H47 ARG d   1      48.026 -31.453 -15.036  0.00  0.00     0.174 HD
ATOM    110  H48 ARG d   1      49.704 -31.732 -14.501  0.00  0.00     0.174 HD
ATOM    111  H44 ARG d   1      46.401 -33.049 -14.605  0.00  0.00     0.177 HD
ENDBRANCH 100 103
ENDBRANCH  97 100
ENDBRANCH  94  97
ENDBRANCH  68  94
ENDBRANCH  66  68
ENDBRANCH   1  64
TORSDOF 26
