REMARK WARNING: 32 MAX_TORS EXCEEDED!!!
REMARK  33 active torsions:
REMARK  status: ('A' for Active; 'I' for Inactive)
REMARK    1  A    between atoms: N_1  and  CA_2 
REMARK    2  A    between atoms: CA_2  and  C_3 
REMARK    3  A    between atoms: CA_2  and  CB_5 
REMARK       I    between atoms: C_3  and  N_12 
REMARK    4  A    between atoms: CB_5  and  CG_6 
REMARK    5  A    between atoms: CG_6  and  CD_7 
REMARK    6  A    between atoms: CD_7  and  NE_8 
REMARK       I    between atoms: NE_8  and  CZ_9 
REMARK       I    between atoms: CZ_9  and  NH1_10 
REMARK       I    between atoms: CZ_9  and  NH2_11 
REMARK    7  A    between atoms: N_12  and  CA_13 
REMARK    8  A    between atoms: CA_13  and  C_14 
REMARK    9  A    between atoms: CA_13  and  CB_16 
REMARK       I    between atoms: C_14  and  N_23 
REMARK   10  A    between atoms: CB_16  and  CG_17 
REMARK   11  A    between atoms: CG_17  and  CD_18 
REMARK   12  A    between atoms: CD_18  and  NE_19 
REMARK       I    between atoms: NE_19  and  CZ_20 
REMARK       I    between atoms: CZ_20  and  NH1_21 
REMARK       I    between atoms: CZ_20  and  NH2_22 
REMARK   13  A    between atoms: N_23  and  CA_24 
REMARK   14  A    between atoms: CA_24  and  C_25 
REMARK   15  A    between atoms: CA_24  and  CB_27 
REMARK       I    between atoms: C_25  and  N_34 
REMARK   16  A    between atoms: CB_27  and  CG_28 
REMARK   17  A    between atoms: CG_28  and  CD_29 
REMARK   18  A    between atoms: CD_29  and  NE_30 
REMARK       I    between atoms: NE_30  and  CZ_31 
REMARK       I    between atoms: CZ_31  and  NH1_32 
REMARK       I    between atoms: CZ_31  and  NH2_33 
REMARK   19  A    between atoms: N_34  and  CA_35 
REMARK   20  A    between atoms: CA_35  and  C_36 
REMARK   21  A    between atoms: CA_35  and  CB_38 
REMARK       I    between atoms: C_36  and  N_41 
REMARK   22  A    between atoms: CB_38  and  CG1_39 
REMARK   23  A    between atoms: CB_38  and  CG2_40 
REMARK   24  A    between atoms: N_41  and  CA_42 
REMARK   25  A    between atoms: CA_42  and  C_43 
REMARK   26  A    between atoms: CA_42  and  CB_45 
REMARK       I    between atoms: C_43  and  N23_52 
REMARK   27  A    between atoms: CB_45  and  CG_46 
REMARK   28  A    between atoms: CG_46  and  CD_47 
REMARK   29  A    between atoms: CD_47  and  NE_48 
REMARK       I    between atoms: NE_48  and  CZ_49 
REMARK       I    between atoms: CZ_49  and  NH1_50 
REMARK   30  A    between atoms: N23_52  and  C16_53 
REMARK   31  A    between atoms: C16_53  and  C17_54 
REMARK   32  A    between atoms: C24_57  and  C27_58 
REMARK   33  A    between atoms: C27_58  and  N35_59 
ROOT
ATOM      1  CA  ARG d   1      50.532 -34.414  -4.973  0.00  0.00     0.089 C 
ATOM      2  H30 ARG d   1      50.171 -35.194  -4.287  0.00  0.00     0.087 H 
ENDROOT
BRANCH   1   3
ATOM      3  N   ARG d   1      51.988 -34.220  -4.783  0.00  0.00    -0.346 N 
ATOM      4  C   ARG d   1      52.654 -34.715  -3.716  0.00  0.00     0.241 C 
ATOM      5  O   ARG d   1      52.105 -35.350  -2.815  0.00  0.00    -0.271 OA
ATOM      6  H29 ARG d   1      52.498 -33.703  -5.471  0.00  0.00     0.163 HD
BRANCH   4   7
ATOM      7  CA  ARG d   1      54.168 -34.408  -3.646  0.00  0.00     0.089 C 
ATOM      8  H17 ARG d   1      54.663 -35.146  -2.998  0.00  0.00     0.087 H 
BRANCH   7   9
ATOM      9  N   ARG d   1      54.719 -34.489  -4.999  0.00  0.00    -0.346 N 
ATOM     10  C   ARG d   1      54.852 -35.683  -5.577  0.00  0.00     0.248 C 
ATOM     11  O   ARG d   1      54.548 -36.731  -5.012  0.00  0.00    -0.271 OA
ATOM     12  H16 ARG d   1      54.993 -33.659  -5.484  0.00  0.00     0.163 HD
BRANCH  10  13
ATOM     13  CA  ARG d   1      55.378 -35.683  -7.013  0.00  0.00     0.176 C 
ATOM     14  H4  ARG d   1      55.998 -34.788  -7.172  0.00  0.00     0.099 H 
BRANCH  13  15
ATOM     15  N   ARG d   1      56.209 -36.874  -7.214  0.00  0.00    -0.067 N 
ATOM     16  H1  ARG d   1      56.561 -36.883  -8.159  0.00  0.00     0.275 HD
ATOM     17  H2  ARG d   1      55.655 -37.701  -7.054  0.00  0.00     0.275 HD
ATOM     18  H3  ARG d   1      56.982 -36.857  -6.568  0.00  0.00     0.275 HD
ENDBRANCH  13  15
BRANCH  13  19
ATOM     19  CB  ARG d   1      54.190 -35.641  -7.996  0.00  0.00    -0.029 C 
ATOM     20  H5  ARG d   1      53.454 -34.908  -7.633  0.00  0.00     0.036 H 
ATOM     21  H6  ARG d   1      53.726 -36.638  -8.036  0.00  0.00     0.036 H 
BRANCH  19  22
ATOM     22  CG  ARG d   1      54.627 -35.245  -9.402  0.00  0.00    -0.047 C 
ATOM     23  H7  ARG d   1      55.306 -36.010  -9.807  0.00  0.00     0.035 H 
ATOM     24  H8  ARG d   1      55.146 -34.276  -9.368  0.00  0.00     0.035 H 
BRANCH  22  25
ATOM     25  CD  ARG d   1      53.387 -35.133 -10.295  0.00  0.00     0.009 C 
ATOM     26  H9  ARG d   1      52.910 -36.119 -10.395  0.00  0.00     0.064 H 
ATOM     27  H10 ARG d   1      53.677 -34.764 -11.290  0.00  0.00     0.064 H 
BRANCH  25  28
ATOM     28  NE  ARG d   1      52.450 -34.189  -9.668  0.00  0.00    -0.227 N 
ATOM     29  CZ  ARG d   1      52.078 -33.020 -10.211  0.00  0.00     0.665 C 
ATOM     30  NH1 ARG d   1      52.562 -32.659 -11.415  0.00  0.00    -0.235 N 
ATOM     31  NH2 ARG d   1      51.225 -32.213  -9.555  0.00  0.00    -0.235 N 
ATOM     32  H12 ARG d   1      52.279 -31.762 -11.836  0.00  0.00     0.174 HD
ATOM     33  H13 ARG d   1      53.215 -33.279 -11.915  0.00  0.00     0.174 HD
ATOM     34  H14 ARG d   1      50.857 -32.492  -8.634  0.00  0.00     0.174 HD
ATOM     35  H15 ARG d   1      50.940 -31.316  -9.973  0.00  0.00     0.174 HD
ATOM     36  H11 ARG d   1      52.053 -34.442  -8.752  0.00  0.00     0.177 HD
ENDBRANCH  25  28
ENDBRANCH  22  25
ENDBRANCH  19  22
ENDBRANCH  13  19
ENDBRANCH  10  13
ENDBRANCH   7   9
BRANCH   7  37
ATOM     37  CB  ARG d   1      54.406 -32.998  -3.086  0.00  0.00    -0.036 C 
ATOM     38  H18 ARG d   1      53.887 -32.265  -3.721  0.00  0.00     0.036 H 
ATOM     39  H19 ARG d   1      55.485 -32.786  -3.088  0.00  0.00     0.036 H 
BRANCH  37  40
ATOM     40  CG  ARG d   1      53.867 -32.886  -1.633  0.00  0.00    -0.048 C 
ATOM     41  H20 ARG d   1      54.258 -33.719  -1.030  0.00  0.00     0.035 H 
ATOM     42  H21 ARG d   1      52.768 -32.925  -1.644  0.00  0.00     0.035 H 
BRANCH  40  43
ATOM     43  CD  ARG d   1      54.329 -31.546  -1.022  0.00  0.00     0.009 C 
ATOM     44  H22 ARG d   1      54.068 -30.733  -1.715  0.00  0.00     0.064 H 
ATOM     45  H23 ARG d   1      55.420 -31.577  -0.888  0.00  0.00     0.064 H 
BRANCH  43  46
ATOM     46  NE  ARG d   1      53.695 -31.275   0.291  0.00  0.00    -0.227 N 
ATOM     47  CZ  ARG d   1      52.494 -30.665   0.450  0.00  0.00     0.665 C 
ATOM     48  NH1 ARG d   1      51.788 -30.282  -0.631  0.00  0.00    -0.235 N 
ATOM     49  NH2 ARG d   1      52.001 -30.433   1.689  0.00  0.00    -0.235 N 
ATOM     50  H25 ARG d   1      50.876 -29.819  -0.513  0.00  0.00     0.174 HD
ATOM     51  H26 ARG d   1      52.160 -30.453  -1.576  0.00  0.00     0.174 HD
ATOM     52  H27 ARG d   1      52.537 -30.724   2.519  0.00  0.00     0.174 HD
ATOM     53  H28 ARG d   1      51.090 -29.966   1.802  0.00  0.00     0.174 HD
ATOM     54  H24 ARG d   1      54.200 -31.570   1.139  0.00  0.00     0.177 HD
ENDBRANCH  43  46
ENDBRANCH  40  43
ENDBRANCH  37  40
ENDBRANCH   7  37
ENDBRANCH   4   7
ENDBRANCH   1   3
BRANCH   1  55
ATOM     55  C   ARG d   1      50.289 -34.846  -6.419  0.00  0.00     0.241 C 
ATOM     56  O   ARG d   1      50.904 -34.290  -7.332  0.00  0.00    -0.271 OA
ATOM     57  N   VAL d   1      49.415 -35.855  -6.605  0.00  0.00    -0.346 N 
ATOM     58  H42 VAL d   1      48.934 -36.243  -5.819  0.00  0.00     0.163 HD
BRANCH  57  59
ATOM     59  CA  VAL d   1      49.160 -36.394  -7.957  0.00  0.00     0.092 C 
ATOM     60  H43 VAL d   1      49.725 -35.803  -8.693  0.00  0.00     0.088 H 
BRANCH  59  61
ATOM     61  C   VAL d   1      47.674 -36.344  -8.302  0.00  0.00     0.241 C 
ATOM     62  O   VAL d   1      46.826 -36.350  -7.413  0.00  0.00    -0.271 OA
ATOM     63  N   ARG d   1      47.398 -36.330  -9.618  0.00  0.00    -0.346 N 
ATOM     64  H51 ARG d   1      48.154 -36.293 -10.272  0.00  0.00     0.163 HD
BRANCH  63  65
ATOM     65  CA  ARG d   1      46.025 -36.367 -10.121  0.00  0.00     0.089 C 
ATOM     66  H52 ARG d   1      45.425 -35.543  -9.707  0.00  0.00     0.087 H 
BRANCH  65  67
ATOM     67  C   ARG d   1      45.465 -37.728  -9.713  0.00  0.00     0.240 C 
ATOM     68  O   ARG d   1      46.151 -38.733  -9.855  0.00  0.00    -0.271 OA
ATOM     69  N23 00S d   1      44.228 -37.747  -9.199  0.00  0.00    -0.355 N 
ATOM     70  H64 00S d   1      43.713 -36.892  -9.130  0.00  0.00     0.162 HD
BRANCH  69  71
ATOM     71  C16 00S d   1      43.609 -39.004  -8.733  0.00  0.00     0.019 C 
ATOM     72  H65 00S d   1      44.129 -39.865  -9.179  0.00  0.00     0.071 H 
ATOM     73  H66 00S d   1      42.548 -39.028  -9.021  0.00  0.00     0.071 H 
BRANCH  71  74
ATOM     74  C17 00S d   1      43.726 -39.049  -7.317  0.00  0.00    -0.040 A 
ATOM     75  C22 00S d   1      42.676 -38.648  -6.493  0.00  0.00    -0.074 A 
ATOM     76  C21 00S d   1      42.812 -38.685  -5.099  0.00  0.00    -0.069 A 
ATOM     77  H67 00S d   1      41.747 -38.305  -6.934  0.00  0.00     0.084 H 
ATOM     78  C24 00S d   1      43.982 -39.121  -4.490  0.00  0.00     0.007 A 
ATOM     79  H68 00S d   1      41.982 -38.365  -4.479  0.00  0.00     0.085 H 
ATOM     80  C19 00S d   1      45.025 -39.533  -5.312  0.00  0.00    -0.069 A 
ATOM     81  C18 00S d   1      44.899 -39.490  -6.712  0.00  0.00    -0.074 A 
ATOM     82  H73 00S d   1      45.947 -39.892  -4.868  0.00  0.00     0.085 H 
ATOM     83  H74 00S d   1      45.731 -39.806  -7.331  0.00  0.00     0.084 H 
BRANCH  78  84
ATOM     84  C27 00S d   1      44.099 -39.160  -3.077  0.00  0.00     0.102 C 
ATOM     85  N34 00S d   1      43.027 -38.911  -2.324  0.00  0.00    -0.385 N 
ATOM     86  H71 00S d   1      42.123 -38.697  -2.769  0.00  0.00     0.157 HD
ATOM     87  H72 00S d   1      43.103 -38.933  -1.297  0.00  0.00     0.157 HD
BRANCH  84  88
ATOM     88  N35 00S d   1      45.277 -39.439  -2.527  0.00  0.00    -0.385 N 
ATOM     89  H69 00S d   1      45.372 -39.470  -1.502  0.00  0.00     0.157 HD
ATOM     90  H70 00S d   1      46.094 -39.624  -3.126  0.00  0.00     0.157 HD
ENDBRANCH  84  88
ENDBRANCH  78  84
ENDBRANCH  71  74
ENDBRANCH  69  71
ENDBRANCH  65  67
BRANCH  65  91
ATOM     91  CB  ARG d   1      46.052 -36.308 -11.640  0.00  0.00    -0.036 C 
ATOM     92  H53 ARG d   1      45.040 -36.504 -12.025  0.00  0.00     0.036 H 
ATOM     93  H54 ARG d   1      46.743 -37.077 -12.017  0.00  0.00     0.036 H 
BRANCH  91  94
ATOM     94  CG  ARG d   1      46.518 -34.931 -12.134  0.00  0.00    -0.048 C 
ATOM     95  H55 ARG d   1      47.444 -34.640 -11.616  0.00  0.00     0.035 H 
ATOM     96  H56 ARG d   1      45.738 -34.180 -11.941  0.00  0.00     0.035 H 
BRANCH  94  97
ATOM     97  CD  ARG d   1      46.776 -35.042 -13.648  0.00  0.00     0.009 C 
ATOM     98  H57 ARG d   1      45.853 -35.366 -14.151  0.00  0.00     0.064 H 
ATOM     99  H58 ARG d   1      47.571 -35.781 -13.828  0.00  0.00     0.064 H 
BRANCH  97 100
ATOM    100  NE  ARG d   1      47.192 -33.742 -14.190  0.00  0.00    -0.227 N 
ATOM    101  CZ  ARG d   1      48.460 -33.299 -14.140  0.00  0.00     0.665 C 
ATOM    102  NH1 ARG d   1      48.785 -32.113 -14.682  0.00  0.00    -0.235 N 
ATOM    103  NH2 ARG d   1      49.402 -34.041 -13.544  0.00  0.00    -0.235 N 
ATOM    104  H60 ARG d   1      49.758 -31.777 -14.641  0.00  0.00     0.174 HD
ATOM    105  H61 ARG d   1      48.061 -31.540 -15.138  0.00  0.00     0.174 HD
ATOM    106  H62 ARG d   1      49.155 -34.950 -13.128  0.00  0.00     0.174 HD
ATOM    107  H63 ARG d   1      50.374 -33.703 -13.502  0.00  0.00     0.174 HD
ATOM    108  H59 ARG d   1      46.479 -33.142 -14.629  0.00  0.00     0.177 HD
ENDBRANCH  97 100
ENDBRANCH  94  97
ENDBRANCH  91  94
ENDBRANCH  65  91
ENDBRANCH  63  65
ENDBRANCH  59  61
BRANCH  59 109
ATOM    109  CB  VAL d   1      49.612 -37.868  -8.014  0.00  0.00    -0.033 C 
ATOM    110  H44 VAL d   1      49.407 -38.262  -9.020  0.00  0.00     0.042 H 
BRANCH 109 111
ATOM    111  CG1 VAL d   1      51.112 -37.985  -7.723  0.00  0.00    -0.071 C 
ATOM    112  H45 VAL d   1      51.413 -39.042  -7.769  0.00  0.00     0.028 H 
ATOM    113  H46 VAL d   1      51.323 -37.587  -6.720  0.00  0.00     0.028 H 
ATOM    114  H47 VAL d   1      51.677 -37.410  -8.472  0.00  0.00     0.028 H 
ENDBRANCH 109 111
BRANCH 109 115
ATOM    115  CG2 VAL d   1      48.846 -38.708  -6.976  0.00  0.00    -0.071 C 
ATOM    116  H48 VAL d   1      47.766 -38.635  -7.170  0.00  0.00     0.028 H 
ATOM    117  H49 VAL d   1      49.063 -38.330  -5.966  0.00  0.00     0.028 H 
ATOM    118  H50 VAL d   1      49.162 -39.759  -7.050  0.00  0.00     0.028 H 
ENDBRANCH 109 115
ENDBRANCH  59 109
ENDBRANCH  57  59
ENDBRANCH   1  55
BRANCH   1 119
ATOM    119  CB  ARG d   1      49.781 -33.103  -4.693  0.00  0.00    -0.036 C 
ATOM    120  H31 ARG d   1      48.706 -33.256  -4.868  0.00  0.00     0.036 H 
ATOM    121  H32 ARG d   1      50.155 -32.319  -5.369  0.00  0.00     0.036 H 
BRANCH 119 122
ATOM    122  CG  ARG d   1      50.001 -32.660  -3.226  0.00  0.00    -0.048 C 
ATOM    123  H33 ARG d   1      49.538 -31.673  -3.077  0.00  0.00     0.035 H 
ATOM    124  H34 ARG d   1      51.081 -32.592  -3.031  0.00  0.00     0.035 H 
BRANCH 122 125
ATOM    125  CD  ARG d   1      49.378 -33.657  -2.243  0.00  0.00     0.009 C 
ATOM    126  H35 ARG d   1      49.858 -34.638  -2.372  0.00  0.00     0.064 H 
ATOM    127  H36 ARG d   1      48.302 -33.745  -2.452  0.00  0.00     0.064 H 
BRANCH 125 128
ATOM    128  NE  ARG d   1      49.567 -33.202  -0.838  0.00  0.00    -0.227 N 
ATOM    129  CZ  ARG d   1      50.367 -33.814   0.056  0.00  0.00     0.665 C 
ATOM    130  NH1 ARG d   1      51.077 -34.891  -0.302  0.00  0.00    -0.235 N 
ATOM    131  NH2 ARG d   1      50.427 -33.378   1.331  0.00  0.00    -0.235 N 
ATOM    132  H38 ARG d   1      51.688 -35.357   0.384  0.00  0.00     0.174 HD
ATOM    133  H39 ARG d   1      51.012 -35.254  -1.264  0.00  0.00     0.174 HD
ATOM    134  H40 ARG d   1      49.885 -32.550   1.618  0.00  0.00     0.174 HD
ATOM    135  H41 ARG d   1      51.015 -33.873   2.017  0.00  0.00     0.174 HD
ATOM    136  H37 ARG d   1      49.052 -32.365  -0.530  0.00  0.00     0.177 HD
ENDBRANCH 125 128
ENDBRANCH 122 125
ENDBRANCH 119 122
ENDBRANCH   1 119
TORSDOF 33
