REMARK  3 active torsions:
REMARK  status: ('A' for Active; 'I' for Inactive)
REMARK    1  A    between atoms: CAE_5  and  CAF_6 
REMARK    2  A    between atoms: CAF_6  and  CAG_7 
REMARK       I    between atoms: CAG_7  and  N_9 
REMARK    3  A    between atoms: N_9  and  NAJ_10 
ROOT
ATOM      1  CAF I1L d   1      -2.275  -8.834 -18.678  0.00  0.00     0.071 C 
ATOM      2  H2  I1L d   1      -2.121  -8.967 -19.759  0.00  0.00     0.059 H 
ATOM      3  H3  I1L d   1      -1.373  -8.391 -18.230  0.00  0.00     0.059 H 
ENDROOT
BRANCH   1   4
ATOM      4  CAE I1L d   1      -2.492 -10.172 -18.068  0.00  0.00     0.180 A 
ATOM      5  NAD I1L d   1      -3.573 -10.633 -17.586  0.00  0.00    -0.138 NA
ATOM      6  NAB I1L d   1      -3.320 -11.881 -17.219  0.00  0.00    -0.176 N 
ATOM      7  NAA I1L d   1      -2.117 -12.141 -17.518  0.00  0.00    -0.049 NA
ATOM      8  H1  I1L d   1      -3.985 -12.526 -16.769  0.00  0.00     0.214 HD
ATOM      9  NAC I1L d   1      -1.575 -11.113 -18.081  0.00  0.00    -0.113 NA
ENDBRANCH   1   4
BRANCH   1  10
ATOM     10  CAG I1L d   1      -3.445  -7.861 -18.472  0.00  0.00     0.248 C 
ATOM     11  OAI I1L d   1      -4.558  -8.065 -18.836  0.00  0.00    -0.271 OA
ATOM     12  N   I1L d   1      -3.037  -6.794 -17.851  0.00  0.00    -0.190 N 
ATOM     13  H4  I1L d   1      -2.088  -6.694 -17.553  0.00  0.00     0.196 HD
BRANCH  12  14
ATOM     14  NAJ I1L d   1      -3.932  -5.848 -17.631  0.00  0.00     0.003 N 
ATOM     15  H5  I1L d   1      -3.496  -5.079 -17.146  0.00  0.00     0.303 HD
ATOM     16  H6  I1L d   1      -4.681  -6.219 -17.068  0.00  0.00     0.303 HD
ATOM     17  H7  I1L d   1      -4.302  -5.524 -18.511  0.00  0.00     0.303 HD
ENDBRANCH  12  14
ENDBRANCH   1  10
TORSDOF 3
