REMARK  10 active torsions:
REMARK  status: ('A' for Active; 'I' for Inactive)
REMARK    1  A    between atoms: N4_4  and  C7_7 
REMARK    2  A    between atoms: C7_7  and  C8_8 
REMARK    3  A    between atoms: C8_8  and  C9_9 
REMARK    4  A    between atoms: C9_9  and  C10_10 
REMARK    5  A    between atoms: C10_10  and  C11_11 
REMARK    6  A    between atoms: C11_11  and  C1_12 
REMARK    7  A    between atoms: C12_14  and  C17_19 
REMARK    8  A    between atoms: C13_15  and  O16_18 
REMARK    9  A    between atoms: C17_19  and  N18_20 
REMARK   10  A    between atoms: N18_20  and  O19_21 
ROOT
ATOM      1  C9  RM0 d   1      57.399 163.392 184.174  0.00  0.00    -0.063 C 
ATOM      2  H14 RM0 d   1      57.804 162.773 183.360  0.00  0.00     0.033 H 
ATOM      3  H15 RM0 d   1      57.877 164.382 184.155  0.00  0.00     0.033 H 
ENDROOT
BRANCH   1   4
ATOM      4  C8  RM0 d   1      57.779 162.721 185.497  0.00  0.00    -0.042 C 
ATOM      5  H12 RM0 d   1      57.311 163.269 186.328  0.00  0.00     0.035 H 
ATOM      6  H13 RM0 d   1      57.418 161.682 185.493  0.00  0.00     0.035 H 
BRANCH   4   7
ATOM      7  C7  RM0 d   1      59.306 162.726 185.683  0.00  0.00     0.084 C 
ATOM      8  H10 RM0 d   1      59.763 162.101 184.901  0.00  0.00     0.076 H 
ATOM      9  H11 RM0 d   1      59.673 163.758 185.589  0.00  0.00     0.076 H 
BRANCH   7  10
ATOM     10  N4  RM0 d   1      59.643 162.270 186.826  0.00  0.00    -0.067 N 
ATOM     11  C3  RM0 d   1      60.843 162.834 187.218  0.00  0.00     0.103 C 
ATOM     12  C2  RM0 d   1      61.467 162.157 188.444  0.00  0.00     0.042 C 
ATOM     13  H3  RM0 d   1      61.552 162.759 186.381  0.00  0.00     0.079 H 
ATOM     14  H4  RM0 d   1      60.668 163.893 187.457  0.00  0.00     0.079 H 
ATOM     15  O1  RM0 d   1      61.569 160.788 188.296  0.00  0.00    -0.388 OA
ATOM     16  H1  RM0 d   1      62.474 162.571 188.601  0.00  0.00     0.076 H 
ATOM     17  H2  RM0 d   1      60.841 162.371 189.322  0.00  0.00     0.076 H 
ATOM     18  C6  RM0 d   1      60.336 160.238 187.999  0.00  0.00     0.042 C 
ATOM     19  C5  RM0 d   1      59.696 160.887 186.764  0.00  0.00     0.103 C 
ATOM     20  H8  RM0 d   1      59.667 160.380 188.861  0.00  0.00     0.076 H 
ATOM     21  H9  RM0 d   1      60.464 159.162 187.808  0.00  0.00     0.076 H 
ATOM     22  H6  RM0 d   1      60.282 160.601 185.878  0.00  0.00     0.079 H 
ATOM     23  H7  RM0 d   1      58.670 160.504 186.663  0.00  0.00     0.079 H 
ATOM     24  H5  RM0 d   1      58.940 162.529 187.500  0.00  0.00     0.280 HD
ENDBRANCH   7  10
ENDBRANCH   4   7
ENDBRANCH   1   4
BRANCH   1  25
ATOM     25  C10 RM0 d   1      55.905 163.595 183.902  0.00  0.00    -0.060 C 
ATOM     26  H16 RM0 d   1      55.379 163.842 184.836  0.00  0.00     0.033 H 
ATOM     27  H17 RM0 d   1      55.471 162.683 183.467  0.00  0.00     0.033 H 
BRANCH  25  28
ATOM     28  C11 RM0 d   1      55.793 164.766 182.903  0.00  0.00    -0.025 C 
ATOM     29  H18 RM0 d   1      56.702 164.757 182.284  0.00  0.00     0.042 H 
ATOM     30  H19 RM0 d   1      55.758 165.696 183.490  0.00  0.00     0.042 H 
BRANCH  28  31
ATOM     31  C1  RM0 d   1      54.583 164.782 181.943  0.00  0.00     0.035 A 
ATOM     32  N5  RM0 d   1      54.762 164.411 180.674  0.00  0.00    -0.253 NA
ATOM     33  C12 RM0 d   1      53.770 164.422 179.790  0.00  0.00     0.100 A 
ATOM     34  C13 RM0 d   1      52.506 164.828 180.192  0.00  0.00     0.092 A 
ATOM     35  C14 RM0 d   1      52.265 165.231 181.509  0.00  0.00    -0.047 A 
ATOM     36  C15 RM0 d   1      53.340 165.208 182.409  0.00  0.00    -0.057 A 
ATOM     37  H20 RM0 d   1      51.279 165.551 181.824  0.00  0.00     0.087 H 
ATOM     38  H21 RM0 d   1      53.208 165.514 183.441  0.00  0.00     0.086 H 
BRANCH  33  39
ATOM     39  C17 RM0 d   1      54.015 163.987 178.341  0.00  0.00     0.159 C 
ATOM     40  H23 RM0 d   1      54.354 162.941 178.327  0.00  0.00     0.097 H 
ATOM     41  H24 RM0 d   1      54.788 164.629 177.894  0.00  0.00     0.097 H 
BRANCH  39  42
ATOM     42  N18 RM0 d   1      52.782 164.106 177.569  0.00  0.00    -0.063 N 
ATOM     43  H25 RM0 d   1      52.269 164.903 177.912  0.00  0.00     0.342 HD
ATOM     44  H26 RM0 d   1      52.237 163.270 177.711  0.00  0.00     0.342 HD
BRANCH  42  45
ATOM     45  O19 RM0 d   1      52.989 164.275 176.163  0.00  0.00    -0.198 OA
ATOM     46  H27 RM0 d   1      52.148 164.345 175.726  0.00  0.00     0.257 HD
ENDBRANCH  42  45
ENDBRANCH  39  42
ENDBRANCH  33  39
BRANCH  34  47
ATOM     47  O16 RM0 d   1      51.463 164.829 179.258  0.00  0.00    -0.359 OA
ATOM     48  H22 RM0 d   1      51.791 164.531 178.418  0.00  0.00     0.217 HD
ENDBRANCH  34  47
ENDBRANCH  28  31
ENDBRANCH  25  28
ENDBRANCH   1  25
TORSDOF 10
