REMARK  3 active torsions:
REMARK  status: ('A' for Active; 'I' for Inactive)
REMARK    1  A    between atoms: C9_9  and  C10_10 
REMARK    2  A    between atoms: N16_16  and  C17_17 
REMARK    3  A    between atoms: C22_22  and  C25_25 
ROOT
ATOM      1  C17 BYB d   1      18.421 -35.734  -8.319  0.00  0.00     0.028 C 
ATOM      2  C18 BYB d   1      17.630 -34.709  -7.471  0.00  0.00    -0.034 C 
ATOM      3  C19 BYB d   1      16.506 -35.409  -6.695  0.00  0.00    -0.059 C 
ATOM      4  C20 BYB d   1      17.109 -36.389  -5.676  0.00  0.00    -0.060 C 
ATOM      5  C21 BYB d   1      18.620 -36.539  -5.938  0.00  0.00    -0.039 C 
ATOM      6  C22 BYB d   1      18.832 -36.934  -7.418  0.00  0.00     0.054 C 
ATOM      7  C28 BYB d   1      18.629 -34.085  -6.480  0.00  0.00    -0.059 C 
ATOM      8  C29 BYB d   1      19.320 -35.199  -5.672  0.00  0.00    -0.060 C 
ATOM      9  H6  BYB d   1      19.326 -35.250  -8.715  0.00  0.00     0.074 H 
ATOM     10  H7  BYB d   1      17.201 -33.932  -8.120  0.00  0.00     0.043 H 
ATOM     11  H8  BYB d   1      15.866 -35.962  -7.398  0.00  0.00     0.033 H 
ATOM     12  H9  BYB d   1      15.904 -34.656  -6.165  0.00  0.00     0.033 H 
ATOM     13  H10 BYB d   1      16.620 -37.369  -5.777  0.00  0.00     0.033 H 
ATOM     14  H11 BYB d   1      16.950 -36.003  -4.658  0.00  0.00     0.033 H 
ATOM     15  H12 BYB d   1      19.038 -37.315  -5.279  0.00  0.00     0.041 H 
ATOM     16  H13 BYB d   1      18.168 -37.778  -7.657  0.00  0.00     0.060 H 
ATOM     17  H14 BYB d   1      18.093 -33.414  -5.793  0.00  0.00     0.033 H 
ATOM     18  H15 BYB d   1      19.386 -33.512  -7.035  0.00  0.00     0.033 H 
ATOM     19  H16 BYB d   1      20.375 -35.271  -5.976  0.00  0.00     0.033 H 
ATOM     20  H17 BYB d   1      19.262 -34.962  -4.599  0.00  0.00     0.033 H 
ENDROOT
BRANCH   1  21
ATOM     21  N16 BYB d   1      17.611 -36.214  -9.438  0.00  0.00    -0.366 N 
ATOM     22  C12 BYB d   1      17.458 -35.482 -10.573  0.00  0.00     0.166 A 
ATOM     23  N11 BYB d   1      18.114 -34.334 -10.719  0.00  0.00    -0.206 NA
ATOM     24  C13 BYB d   1      16.628 -35.927 -11.607  0.00  0.00     0.179 A 
ATOM     25  C10 BYB d   1      17.960 -33.656 -11.864  0.00  0.00     0.180 A 
ATOM     26  N15 BYB d   1      17.172 -34.035 -12.891  0.00  0.00    -0.236 NA
ATOM     27  C14 BYB d   1      16.491 -35.172 -12.749  0.00  0.00     0.045 A 
ATOM     28  H4  BYB d   1      15.825 -35.504 -13.538  0.00  0.00     0.119 H 
ATOM     29  F24 BYB d   1      15.943 -37.062 -11.472  0.00  0.00    -0.201 F 
ATOM     30  H5  BYB d   1      17.145 -37.130  -9.364  0.00  0.00     0.161 HD
BRANCH  25  31
ATOM     31  C9  BYB d   1      18.672 -32.381 -11.949  0.00  0.00     0.112 A 
ATOM     32  C5  BYB d   1      19.543 -31.805 -10.957  0.00  0.00     0.048 A 
ATOM     33  C4  BYB d   1      20.053 -32.171  -9.710  0.00  0.00    -0.028 A 
ATOM     34  C6  BYB d   1      19.900 -30.573 -11.527  0.00  0.00     0.181 A 
ATOM     35  C1  BYB d   1      20.889 -31.233  -9.145  0.00  0.00     0.134 A 
ATOM     36  H2  BYB d   1      19.812 -33.112  -9.228  0.00  0.00     0.089 H 
ATOM     37  C2  BYB d   1      21.163 -30.015  -9.762  0.00  0.00     0.042 A 
ATOM     38  F23 BYB d   1      21.413 -31.452  -7.933  0.00  0.00    -0.205 F 
ATOM     39  N3  BYB d   1      20.705 -29.690 -10.954  0.00  0.00    -0.236 NA
ATOM     40  H1  BYB d   1      21.784 -29.299  -9.236  0.00  0.00     0.119 H 
ATOM     41  N7  BYB d   1      19.301 -30.438 -12.733  0.00  0.00    -0.153 NA
ATOM     42  N8  BYB d   1      18.544 -31.551 -12.982  0.00  0.00    -0.272 N 
ATOM     43  H3  BYB d   1      17.974 -31.718 -13.823  0.00  0.00     0.189 HD
ENDBRANCH  25  31
ENDBRANCH   1  21
BRANCH   6  44
ATOM     44  C25 BYB d   1      20.258 -37.400  -7.619  0.00  0.00     0.179 C 
ATOM     45  O26 BYB d   1      21.092 -36.755  -8.225  0.00  0.00    -0.648 OA
ATOM     46  O27 BYB d   1      20.574 -38.573  -7.082  0.00  0.00    -0.648 OA
ENDBRANCH   6  44
TORSDOF 3
