REMARK  4 active torsions:
REMARK  status: ('A' for Active; 'I' for Inactive)
REMARK    1  A    between atoms: C9_9  and  C10_10 
REMARK    2  A    between atoms: C12_12  and  N16_16 
REMARK    3  A    between atoms: N16_16  and  C17_17 
REMARK    4  A    between atoms: C22_22  and  C25_25 
ROOT
ATOM      1  C17 BYB d   1      21.000 -24.909  -8.302  0.00  0.00     0.028 C 
ATOM      2  C18 BYB d   1      20.375 -24.602  -6.913  0.00  0.00    -0.034 C 
ATOM      3  C19 BYB d   1      18.831 -24.483  -7.009  0.00  0.00    -0.059 C 
ATOM      4  C20 BYB d   1      18.239 -25.778  -7.613  0.00  0.00    -0.060 C 
ATOM      5  C21 BYB d   1      19.384 -26.785  -7.859  0.00  0.00    -0.039 C 
ATOM      6  C22 BYB d   1      20.344 -26.180  -8.915  0.00  0.00     0.054 C 
ATOM      7  C28 BYB d   1      20.742 -25.769  -5.963  0.00  0.00    -0.059 C 
ATOM      8  C29 BYB d   1      20.123 -27.078  -6.521  0.00  0.00    -0.060 C 
ATOM      9  H6  BYB d   1      22.070 -25.117  -8.157  0.00  0.00     0.074 H 
ATOM     10  H7  BYB d   1      20.787 -23.659  -6.524  0.00  0.00     0.043 H 
ATOM     11  H8  BYB d   1      18.570 -23.629  -7.651  0.00  0.00     0.033 H 
ATOM     12  H9  BYB d   1      18.414 -24.326  -6.003  0.00  0.00     0.033 H 
ATOM     13  H10 BYB d   1      17.740 -25.547  -8.566  0.00  0.00     0.033 H 
ATOM     14  H11 BYB d   1      17.510 -26.212  -6.913  0.00  0.00     0.033 H 
ATOM     15  H12 BYB d   1      18.967 -27.726  -8.248  0.00  0.00     0.041 H 
ATOM     16  H13 BYB d   1      19.753 -25.870  -9.789  0.00  0.00     0.060 H 
ATOM     17  H14 BYB d   1      20.341 -25.569  -4.958  0.00  0.00     0.033 H 
ATOM     18  H15 BYB d   1      21.836 -25.871  -5.907  0.00  0.00     0.033 H 
ATOM     19  H16 BYB d   1      20.922 -27.813  -6.699  0.00  0.00     0.033 H 
ATOM     20  H17 BYB d   1      19.408 -27.484  -5.790  0.00  0.00     0.033 H 
ENDROOT
BRANCH   1  21
ATOM     21  N16 BYB d   1      20.886 -23.747  -9.198  0.00  0.00    -0.366 N 
ATOM     22  H5  BYB d   1      20.024 -23.619  -9.746  0.00  0.00     0.161 HD
BRANCH  21  23
ATOM     23  C12 BYB d   1      21.917 -22.813  -9.324  0.00  0.00     0.166 A 
ATOM     24  N11 BYB d   1      23.012 -22.848  -8.557  0.00  0.00    -0.206 NA
ATOM     25  C10 BYB d   1      23.990 -21.938  -8.686  0.00  0.00     0.180 A 
ATOM     26  N15 BYB d   1      23.920 -20.975  -9.606  0.00  0.00    -0.236 NA
ATOM     27  C14 BYB d   1      22.855 -20.869 -10.403  0.00  0.00     0.045 A 
ATOM     28  C13 BYB d   1      21.816 -21.792 -10.286  0.00  0.00     0.179 A 
ATOM     29  H4  BYB d   1      22.798 -20.072 -11.136  0.00  0.00     0.119 H 
ATOM     30  F24 BYB d   1      20.722 -21.721 -11.075  0.00  0.00    -0.201 F 
BRANCH  25  31
ATOM     31  C9  BYB d   1      25.202 -22.048  -7.845  0.00  0.00     0.112 A 
ATOM     32  C5  BYB d   1      25.466 -23.096  -6.856  0.00  0.00     0.048 A 
ATOM     33  C4  BYB d   1      24.734 -24.197  -6.376  0.00  0.00    -0.028 A 
ATOM     34  C6  BYB d   1      26.750 -22.840  -6.337  0.00  0.00     0.181 A 
ATOM     35  C1  BYB d   1      25.304 -25.006  -5.410  0.00  0.00     0.134 A 
ATOM     36  H2  BYB d   1      23.741 -24.408  -6.756  0.00  0.00     0.089 H 
ATOM     37  C2  BYB d   1      26.585 -24.699  -4.950  0.00  0.00     0.042 A 
ATOM     38  F23 BYB d   1      24.616 -26.080  -4.940  0.00  0.00    -0.205 F 
ATOM     39  N3  BYB d   1      27.256 -23.646  -5.399  0.00  0.00    -0.236 NA
ATOM     40  H1  BYB d   1      27.045 -25.338  -4.205  0.00  0.00     0.119 H 
ATOM     41  N7  BYB d   1      27.221 -21.724  -6.979  0.00  0.00    -0.153 NA
ATOM     42  N8  BYB d   1      26.268 -21.272  -7.897  0.00  0.00    -0.272 N 
ATOM     43  H3  BYB d   1      26.381 -20.458  -8.518  0.00  0.00     0.189 HD
ENDBRANCH  25  31
ENDBRANCH  21  23
ENDBRANCH   1  21
BRANCH   6  44
ATOM     44  C25 BYB d   1      21.350 -27.220  -9.388  0.00  0.00     0.179 C 
ATOM     45  O26 BYB d   1      20.917 -28.309 -10.040  0.00  0.00    -0.648 OA
ATOM     46  O27 BYB d   1      22.542 -27.107  -9.196  0.00  0.00    -0.648 OA
ENDBRANCH   6  44
TORSDOF 4
