REMARK  14 active torsions:
REMARK  status: ('A' for Active; 'I' for Inactive)
REMARK    1  A    between atoms: CA_2  and  C_3 
REMARK       I    between atoms: C_3  and  N_8 
REMARK    2  A    between atoms: CA_9  and  C_10 
REMARK       I    between atoms: C_10  and  N_15 
REMARK    3  A    between atoms: N_15  and  CA_16 
REMARK    4  A    between atoms: CA_16  and  C_17 
REMARK       I    between atoms: C_17  and  N_19 
REMARK    5  A    between atoms: CA_20  and  C_21 
REMARK       I    between atoms: C_21  and  N_26 
REMARK    6  A    between atoms: N_26  and  CA_27 
REMARK    7  A    between atoms: CA_27  and  C_28 
REMARK    8  A    between atoms: CA_27  and  CB_30 
REMARK       I    between atoms: C_28  and  N_31 
REMARK    9  A    between atoms: N_31  and  CA_32 
REMARK   10  A    between atoms: CA_32  and  C_33 
REMARK       I    between atoms: C_33  and  N_35 
REMARK   11  A    between atoms: CA_36  and  C_37 
REMARK       I    between atoms: C_37  and  N_42 
REMARK   12  A    between atoms: CA_43  and  C_44 
REMARK       I    between atoms: C_44  and  N_49 
REMARK   13  A    between atoms: N_49  and  CA_50 
REMARK   14  A    between atoms: CA_50  and  C_51 
ROOT
ATOM      1  C   PRO d   1      17.636 -12.774 -13.385  0.00  0.00     0.241 C 
ATOM      2  O   PRO d   1      16.641 -12.066 -13.540  0.00  0.00    -0.271 OA
ATOM      3  N   ALA d   1      18.439 -12.660 -12.343  0.00  0.00    -0.346 N 
ATOM      4  H27 ALA d   1      19.209 -13.290 -12.241  0.00  0.00     0.163 HD
ENDROOT
BRANCH   3   5
ATOM      5  CA  ALA d   1      18.220 -11.636 -11.348  0.00  0.00     0.086 C 
ATOM      6  H28 ALA d   1      17.526 -10.882 -11.747  0.00  0.00     0.086 H 
BRANCH   5   7
ATOM      7  C   ALA d   1      19.547 -10.977 -11.032  0.00  0.00     0.240 C 
ATOM      8  O   ALA d   1      20.534 -11.666 -10.754  0.00  0.00    -0.271 OA
ATOM      9  N   GLY d   1      19.563  -9.647 -11.061  0.00  0.00    -0.351 N 
ATOM     10  H32 GLY d   1      18.731  -9.155 -11.317  0.00  0.00     0.163 HD
BRANCH   9  11
ATOM     11  CA  GLY d   1      20.747  -8.900 -10.733  0.00  0.00     0.069 C 
ATOM     12  H33 GLY d   1      20.753  -7.964 -11.312  0.00  0.00     0.078 H 
ATOM     13  H34 GLY d   1      21.633  -9.498 -10.994  0.00  0.00     0.078 H 
BRANCH  11  14
ATOM     14  C   GLY d   1      20.793  -8.567  -9.252  0.00  0.00     0.238 C 
ATOM     15  O   GLY d   1      19.908  -8.954  -8.479  0.00  0.00    -0.272 OA
ATOM     16  N   PRO d   1      21.806  -7.817  -8.837  0.00  0.00    -0.337 N 
ATOM     17  CA  PRO d   1      21.887  -7.377  -7.450  0.00  0.00     0.092 C 
ATOM     18  CD  PRO d   1      23.005  -7.436  -9.608  0.00  0.00    -0.001 C 
ATOM     19  CB  PRO d   1      23.121  -6.453  -7.445  0.00  0.00    -0.036 C 
ATOM     20  H35 PRO d   1      22.031  -8.231  -6.772  0.00  0.00     0.087 H 
ATOM     21  CG  PRO d   1      23.963  -6.978  -8.559  0.00  0.00    -0.048 C 
ATOM     22  H36 PRO d   1      23.655  -6.518  -6.486  0.00  0.00     0.036 H 
ATOM     23  H37 PRO d   1      22.830  -5.409  -7.633  0.00  0.00     0.036 H 
ATOM     24  H38 PRO d   1      24.580  -7.819  -8.210  0.00  0.00     0.035 H 
ATOM     25  H39 PRO d   1      24.614  -6.184  -8.954  0.00  0.00     0.035 H 
ATOM     26  H40 PRO d   1      22.777  -6.624 -10.314  0.00  0.00     0.064 H 
ATOM     27  H41 PRO d   1      23.408  -8.298 -10.159  0.00  0.00     0.064 H 
BRANCH  17  28
ATOM     28  C   PRO d   1      20.636  -6.618  -7.052  0.00  0.00     0.243 C 
ATOM     29  O   PRO d   1      20.069  -5.848  -7.848  0.00  0.00    -0.271 OA
ATOM     30  N   PRO d   1      20.173  -6.809  -5.816  0.00  0.00    -0.337 N 
ATOM     31  CA  PRO d   1      18.990  -6.075  -5.358  0.00  0.00     0.091 C 
ATOM     32  CD  PRO d   1      20.586  -7.856  -4.866  0.00  0.00    -0.001 C 
ATOM     33  CB  PRO d   1      18.759  -6.642  -3.948  0.00  0.00    -0.036 C 
ATOM     34  H42 PRO d   1      18.131  -6.296  -6.009  0.00  0.00     0.087 H 
ATOM     35  CG  PRO d   1      19.382  -8.002  -3.982  0.00  0.00    -0.048 C 
ATOM     36  H43 PRO d   1      17.683  -6.713  -3.729  0.00  0.00     0.036 H 
ATOM     37  H44 PRO d   1      19.246  -6.010  -3.191  0.00  0.00     0.036 H 
ATOM     38  H45 PRO d   1      18.681  -8.738  -4.402  0.00  0.00     0.035 H 
ATOM     39  H46 PRO d   1      19.681  -8.316  -2.971  0.00  0.00     0.035 H 
ATOM     40  H47 PRO d   1      21.466  -7.540  -4.287  0.00  0.00     0.064 H 
ATOM     41  H48 PRO d   1      20.810  -8.798  -5.388  0.00  0.00     0.064 H 
BRANCH  31  42
ATOM     42  C   PRO d   1      19.191  -4.577  -5.321  0.00  0.00     0.241 C 
ATOM     43  O   PRO d   1      18.206  -3.833  -5.403  0.00  0.00    -0.271 OA
ATOM     44  N   GLY d   1      20.431  -4.113  -5.211  0.00  0.00    -0.349 N 
ATOM     45  H49 GLY d   1      21.189  -4.765  -5.205  0.00  0.00     0.163 HD
BRANCH  44  46
ATOM     46  CA  GLY d   1      20.728  -2.701  -5.099  0.00  0.00     0.075 C 
ATOM     47  H50 GLY d   1      20.382  -2.325  -4.125  0.00  0.00     0.080 H 
ATOM     48  H51 GLY d   1      20.222  -2.151  -5.905  0.00  0.00     0.080 H 
BRANCH  46  49
ATOM     49  C   GLY d   1      22.224  -2.513  -5.215  0.00  0.00     0.191 C 
ATOM     50  O   GLY d   1      22.908  -3.454  -5.612  0.00  0.00    -0.647 OA
ATOM     51  OXT GLY d   1      22.788  -1.465  -4.895  0.00  0.00    -0.647 OA
ENDBRANCH  46  49
ENDBRANCH  44  46
ENDBRANCH  31  42
ENDBRANCH  17  28
ENDBRANCH  11  14
ENDBRANCH   9  11
ENDBRANCH   5   7
BRANCH   5  52
ATOM     52  CB  ALA d   1      17.614 -12.253 -10.090  0.00  0.00    -0.049 C 
ATOM     53  H29 ALA d   1      17.451 -11.467  -9.338  0.00  0.00     0.030 H 
ATOM     54  H30 ALA d   1      18.302 -13.010  -9.685  0.00  0.00     0.030 H 
ATOM     55  H31 ALA d   1      16.653 -12.726 -10.340  0.00  0.00     0.030 H 
ENDBRANCH   5  52
ENDBRANCH   3   5
BRANCH   1  56
ATOM     56  CA  PRO d   1      18.047 -13.841 -14.380  0.00  0.00     0.091 C 
ATOM     57  N   PRO d   1      17.003 -14.027 -15.384  0.00  0.00    -0.337 N 
ATOM     58  C   GLY d   1      15.907 -14.712 -15.097  0.00  0.00     0.238 C 
ATOM     59  CD  PRO d   1      17.337 -13.362 -16.650  0.00  0.00    -0.001 C 
ATOM     60  O   GLY d   1      15.762 -15.279 -14.014  0.00  0.00    -0.272 OA
ATOM     61  CG  PRO d   1      18.592 -12.598 -16.327  0.00  0.00    -0.048 C 
ATOM     62  H25 PRO d   1      16.531 -12.681 -16.960  0.00  0.00     0.064 H 
ATOM     63  H26 PRO d   1      17.520 -14.100 -17.445  0.00  0.00     0.064 H 
ATOM     64  CB  PRO d   1      19.236 -13.370 -15.209  0.00  0.00    -0.036 C 
ATOM     65  H23 PRO d   1      19.257 -12.557 -17.203  0.00  0.00     0.035 H 
ATOM     66  H24 PRO d   1      18.350 -11.575 -16.002  0.00  0.00     0.035 H 
ATOM     67  H21 PRO d   1      19.808 -14.225 -15.599  0.00  0.00     0.036 H 
ATOM     68  H22 PRO d   1      19.900 -12.724 -14.615  0.00  0.00     0.036 H 
ATOM     69  H20 PRO d   1      18.271 -14.780 -13.853  0.00  0.00     0.087 H 
BRANCH  58  70
ATOM     70  CA  GLY d   1      14.856 -14.770 -16.186  0.00  0.00     0.069 C 
ATOM     71  H18 GLY d   1      14.494 -13.747 -16.366  0.00  0.00     0.078 H 
ATOM     72  H19 GLY d   1      15.332 -15.157 -17.099  0.00  0.00     0.078 H 
BRANCH  70  73
ATOM     73  N   GLY d   1      13.715 -15.603 -15.887  0.00  0.00    -0.351 N 
ATOM     74  C   PRO d   1      12.767 -15.806 -16.802  0.00  0.00     0.241 C 
ATOM     75  O   PRO d   1      12.815 -15.314 -17.933  0.00  0.00    -0.271 OA
ATOM     76  H17 GLY d   1      13.635 -16.031 -14.987  0.00  0.00     0.163 HD
BRANCH  74  77
ATOM     77  CA  PRO d   1      11.602 -16.688 -16.379  0.00  0.00     0.091 C 
ATOM     78  N   PRO d   1      10.371 -15.895 -16.249  0.00  0.00    -0.337 N 
ATOM     79  C   PRO d   1      10.171 -15.105 -15.181  0.00  0.00     0.251 C 
ATOM     80  CD  PRO d   1       9.524 -15.999 -17.454  0.00  0.00    -0.001 C 
ATOM     81  O   PRO d   1      11.030 -14.902 -14.320  0.00  0.00    -0.271 OA
ATOM     82  CG  PRO d   1      10.289 -16.959 -18.353  0.00  0.00    -0.048 C 
ATOM     83  H15 PRO d   1       9.408 -15.018 -17.937  0.00  0.00     0.064 H 
ATOM     84  H16 PRO d   1       8.533 -16.404 -17.203  0.00  0.00     0.064 H 
ATOM     85  CB  PRO d   1      11.234 -17.708 -17.467  0.00  0.00    -0.036 C 
ATOM     86  H13 PRO d   1       9.594 -17.657 -18.843  0.00  0.00     0.035 H 
ATOM     87  H14 PRO d   1      10.848 -16.400 -19.118  0.00  0.00     0.035 H 
ATOM     88  H11 PRO d   1      10.744 -18.590 -17.028  0.00  0.00     0.036 H 
ATOM     89  H12 PRO d   1      12.127 -18.025 -18.026  0.00  0.00     0.036 H 
ATOM     90  H10 PRO d   1      11.851 -17.193 -15.434  0.00  0.00     0.087 H 
BRANCH  79  91
ATOM     91  CA  PRO d   1       8.805 -14.430 -15.046  0.00  0.00     0.178 C 
ATOM     92  N   PRO d   1       8.637 -13.804 -13.729  0.00  0.00    -0.062 N 
ATOM     93  CD  PRO d   1       8.328 -12.368 -13.834  0.00  0.00     0.083 C 
ATOM     94  H1  PRO d   1       9.491 -13.915 -13.205  0.00  0.00     0.278 HD
ATOM     95  H2  PRO d   1       7.883 -14.264 -13.244  0.00  0.00     0.278 HD
ATOM     96  CG  PRO d   1       7.889 -12.221 -15.256  0.00  0.00    -0.040 C 
ATOM     97  H8  PRO d   1       9.219 -11.756 -13.630  0.00  0.00     0.075 H 
ATOM     98  H9  PRO d   1       7.522 -12.085 -13.140  0.00  0.00     0.075 H 
ATOM     99  CB  PRO d   1       8.667 -13.250 -16.016  0.00  0.00    -0.028 C 
ATOM    100  H6  PRO d   1       6.809 -12.409 -15.348  0.00  0.00     0.035 H 
ATOM    101  H7  PRO d   1       8.118 -11.212 -15.628  0.00  0.00     0.035 H 
ATOM    102  H4  PRO d   1       8.124 -13.555 -16.923  0.00  0.00     0.036 H 
ATOM    103  H5  PRO d   1       9.657 -12.860 -16.295  0.00  0.00     0.036 H 
ATOM    104  H3  PRO d   1       8.016 -15.176 -15.225  0.00  0.00     0.099 H 
ENDBRANCH  79  91
ENDBRANCH  74  77
ENDBRANCH  70  73
ENDBRANCH  58  70
ENDBRANCH   1  56
TORSDOF 14
