REMARK  6 active torsions:
REMARK  status: ('A' for Active; 'I' for Inactive)
REMARK    1  A    between atoms: C1_20  and  C2_1 
REMARK    2  A    between atoms: C8_3  and  C9_24 
REMARK    3  A    between atoms: C9_24  and  C10_4 
REMARK    4  A    between atoms: C16_10  and  C17_18 
REMARK       I    between atoms: N6_22  and  C16_10 
REMARK    5  A    between atoms: C20_12  and  S24_25 
REMARK       I    between atoms: N3_17  and  C1_20 
REMARK    6  A    between atoms: S24_25  and  N27_28 
ROOT
ATOM      1  O23 BZW d   1      12.976  32.563  15.845  0.00  0.00    -0.267 OA
ATOM      2  C8  BZW d   1      10.212  35.588  14.649  0.00  0.00     0.034 C 
ATOM      3  C16 BZW d   1      12.733  33.736  16.028  0.00  0.00     0.253 C 
ATOM      4  C5  BZW d   1      12.322  34.019  13.644  0.00  0.00     0.013 C 
ATOM      5  C4  BZW d   1      10.919  33.914  13.080  0.00  0.00     0.013 C 
ATOM      6  N3  BZW d   1      10.234  35.211  13.215  0.00  0.00    -0.344 N 
ATOM      7  C1  BZW d   1       9.620  35.929  12.262  0.00  0.00     0.216 C 
ATOM      8  O1  BZW d   1       9.001  36.929  12.556  0.00  0.00    -0.274 OA
ATOM      9  N6  BZW d   1      12.271  34.524  15.035  0.00  0.00    -0.344 N 
ATOM     10  C7  BZW d   1      11.624  35.828  15.149  0.00  0.00     0.017 C 
ATOM     11  H4  BZW d   1       9.720  36.571  14.698  0.00  0.00     0.075 H 
ATOM     12  H13 BZW d   1      12.912  34.712  13.026  0.00  0.00     0.066 H 
ATOM     13  H14 BZW d   1      12.794  33.026  13.634  0.00  0.00     0.066 H 
ATOM     14  H15 BZW d   1      10.359  33.145  13.632  0.00  0.00     0.066 H 
ATOM     15  H16 BZW d   1      10.972  33.637  12.017  0.00  0.00     0.066 H 
ATOM     16  H18 BZW d   1      11.615  36.169  16.195  0.00  0.00     0.067 H 
ATOM     17  H19 BZW d   1      12.137  36.574  14.525  0.00  0.00     0.067 H 
ENDROOT
BRANCH   3  18
ATOM     18  C17 BZW d   1      13.164  34.371  17.323  0.00  0.00     0.032 C 
ATOM     19  C22 BZW d   1      14.012  35.475  17.246  0.00  0.00    -0.066 C 
ATOM     20  C21 BZW d   1      14.412  36.142  18.403  0.00  0.00    -0.059 C 
ATOM     21  H12 BZW d   1      14.363  35.817  16.279  0.00  0.00     0.085 H 
ATOM     22  C20 BZW d   1      14.038  35.639  19.630  0.00  0.00     0.079 C 
ATOM     23  H11 BZW d   1      15.009  37.044  18.338  0.00  0.00     0.085 H 
ATOM     24  C19 BZW d   1      13.330  34.436  19.724  0.00  0.00    -0.059 C 
ATOM     25  C18 BZW d   1      12.828  33.856  18.572  0.00  0.00    -0.066 C 
ATOM     26  H10 BZW d   1      13.176  33.964  20.688  0.00  0.00     0.085 H 
ATOM     27  H17 BZW d   1      12.170  32.997  18.642  0.00  0.00     0.085 H 
BRANCH  22  28
ATOM     28  S24 BZW d   1      14.598  36.391  21.133  0.00  0.00     0.256 S 
ATOM     29  O25 BZW d   1      14.812  35.298  22.030  0.00  0.00    -0.201 OA
ATOM     30  O26 BZW d   1      13.635  37.443  21.473  0.00  0.00    -0.201 OA
BRANCH  28  31
ATOM     31  N27 BZW d   1      16.004  37.129  20.826  0.00  0.00    -0.324 N 
ATOM     32  H22 BZW d   1      16.483  37.616  21.556  0.00  0.00     0.169 HD
ATOM     33  H23 BZW d   1      16.394  37.099  19.906  0.00  0.00     0.169 HD
ENDBRANCH  28  31
ENDBRANCH  22  28
ENDBRANCH   3  18
BRANCH   2  34
ATOM     34  C9  BZW d   1       9.311  34.657  15.489  0.00  0.00    -0.021 C 
ATOM     35  H20 BZW d   1       9.130  35.126  16.468  0.00  0.00     0.043 H 
ATOM     36  H21 BZW d   1       9.828  33.697  15.632  0.00  0.00     0.043 H 
BRANCH  34  37
ATOM     37  C10 BZW d   1       7.985  34.400  14.821  0.00  0.00    -0.056 A 
ATOM     38  C11 BZW d   1       7.097  35.450  14.593  0.00  0.00    -0.077 A 
ATOM     39  C12 BZW d   1       5.946  35.247  13.837  0.00  0.00    -0.082 A 
ATOM     40  H5  BZW d   1       7.304  36.430  15.007  0.00  0.00     0.084 H 
ATOM     41  C13 BZW d   1       5.632  33.974  13.381  0.00  0.00    -0.083 A 
ATOM     42  H6  BZW d   1       5.295  36.082  13.604  0.00  0.00     0.083 H 
ATOM     43  C14 BZW d   1       6.469  32.914  13.672  0.00  0.00    -0.082 A 
ATOM     44  H7  BZW d   1       4.732  33.812  12.798  0.00  0.00     0.083 H 
ATOM     45  C15 BZW d   1       7.655  33.134  14.377  0.00  0.00    -0.077 A 
ATOM     46  H8  BZW d   1       6.206  31.912  13.353  0.00  0.00     0.083 H 
ATOM     47  H9  BZW d   1       8.322  32.304  14.578  0.00  0.00     0.084 H 
ENDBRANCH  34  37
ENDBRANCH   2  34
BRANCH   7  48
ATOM     48  C2  BZW d   1       9.607  35.366  10.869  0.00  0.00    -0.003 C 
ATOM     49  H1  BZW d   1       9.073  36.057  10.199  0.00  0.00     0.040 H 
ATOM     50  H2  BZW d   1       9.097  34.391  10.872  0.00  0.00     0.040 H 
ATOM     51  H3  BZW d   1      10.641  35.238  10.516  0.00  0.00     0.040 H 
ENDBRANCH   7  48
TORSDOF 6
