REMARK  5 active torsions:
REMARK  status: ('A' for Active; 'I' for Inactive)
REMARK    1  A    between atoms: C5_3  and  S24_15 
REMARK    2  A    between atoms: C8_6  and  C9_7 
REMARK       I    between atoms: C9_7  and  N18_9 
REMARK    3  A    between atoms: C20_11  and  C41_19 
REMARK    4  A    between atoms: S24_15  and  N28_18 
REMARK    5  A    between atoms: C41_19  and  C43_20 
ROOT
ATOM      1  C9  N19 d   1      13.052  33.757  15.683  0.00  0.00     0.253 C 
ATOM      2  O11 N19 d   1      12.914  32.560  15.860  0.00  0.00    -0.267 OA
ATOM      3  N18 N19 d   1      13.006  34.304  14.453  0.00  0.00    -0.344 N 
ATOM      4  C19 N19 d   1      12.918  33.406  13.296  0.00  0.00     0.025 C 
ATOM      5  C20 N19 d   1      12.281  34.072  12.098  0.00  0.00     0.121 C 
ATOM      6  N21 N19 d   1      12.620  35.471  11.815  0.00  0.00    -0.068 N 
ATOM      7  C22 N19 d   1      13.484  36.090  12.822  0.00  0.00     0.097 C 
ATOM      8  C23 N19 d   1      12.978  35.757  14.216  0.00  0.00     0.020 C 
ATOM      9  H5  N19 d   1      12.316  32.529  13.575  0.00  0.00     0.067 H 
ATOM     10  H6  N19 d   1      13.933  33.082  13.022  0.00  0.00     0.067 H 
ATOM     11  H7  N19 d   1      12.661  33.515  11.229  0.00  0.00     0.087 H 
ATOM     12  H8  N19 d   1      11.764  36.000  11.764  0.00  0.00     0.277 HD
ATOM     13  H9  N19 d   1      13.093  35.509  10.925  0.00  0.00     0.277 HD
ATOM     14  H10 N19 d   1      13.480  37.181  12.684  0.00  0.00     0.078 H 
ATOM     15  H11 N19 d   1      14.509  35.709  12.706  0.00  0.00     0.078 H 
ATOM     16  H12 N19 d   1      13.617  36.255  14.960  0.00  0.00     0.066 H 
ATOM     17  H13 N19 d   1      11.944  36.119  14.320  0.00  0.00     0.066 H 
ENDROOT
BRANCH   1  18
ATOM     18  C8  N19 d   1      13.408  34.623  16.849  0.00  0.00     0.032 A 
ATOM     19  C3  N19 d   1      12.819  34.382  18.086  0.00  0.00    -0.066 A 
ATOM     20  C4  N19 d   1      13.248  35.053  19.218  0.00  0.00    -0.059 A 
ATOM     21  H1  N19 d   1      12.014  33.660  18.164  0.00  0.00     0.085 H 
ATOM     22  C5  N19 d   1      14.270  35.986  19.112  0.00  0.00     0.079 A 
ATOM     23  H2  N19 d   1      12.790  34.852  20.179  0.00  0.00     0.085 H 
ATOM     24  C6  N19 d   1      14.841  36.274  17.884  0.00  0.00    -0.059 A 
ATOM     25  C7  N19 d   1      14.412  35.589  16.758  0.00  0.00    -0.066 A 
ATOM     26  H3  N19 d   1      15.616  37.028  17.804  0.00  0.00     0.085 H 
ATOM     27  H4  N19 d   1      14.861  35.806  15.796  0.00  0.00     0.085 H 
BRANCH  22  28
ATOM     28  S24 N19 d   1      14.909  36.732  20.582  0.00  0.00     0.256 S 
ATOM     29  O25 N19 d   1      15.145  35.675  21.516  0.00  0.00    -0.201 OA
ATOM     30  O27 N19 d   1      14.008  37.783  20.956  0.00  0.00    -0.201 OA
BRANCH  28  31
ATOM     31  N28 N19 d   1      16.320  37.413  20.259  0.00  0.00    -0.324 N 
ATOM     32  H14 N19 d   1      16.825  37.884  20.982  0.00  0.00     0.169 HD
ATOM     33  H15 N19 d   1      16.697  37.368  19.334  0.00  0.00     0.169 HD
ENDBRANCH  28  31
ENDBRANCH  22  28
ENDBRANCH   1  18
BRANCH   5  34
ATOM     34  C41 N19 d   1      10.762  33.843  12.124  0.00  0.00    -0.013 C 
ATOM     35  H16 N19 d   1      10.586  32.758  12.081  0.00  0.00     0.043 H 
ATOM     36  H17 N19 d   1      10.336  34.320  11.229  0.00  0.00     0.043 H 
BRANCH  34  37
ATOM     37  C43 N19 d   1      10.023  34.381  13.327  0.00  0.00    -0.056 A 
ATOM     38  C44 N19 d   1       9.464  35.654  13.305  0.00  0.00    -0.077 A 
ATOM     39  C45 N19 d   1       8.761  36.137  14.399  0.00  0.00    -0.082 A 
ATOM     40  H18 N19 d   1       9.579  36.275  12.424  0.00  0.00     0.084 H 
ATOM     41  C46 N19 d   1       8.612  35.357  15.528  0.00  0.00    -0.083 A 
ATOM     42  H19 N19 d   1       8.327  37.130  14.367  0.00  0.00     0.083 H 
ATOM     43  C47 N19 d   1       9.160  34.091  15.562  0.00  0.00    -0.082 A 
ATOM     44  H20 N19 d   1       8.067  35.737  16.384  0.00  0.00     0.083 H 
ATOM     45  C48 N19 d   1       9.859  33.604  14.468  0.00  0.00    -0.077 A 
ATOM     46  H21 N19 d   1       9.044  33.475  16.447  0.00  0.00     0.083 H 
ATOM     47  H22 N19 d   1      10.282  32.607  14.503  0.00  0.00     0.084 H 
ENDBRANCH  34  37
ENDBRANCH   5  34
TORSDOF 5
