REMARK  6 active torsions:
REMARK  status: ('A' for Active; 'I' for Inactive)
REMARK    1  A    between atoms: O5'_1  and  C5'_2 
REMARK    2  A    between atoms: C5'_2  and  C4'_3 
REMARK    3  A    between atoms: C3'_5  and  O3'_6 
REMARK    4  A    between atoms: C2'_7  and  O2'_8 
REMARK    5  A    between atoms: C1'_9  and  N9_10 
REMARK    6  A    between atoms: C6_14  and  N6_15 
ROOT
ATOM      1  C4' ADN d   1     -14.206  65.099  19.968  0.00  0.00     0.088 C 
ATOM      2  O4' ADN d   1     -15.214  66.081  20.304  0.00  0.00    -0.353 OA
ATOM      3  C3' ADN d   1     -13.014  65.892  19.450  0.00  0.00     0.091 C 
ATOM      4  C2' ADN d   1     -13.131  67.218  20.202  0.00  0.00     0.105 C 
ATOM      5  C1' ADN d   1     -14.654  67.384  20.342  0.00  0.00     0.139 C 
ATOM      6  H4  ADN d   1     -14.574  64.480  19.137  0.00  0.00     0.090 H 
ATOM      7  H5  ADN d   1     -12.056  65.385  19.636  0.00  0.00     0.091 H 
ATOM      8  H7  ADN d   1     -12.655  67.128  21.190  0.00  0.00     0.093 H 
ATOM      9  H9  ADN d   1     -15.042  68.012  19.526  0.00  0.00     0.122 H 
ENDROOT
BRANCH   5  10
ATOM     10  N9  ADN d   1     -15.035  67.946  21.641  0.00  0.00    -0.294 N 
ATOM     11  C8  ADN d   1     -14.573  67.469  22.777  0.00  0.00     0.071 A 
ATOM     12  N7  ADN d   1     -15.154  68.143  23.845  0.00  0.00    -0.236 NA
ATOM     13  H10 ADN d   1     -13.844  66.665  22.867  0.00  0.00     0.144 H 
ATOM     14  C5  ADN d   1     -16.001  69.077  23.312  0.00  0.00     0.149 A 
ATOM     15  C6  ADN d   1     -16.839  70.057  23.885  0.00  0.00     0.155 A 
ATOM     16  C4  ADN d   1     -15.965  68.972  21.900  0.00  0.00     0.167 A 
ATOM     17  N1  ADN d   1     -17.581  70.838  23.093  0.00  0.00    -0.222 NA
ATOM     18  C2  ADN d   1     -17.515  70.713  21.747  0.00  0.00     0.091 A 
ATOM     19  N3  ADN d   1     -16.747  69.810  21.150  0.00  0.00    -0.222 NA
ATOM     20  H13 ADN d   1     -18.113  71.376  21.132  0.00  0.00     0.146 H 
BRANCH  15  21
ATOM     21  N6  ADN d   1     -16.891  70.218  25.294  0.00  0.00    -0.382 N 
ATOM     22  H11 ADN d   1     -17.504  70.935  25.708  0.00  0.00     0.157 HD
ATOM     23  H12 ADN d   1     -16.316  69.618  25.902  0.00  0.00     0.157 HD
ENDBRANCH  15  21
ENDBRANCH   5  10
BRANCH   4  24
ATOM     24  O2' ADN d   1     -12.576  68.337  19.546  0.00  0.00    -0.388 OA
ATOM     25  H8  ADN d   1     -13.012  68.462  18.711  0.00  0.00     0.210 HD
ENDBRANCH   4  24
BRANCH   1  26
ATOM     26  C5' ADN d   1     -13.979  64.156  21.141  0.00  0.00     0.043 C 
ATOM     27  H2  ADN d   1     -14.954  63.893  21.576  0.00  0.00     0.078 H 
ATOM     28  H3  ADN d   1     -13.485  63.245  20.771  0.00  0.00     0.078 H 
BRANCH  26  29
ATOM     29  O5' ADN d   1     -13.171  64.733  22.152  0.00  0.00    -0.398 OA
ATOM     30  H1  ADN d   1     -12.323  64.958  21.788  0.00  0.00     0.209 HD
ENDBRANCH  26  29
ENDBRANCH   1  26
BRANCH   3  31
ATOM     31  O3' ADN d   1     -13.214  66.137  18.061  0.00  0.00    -0.390 OA
ATOM     32  H6  ADN d   1     -12.479  66.632  17.719  0.00  0.00     0.210 HD
ENDBRANCH   3  31
TORSDOF 6
