REMARK  31 active torsions:
REMARK  status: ('A' for Active; 'I' for Inactive)
REMARK    1  A    between atoms: C_1  and  CH3_3 
REMARK       I    between atoms: C_1  and  N_4 
REMARK    2  A    between atoms: N_4  and  CA_5 
REMARK    3  A    between atoms: CA_5  and  C_6 
REMARK    4  A    between atoms: CA_5  and  CB_8 
REMARK       I    between atoms: C_6  and  N_12 
REMARK    5  A    between atoms: CB_8  and  CG_9 
REMARK    6  A    between atoms: N_12  and  CA_13 
REMARK    7  A    between atoms: CA_13  and  C_14 
REMARK    8  A    between atoms: CA_13  and  CB_16 
REMARK       I    between atoms: C_14  and  N_20 
REMARK    9  A    between atoms: CB_16  and  CG_17 
REMARK   10  A    between atoms: CG_17  and  CD1_18 
REMARK   11  A    between atoms: CG_17  and  CD2_19 
REMARK   12  A    between atoms: N_20  and  CA_21 
REMARK   13  A    between atoms: CA_21  and  C_22 
REMARK   14  A    between atoms: CA_21  and  CB_24 
REMARK       I    between atoms: C_22  and  N_29 
REMARK   15  A    between atoms: CB_24  and  CG_25 
REMARK   16  A    between atoms: CG_25  and  CD_26 
REMARK       I    between atoms: CD_26  and  NE2_28 
REMARK   17  A    between atoms: N_29  and  CA_30 
REMARK   18  A    between atoms: CA_30  and  C_31 
REMARK   19  A    between atoms: CA_30  and  CB_33 
REMARK       I    between atoms: C_31  and  N_36 
REMARK   20  A    between atoms: CB_33  and  OG1_34 
REMARK   21  A    between atoms: CB_33  and  CG2_35 
REMARK   22  A    between atoms: N_36  and  CA_37 
REMARK   23  A    between atoms: CA_37  and  C_38 
REMARK   24  A    between atoms: CA_37  and  CB_40 
REMARK       I    between atoms: C_38  and  N_42 
REMARK   25  A    between atoms: CB_40  and  OG_41 
REMARK   26  A    between atoms: N_42  and  CA_43 
REMARK   27  A    between atoms: CA_43  and  C_44 
REMARK   28  A    between atoms: CA_43  and  CB_46 
REMARK   29  A    between atoms: CB_46  and  CG1_47 
REMARK   30  A    between atoms: CB_46  and  CG2_48 
REMARK   31  A    between atoms: CG1_47  and  CD1_49 
ROOT
ATOM      1  CA  GLN d   1      10.813  89.844  11.418  0.00  0.00     0.090 C 
ATOM      2  H20 GLN d   1      11.148  90.710  12.009  0.00  0.00     0.087 H 
ENDROOT
BRANCH   1   3
ATOM      3  N   GLN d   1      11.939  88.945  11.231  0.00  0.00    -0.346 N 
ATOM      4  C   LEU d   1      13.164  89.246  11.675  0.00  0.00     0.241 C 
ATOM      5  O   LEU d   1      13.449  90.312  12.258  0.00  0.00    -0.271 OA
ATOM      6  H19 GLN d   1      11.794  88.077  10.757  0.00  0.00     0.163 HD
BRANCH   4   7
ATOM      7  CA  LEU d   1      14.204  88.151  11.481  0.00  0.00     0.089 C 
ATOM      8  H9  LEU d   1      13.982  87.610  10.549  0.00  0.00     0.087 H 
BRANCH   7   9
ATOM      9  N   LEU d   1      15.527  88.747  11.350  0.00  0.00    -0.346 N 
ATOM     10  C   ASP d   1      16.339  88.357  10.375  0.00  0.00     0.241 C 
ATOM     11  O   ASP d   1      16.016  87.473   9.631  0.00  0.00    -0.271 OA
ATOM     12  H8  LEU d   1      15.824  89.451  11.995  0.00  0.00     0.163 HD
BRANCH  10  13
ATOM     13  CA  ASP d   1      17.713  89.002  10.222  0.00  0.00     0.098 C 
ATOM     14  H5  ASP d   1      17.961  89.505  11.168  0.00  0.00     0.088 H 
BRANCH  13  15
ATOM     15  N   ASP d   1      18.734  88.051   9.910  0.00  0.00    -0.348 N 
ATOM     16  C   ACE d   1      19.839  87.901  10.589  0.00  0.00     0.214 C 
ATOM     17  O   ACE d   1      20.104  88.514  11.654  0.00  0.00    -0.274 OA
ATOM     18  H4  ASP d   1      18.592  87.460   9.116  0.00  0.00     0.163 HD
BRANCH  16  19
ATOM     19  CH3 ACE d   1      20.722  86.865   9.935  0.00  0.00    -0.003 C 
ATOM     20  H1  ACE d   1      20.239  86.498   9.018  0.00  0.00     0.040 H 
ATOM     21  H2  ACE d   1      20.878  86.025  10.629  0.00  0.00     0.040 H 
ATOM     22  H3  ACE d   1      21.692  87.317   9.682  0.00  0.00     0.040 H 
ENDBRANCH  16  19
ENDBRANCH  13  15
BRANCH  13  23
ATOM     23  CB  ASP d   1      17.738  90.010   9.093  0.00  0.00     0.043 C 
ATOM     24  H6  ASP d   1      17.192  89.593   8.234  0.00  0.00     0.052 H 
ATOM     25  H7  ASP d   1      18.784  90.195   8.807  0.00  0.00     0.052 H 
BRANCH  23  26
ATOM     26  CG  ASP d   1      17.114  91.298   9.473  0.00  0.00     0.175 C 
ATOM     27  OD1 ASP d   1      17.503  91.807  10.566  0.00  0.00    -0.648 OA
ATOM     28  OD2 ASP d   1      16.267  91.789   8.683  0.00  0.00    -0.648 OA
ENDBRANCH  23  26
ENDBRANCH  13  23
ENDBRANCH  10  13
ENDBRANCH   7   9
BRANCH   7  29
ATOM     29  CB  LEU d   1      14.092  87.146  12.663  0.00  0.00    -0.035 C 
ATOM     30  H10 LEU d   1      13.021  86.998  12.865  0.00  0.00     0.037 H 
ATOM     31  H11 LEU d   1      14.569  87.615  13.536  0.00  0.00     0.037 H 
BRANCH  29  32
ATOM     32  CG  LEU d   1      14.715  85.765  12.495  0.00  0.00    -0.059 C 
ATOM     33  H12 LEU d   1      15.788  85.900  12.296  0.00  0.00     0.038 H 
BRANCH  32  34
ATOM     34  CD1 LEU d   1      14.580  84.949  13.755  0.00  0.00    -0.073 C 
ATOM     35  H13 LEU d   1      15.038  83.960  13.602  0.00  0.00     0.028 H 
ATOM     36  H14 LEU d   1      13.515  84.826  14.000  0.00  0.00     0.028 H 
ATOM     37  H15 LEU d   1      15.089  85.465  14.582  0.00  0.00     0.028 H 
ENDBRANCH  32  34
BRANCH  32  38
ATOM     38  CD2 LEU d   1      14.090  85.029  11.271  0.00  0.00    -0.073 C 
ATOM     39  H16 LEU d   1      14.206  85.651  10.371  0.00  0.00     0.028 H 
ATOM     40  H17 LEU d   1      13.021  84.850  11.458  0.00  0.00     0.028 H 
ATOM     41  H18 LEU d   1      14.602  84.067  11.120  0.00  0.00     0.028 H 
ENDBRANCH  32  38
ENDBRANCH  29  32
ENDBRANCH   7  29
ENDBRANCH   4   7
ENDBRANCH   1   3
BRANCH   1  42
ATOM     42  C   GLN d   1       9.696  89.135  12.142  0.00  0.00     0.241 C 
ATOM     43  O   GLN d   1       9.384  87.981  11.821  0.00  0.00    -0.271 OA
ATOM     44  N   THR d   1       9.016  89.867  13.027  0.00  0.00    -0.344 N 
ATOM     45  H27 THR d   1       9.267  90.822  13.188  0.00  0.00     0.163 HD
BRANCH  44  46
ATOM     46  CA  THR d   1       7.916  89.273  13.750  0.00  0.00     0.113 C 
ATOM     47  H28 THR d   1       7.544  88.401  13.192  0.00  0.00     0.091 H 
BRANCH  46  48
ATOM     48  C   THR d   1       6.822  90.300  13.865  0.00  0.00     0.243 C 
ATOM     49  O   THR d   1       7.045  91.384  14.424  0.00  0.00    -0.271 OA
ATOM     50  N   SER d   1       5.645  89.890  13.467  0.00  0.00    -0.344 N 
ATOM     51  H34 SER d   1       5.562  88.986  13.048  0.00  0.00     0.163 HD
BRANCH  50  52
ATOM     52  CA  SER d   1       4.466  90.702  13.615  0.00  0.00     0.109 C 
ATOM     53  H35 SER d   1       4.721  91.756  13.431  0.00  0.00     0.090 H 
BRANCH  52  54
ATOM     54  C   SER d   1       3.942  90.550  15.028  0.00  0.00     0.243 C 
ATOM     55  O   SER d   1       3.705  89.435  15.467  0.00  0.00    -0.271 OA
ATOM     56  N   ILE d   1       3.703  91.664  15.677  0.00  0.00    -0.344 N 
ATOM     57  H39 ILE d   1       3.760  92.532  15.184  0.00  0.00     0.163 HD
BRANCH  56  58
ATOM     58  CA  ILE d   1       3.353  91.678  17.109  0.00  0.00     0.099 C 
ATOM     59  H40 ILE d   1       3.089  90.655  17.416  0.00  0.00     0.090 H 
BRANCH  58  60
ATOM     60  C   ILE d   1       2.175  92.588  17.389  0.00  0.00     0.197 C 
ATOM     61  O   ILE d   1       1.363  92.405  18.312  0.00  0.00    -0.646 OA
ATOM     62  OXT ILE d   1       2.000  93.557  16.674  0.00  0.00    -0.646 OA
ENDBRANCH  58  60
BRANCH  58  63
ATOM     63  CB  ILE d   1       4.536  92.142  17.909  0.00  0.00    -0.029 C 
ATOM     64  H41 ILE d   1       4.850  93.112  17.497  0.00  0.00     0.043 H 
BRANCH  63  65
ATOM     65  CG1 ILE d   1       5.696  91.186  17.784  0.00  0.00    -0.063 C 
ATOM     66  H42 ILE d   1       5.755  90.801  16.756  0.00  0.00     0.033 H 
ATOM     67  H43 ILE d   1       5.567  90.347  18.483  0.00  0.00     0.033 H 
BRANCH  65  68
ATOM     68  CD1 ILE d   1       6.875  91.901  18.100  0.00  0.00    -0.076 C 
ATOM     69  H47 ILE d   1       7.743  91.231  18.018  0.00  0.00     0.027 H 
ATOM     70  H48 ILE d   1       6.805  92.287  19.128  0.00  0.00     0.027 H 
ATOM     71  H49 ILE d   1       6.993  92.741  17.400  0.00  0.00     0.027 H 
ENDBRANCH  65  68
ENDBRANCH  63  65
BRANCH  63  72
ATOM     72  CG2 ILE d   1       4.194  92.356  19.441  0.00  0.00    -0.070 C 
ATOM     73  H44 ILE d   1       3.348  93.053  19.534  0.00  0.00     0.028 H 
ATOM     74  H45 ILE d   1       5.071  92.773  19.958  0.00  0.00     0.028 H 
ATOM     75  H46 ILE d   1       3.925  91.391  19.895  0.00  0.00     0.028 H 
ENDBRANCH  63  72
ENDBRANCH  58  63
ENDBRANCH  56  58
ENDBRANCH  52  54
BRANCH  52  76
ATOM     76  CB  SER d   1       3.408  90.260  12.612  0.00  0.00     0.044 C 
ATOM     77  H36 SER d   1       3.228  89.182  12.734  0.00  0.00     0.077 H 
ATOM     78  H37 SER d   1       3.776  90.457  11.594  0.00  0.00     0.077 H 
BRANCH  76  79
ATOM     79  OG  SER d   1       2.196  90.951  12.803  0.00  0.00    -0.398 OA
ATOM     80  H38 SER d   1       1.559  90.653  12.164  0.00  0.00     0.209 HD
ENDBRANCH  76  79
ENDBRANCH  52  76
ENDBRANCH  50  52
ENDBRANCH  46  48
BRANCH  46  81
ATOM     81  CB  THR d   1       8.354  88.819  15.147  0.00  0.00     0.060 C 
ATOM     82  H29 THR d   1       8.690  89.690  15.729  0.00  0.00     0.086 H 
BRANCH  81  83
ATOM     83  OG1 THR d   1       9.442  87.905  15.010  0.00  0.00    -0.393 OA
ATOM     84  H30 THR d   1      10.164  88.338  14.569  0.00  0.00     0.210 HD
ENDBRANCH  81  83
BRANCH  81  85
ATOM     85  CG2 THR d   1       7.179  88.192  15.844  0.00  0.00    -0.050 C 
ATOM     86  H31 THR d   1       7.482  87.862  16.849  0.00  0.00     0.031 H 
ATOM     87  H32 THR d   1       6.828  87.326  15.264  0.00  0.00     0.031 H 
ATOM     88  H33 THR d   1       6.367  88.929  15.930  0.00  0.00     0.031 H 
ENDBRANCH  81  85
ENDBRANCH  46  81
ENDBRANCH  44  46
ENDBRANCH   1  42
BRANCH   1  89
ATOM     89  CB  GLN d   1      10.234  90.334  10.080  0.00  0.00    -0.030 C 
ATOM     90  H21 GLN d   1       9.343  90.948  10.280  0.00  0.00     0.037 H 
ATOM     91  H22 GLN d   1       9.950  89.462   9.473  0.00  0.00     0.037 H 
BRANCH  89  92
ATOM     92  CG  GLN d   1      11.214  91.142   9.329  0.00  0.00     0.011 C 
ATOM     93  H23 GLN d   1      12.067  90.499   9.066  0.00  0.00     0.047 H 
ATOM     94  H24 GLN d   1      11.559  91.962   9.977  0.00  0.00     0.047 H 
BRANCH  92  95
ATOM     95  CD  GLN d   1      10.655  91.740   8.057  0.00  0.00     0.215 C 
ATOM     96  OE1 GLN d   1       9.543  92.289   8.045  0.00  0.00    -0.274 OA
ATOM     97  NE2 GLN d   1      11.464  91.675   6.984  0.00  0.00    -0.370 N 
ATOM     98  H25 GLN d   1      11.163  92.050   6.107  0.00  0.00     0.159 HD
ATOM     99  H26 GLN d   1      12.367  91.252   7.063  0.00  0.00     0.159 HD
ENDBRANCH  92  95
ENDBRANCH  89  92
ENDBRANCH   1  89
TORSDOF 31
