REMARK  14 active torsions:
REMARK  status: ('A' for Active; 'I' for Inactive)
REMARK    1  A    between atoms: C11_2  and  C10_4 
REMARK    2  A    between atoms: C10_4  and  N1_5 
REMARK       I    between atoms: N1_5  and  C9_6 
REMARK    3  A    between atoms: C9_6  and  C8_8 
REMARK    4  A    between atoms: C8_8  and  N_9 
REMARK    5  A    between atoms: C8_8  and  C7_10 
REMARK    6  A    between atoms: C7_10  and  S_11 
REMARK    7  A    between atoms: S_11  and  C3_12 
REMARK    8  A    between atoms: C3_12  and  C4_13 
REMARK    9  A    between atoms: C3_12  and  C5_14 
REMARK   10  A    between atoms: C3_12  and  C2_17 
REMARK   11  A    between atoms: C5_14  and  C6_15 
REMARK   12  A    between atoms: C6_15  and  O_16 
REMARK   13  A    between atoms: C2_17  and  C1_18 
REMARK   14  A    between atoms: C1_18  and  C_19 
ROOT
ATOM      1  C3  C3H d   1      24.840   7.004  33.835  0.00  0.00     0.006 C 
ENDROOT
BRANCH   1   2
ATOM      2  S   C3H d   1      23.965   6.098  32.450  0.00  0.00    -0.157 SA
BRANCH   2   3
ATOM      3  C7  C3H d   1      23.452   4.437  32.964  0.00  0.00     0.012 C 
ATOM      4  H8  C3H d   1      23.081   3.915  32.070  0.00  0.00     0.052 H 
ATOM      5  H9  C3H d   1      24.345   3.920  33.346  0.00  0.00     0.052 H 
BRANCH   3   6
ATOM      6  C8  C3H d   1      22.368   4.334  34.038  0.00  0.00     0.183 C 
ATOM      7  H4  C3H d   1      22.292   5.290  34.577  0.00  0.00     0.100 H 
BRANCH   6   8
ATOM      8  C9  C3H d   1      21.045   4.004  33.429  0.00  0.00     0.249 C 
ATOM      9  N1  C3H d   1      20.304   3.073  34.006  0.00  0.00    -0.349 N 
ATOM     10  H3  C3H d   1      20.716   2.189  34.228  0.00  0.00     0.163 HD
ATOM     11  O1  C3H d   1      20.692   4.616  32.432  0.00  0.00    -0.271 OA
BRANCH   9  12
ATOM     12  C10 C3H d   1      18.915   3.302  34.323  0.00  0.00     0.075 C 
ATOM     13  H1  C3H d   1      18.640   2.659  35.172  0.00  0.00     0.080 H 
ATOM     14  H2  C3H d   1      18.791   4.357  34.608  0.00  0.00     0.080 H 
BRANCH  12  15
ATOM     15  C11 C3H d   1      17.989   3.005  33.180  0.00  0.00     0.191 C 
ATOM     16  O2  C3H d   1      18.200   2.220  32.326  0.00  0.00    -0.647 OA
ATOM     17  O3  C3H d   1      16.945   3.757  33.215  0.00  0.00    -0.647 OA
ENDBRANCH  12  15
ENDBRANCH   9  12
ENDBRANCH   6   8
BRANCH   6  18
ATOM     18  N   C3H d   1      22.747   3.274  34.962  0.00  0.00    -0.066 N 
ATOM     19  H5  C3H d   1      23.640   3.492  35.376  0.00  0.00     0.275 HD
ATOM     20  H6  C3H d   1      22.813   2.401  34.463  0.00  0.00     0.275 HD
ATOM     21  H7  C3H d   1      22.051   3.195  35.687  0.00  0.00     0.275 HD
ENDBRANCH   6  18
ENDBRANCH   3   6
ENDBRANCH   2   3
ENDBRANCH   1   2
BRANCH   1  22
ATOM     22  C4  C3H d   1      26.131   6.264  34.072  0.00  0.00    -0.060 C 
ATOM     23  H10 C3H d   1      26.692   6.755  34.881  0.00  0.00     0.029 H 
ATOM     24  H11 C3H d   1      26.733   6.273  33.151  0.00  0.00     0.029 H 
ATOM     25  H12 C3H d   1      25.911   5.224  34.356  0.00  0.00     0.029 H 
ENDBRANCH   1  22
BRANCH   1  26
ATOM     26  C5  C3H d   1      23.875   7.057  35.027  0.00  0.00    -0.030 C 
ATOM     27  H13 C3H d   1      23.495   6.038  35.190  0.00  0.00     0.038 H 
ATOM     28  H14 C3H d   1      23.042   7.719  34.749  0.00  0.00     0.038 H 
BRANCH  26  29
ATOM     29  C6  C3H d   1      24.429   7.552  36.344  0.00  0.00     0.018 C 
ATOM     30  H15 C3H d   1      23.849   8.430  36.664  0.00  0.00     0.074 H 
ATOM     31  H16 C3H d   1      25.481   7.840  36.199  0.00  0.00     0.074 H 
BRANCH  29  32
ATOM     32  O   C3H d   1      24.364   6.586  37.341  0.00  0.00    -0.401 OA
ATOM     33  H17 C3H d   1      24.721   6.940  38.147  0.00  0.00     0.209 HD
ENDBRANCH  29  32
ENDBRANCH  26  29
ENDBRANCH   1  26
BRANCH   1  34
ATOM     34  C2  C3H d   1      25.147   8.445  33.436  0.00  0.00    -0.050 C 
ATOM     35  H18 C3H d   1      24.827   8.583  32.393  0.00  0.00     0.035 H 
ATOM     36  H19 C3H d   1      26.235   8.592  33.508  0.00  0.00     0.035 H 
BRANCH  34  37
ATOM     37  C1  C3H d   1      24.473   9.515  34.278  0.00  0.00    -0.067 C 
ATOM     38  H20 C3H d   1      24.782   9.392  35.327  0.00  0.00     0.032 H 
ATOM     39  H21 C3H d   1      23.382   9.396  34.201  0.00  0.00     0.032 H 
BRANCH  37  40
ATOM     40  C   C3H d   1      24.848  10.897  33.817  0.00  0.00    -0.076 C 
ATOM     41  H22 C3H d   1      24.343  11.643  34.448  0.00  0.00     0.027 H 
ATOM     42  H23 C3H d   1      24.538  11.031  32.770  0.00  0.00     0.027 H 
ATOM     43  H24 C3H d   1      25.937  11.027  33.896  0.00  0.00     0.027 H 
ENDBRANCH  37  40
ENDBRANCH  34  37
ENDBRANCH   1  34
TORSDOF 14
