REMARK  7 active torsions:
REMARK  status: ('A' for Active; 'I' for Inactive)
REMARK    1  A    between atoms: C6_18  and  C1_1 
REMARK    2  A    between atoms: C2_2  and  O5_4 
REMARK    3  A    between atoms: C13_7  and  C14_8 
REMARK    4  A    between atoms: C14_8  and  C15_9 
REMARK    5  A    between atoms: N7_19  and  C21_13 
REMARK    6  A    between atoms: N7_19  and  C22_14 
REMARK    7  A    between atoms: C22_14  and  C23_25 
REMARK       I    between atoms: C6_18  and  N7_19 
ROOT
ATOM      1  C1  C4T d   1      -0.802  33.845  23.517  0.00  0.00     0.066 A 
ATOM      2  C2  C4T d   1      -1.969  33.561  24.264  0.00  0.00     0.083 A 
ATOM      3  C3  C4T d   1      -1.901  32.899  25.463  0.00  0.00    -0.022 A 
ATOM      4  C9  C4T d   1       0.540  32.881  25.262  0.00  0.00     0.020 A 
ATOM      5  C10 C4T d   1      -0.650  32.579  25.986  0.00  0.00     0.065 A 
ATOM      6  C13 C4T d   1       1.640  32.400  26.082  0.00  0.00     0.071 A 
ATOM      7  C4  C4T d   1       0.468  33.475  23.999  0.00  0.00    -0.051 A 
ATOM      8  N11 C4T d   1      -0.271  31.988  27.153  0.00  0.00    -0.277 N 
ATOM      9  N12 C4T d   1       1.119  31.960  27.185  0.00  0.00    -0.178 NA
ATOM     10  H1  C4T d   1      -2.806  32.629  25.995  0.00  0.00     0.091 H 
ATOM     11  H15 C4T d   1       1.361  33.645  23.409  0.00  0.00     0.086 H 
ATOM     12  H16 C4T d   1      -0.902  31.626  27.882  0.00  0.00     0.189 HD
ENDROOT
BRANCH   1  13
ATOM     13  C6  C4T d   1      -0.874  34.554  22.218  0.00  0.00     0.256 C 
ATOM     14  N7  C4T d   1      -0.478  35.857  22.090  0.00  0.00    -0.348 N 
ATOM     15  O8  C4T d   1      -1.222  33.918  21.239  0.00  0.00    -0.267 OA
BRANCH  14  16
ATOM     16  C21 C4T d   1      -0.517  36.492  20.772  0.00  0.00    -0.015 C 
ATOM     17  H8  C4T d   1      -0.167  37.531  20.855  0.00  0.00     0.056 H 
ATOM     18  H9  C4T d   1      -1.549  36.482  20.391  0.00  0.00     0.056 H 
ATOM     19  H10 C4T d   1       0.135  35.940  20.079  0.00  0.00     0.056 H 
ENDBRANCH  14  16
BRANCH  14  20
ATOM     20  C22 C4T d   1      -0.169  36.733  23.242  0.00  0.00     0.021 C 
ATOM     21  H11 C4T d   1      -0.846  36.456  24.063  0.00  0.00     0.071 H 
ATOM     22  H12 C4T d   1      -0.370  37.770  22.936  0.00  0.00     0.071 H 
BRANCH  20  23
ATOM     23  C23 C4T d   1       1.230  36.678  23.769  0.00  0.00    -0.040 A 
ATOM     24  C24 C4T d   1       2.300  36.311  22.950  0.00  0.00    -0.074 A 
ATOM     25  C27 C4T d   1       3.569  36.239  23.495  0.00  0.00    -0.061 A 
ATOM     26  H13 C4T d   1       2.138  36.086  21.902  0.00  0.00     0.084 H 
ATOM     27  C25 C4T d   1       3.761  36.541  24.847  0.00  0.00     0.034 A 
ATOM     28  H14 C4T d   1       4.411  35.950  22.877  0.00  0.00     0.086 H 
ATOM     29  C26 C4T d   1       2.692  36.883  25.674  0.00  0.00    -0.061 A 
ATOM     30 CL   C4T d   1       5.363  36.452  25.501  0.00  0.00    -0.084 Cl
ATOM     31  C28 C4T d   1       1.419  36.969  25.120  0.00  0.00    -0.074 A 
ATOM     32  H19 C4T d   1       2.850  37.078  26.729  0.00  0.00     0.086 H 
ATOM     33  H20 C4T d   1       0.577  37.261  25.736  0.00  0.00     0.084 H 
ENDBRANCH  20  23
ENDBRANCH  14  20
ENDBRANCH   1  13
BRANCH   2  34
ATOM     34  O5  C4T d   1      -3.181  33.877  23.768  0.00  0.00    -0.360 OA
ATOM     35  H2  C4T d   1      -3.684  33.082  23.634  0.00  0.00     0.217 HD
ENDBRANCH   2  34
BRANCH   6  36
ATOM     36  C14 C4T d   1       3.122  32.558  25.797  0.00  0.00     0.002 C 
ATOM     37  H3  C4T d   1       3.664  32.389  26.739  0.00  0.00     0.049 H 
ATOM     38  H4  C4T d   1       3.289  33.591  25.458  0.00  0.00     0.049 H 
BRANCH  36  39
ATOM     39  C15 C4T d   1       3.709  31.634  24.759  0.00  0.00    -0.052 A 
ATOM     40  C16 C4T d   1       4.250  32.179  23.592  0.00  0.00    -0.076 A 
ATOM     41  C19 C4T d   1       4.882  31.349  22.659  0.00  0.00    -0.082 A 
ATOM     42  H5  C4T d   1       4.180  33.245  23.409  0.00  0.00     0.084 H 
ATOM     43  C17 C4T d   1       4.990  29.975  22.912  0.00  0.00    -0.083 A 
ATOM     44  H6  C4T d   1       5.286  31.767  21.744  0.00  0.00     0.083 H 
ATOM     45  C18 C4T d   1       4.481  29.438  24.093  0.00  0.00    -0.082 A 
ATOM     46  H17 C4T d   1       5.471  29.328  22.187  0.00  0.00     0.083 H 
ATOM     47  C20 C4T d   1       3.837  30.264  25.013  0.00  0.00    -0.076 A 
ATOM     48  H18 C4T d   1       4.586  28.378  24.296  0.00  0.00     0.083 H 
ATOM     49  H7  C4T d   1       3.434  29.844  25.927  0.00  0.00     0.084 H 
ENDBRANCH  36  39
ENDBRANCH   6  36
TORSDOF 7
