REMARK  8 active torsions:
REMARK  status: ('A' for Active; 'I' for Inactive)
REMARK    1  A    between atoms: C6_19  and  C1_1 
REMARK    2  A    between atoms: C2_2  and  O5_4 
REMARK    3  A    between atoms: C13_7  and  C14_8 
REMARK    4  A    between atoms: C14_8  and  C15_9 
REMARK    5  A    between atoms: N7_20  and  C21_13 
REMARK    6  A    between atoms: N7_20  and  C22_14 
REMARK    7  A    between atoms: C22_14  and  C23_26 
REMARK    8  A    between atoms: C18_25  and  C30_17 
REMARK       I    between atoms: C6_19  and  N7_20 
ROOT
ATOM      1  C1  C4N d   1      66.483  34.232  23.874  0.00  0.00     0.066 A 
ATOM      2  C2  C4N d   1      65.330  33.809  24.577  0.00  0.00     0.083 A 
ATOM      3  C3  C4N d   1      65.432  33.084  25.754  0.00  0.00    -0.022 A 
ATOM      4  C9  C4N d   1      67.860  33.250  25.605  0.00  0.00     0.020 A 
ATOM      5  C10 C4N d   1      66.691  32.822  26.296  0.00  0.00     0.065 A 
ATOM      6  C13 C4N d   1      68.990  32.849  26.437  0.00  0.00     0.071 A 
ATOM      7  C4  C4N d   1      67.758  33.886  24.359  0.00  0.00    -0.051 A 
ATOM      8  N11 C4N d   1      67.108  32.238  27.464  0.00  0.00    -0.277 N 
ATOM      9  N12 C4N d   1      68.501  32.345  27.536  0.00  0.00    -0.178 NA
ATOM     10  H1  C4N d   1      64.539  32.723  26.251  0.00  0.00     0.091 H 
ATOM     11  H18 C4N d   1      68.647  34.107  23.779  0.00  0.00     0.086 H 
ATOM     12  H19 C4N d   1      66.500  31.796  28.168  0.00  0.00     0.189 HD
ENDROOT
BRANCH   1  13
ATOM     13  C6  C4N d   1      66.369  34.933  22.567  0.00  0.00     0.256 C 
ATOM     14  N7  C4N d   1      66.702  36.251  22.407  0.00  0.00    -0.348 N 
ATOM     15  O8  C4N d   1      66.040  34.254  21.602  0.00  0.00    -0.267 OA
BRANCH  14  16
ATOM     16  C21 C4N d   1      66.608  36.878  21.085  0.00  0.00    -0.015 C 
ATOM     17  H8  C4N d   1      66.915  37.932  21.157  0.00  0.00     0.056 H 
ATOM     18  H9  C4N d   1      65.570  36.822  20.726  0.00  0.00     0.056 H 
ATOM     19  H10 C4N d   1      67.269  36.351  20.381  0.00  0.00     0.056 H 
ENDBRANCH  14  16
BRANCH  14  20
ATOM     20  C22 C4N d   1      67.000  37.162  23.526  0.00  0.00     0.021 C 
ATOM     21  H11 C4N d   1      66.344  36.884  24.364  0.00  0.00     0.071 H 
ATOM     22  H12 C4N d   1      66.760  38.183  23.196  0.00  0.00     0.071 H 
BRANCH  20  23
ATOM     23  C23 C4N d   1      68.412  37.171  24.038  0.00  0.00    -0.040 A 
ATOM     24  C24 C4N d   1      68.576  37.244  25.424  0.00  0.00    -0.074 A 
ATOM     25  C27 C4N d   1      69.853  37.252  25.967  0.00  0.00    -0.061 A 
ATOM     26  H13 C4N d   1      67.709  37.294  26.073  0.00  0.00     0.084 H 
ATOM     27  C25 C4N d   1      70.959  37.192  25.117  0.00  0.00     0.034 A 
ATOM     28  H14 C4N d   1      69.990  37.304  27.041  0.00  0.00     0.086 H 
ATOM     29  C26 C4N d   1      70.786  37.117  23.731  0.00  0.00    -0.061 A 
ATOM     30 CL   C4N d   1      72.558  37.220  25.804  0.00  0.00    -0.084 Cl
ATOM     31  C28 C4N d   1      69.510  37.106  23.179  0.00  0.00    -0.074 A 
ATOM     32  H21 C4N d   1      71.653  37.067  23.082  0.00  0.00     0.086 H 
ATOM     33  H22 C4N d   1      69.371  37.048  22.105  0.00  0.00     0.084 H 
ENDBRANCH  20  23
ENDBRANCH  14  20
ENDBRANCH   1  13
BRANCH   2  34
ATOM     34  O5  C4N d   1      64.110  34.065  24.058  0.00  0.00    -0.360 OA
ATOM     35  H2  C4N d   1      64.207  34.567  23.257  0.00  0.00     0.217 HD
ENDBRANCH   2  34
BRANCH   6  36
ATOM     36  C14 C4N d   1      70.443  33.206  26.192  0.00  0.00     0.002 C 
ATOM     37  H3  C4N d   1      71.003  32.944  27.102  0.00  0.00     0.049 H 
ATOM     38  H4  C4N d   1      70.491  34.293  26.032  0.00  0.00     0.049 H 
BRANCH  36  39
ATOM     39  C15 C4N d   1      71.141  32.550  25.030  0.00  0.00    -0.052 A 
ATOM     40  C16 C4N d   1      71.656  33.351  24.005  0.00  0.00    -0.076 A 
ATOM     41  C19 C4N d   1      72.400  32.789  22.959  0.00  0.00    -0.082 A 
ATOM     42  H5  C4N d   1      71.477  34.420  24.020  0.00  0.00     0.084 H 
ATOM     43  C17 C4N d   1      72.657  31.424  22.956  0.00  0.00    -0.077 A 
ATOM     44  H6  C4N d   1      72.773  33.416  22.157  0.00  0.00     0.083 H 
ATOM     45  C18 C4N d   1      72.168  30.631  23.996  0.00  0.00    -0.061 A 
ATOM     46  H20 C4N d   1      73.233  30.978  22.153  0.00  0.00     0.084 H 
ATOM     47  C20 C4N d   1      71.419  31.180  25.042  0.00  0.00    -0.071 A 
ATOM     48  H7  C4N d   1      71.060  30.553  25.850  0.00  0.00     0.085 H 
BRANCH  45  49
ATOM     49  C30 C4N d   1      72.487  29.171  23.986  0.00  0.00    -0.051 C 
ATOM     50  H15 C4N d   1      73.079  28.931  23.090  0.00  0.00     0.033 H 
ATOM     51  H16 C4N d   1      71.552  28.591  23.974  0.00  0.00     0.033 H 
ATOM     52  H17 C4N d   1      73.065  28.916  24.887  0.00  0.00     0.033 H 
ENDBRANCH  45  49
ENDBRANCH  36  39
ENDBRANCH   6  36
TORSDOF 8
