REMARK  7 active torsions:
REMARK  status: ('A' for Active; 'I' for Inactive)
REMARK    1  A    between atoms: C6_21  and  C1_1 
REMARK    2  A    between atoms: C2_2  and  O5_4 
REMARK    3  A    between atoms: C12_7  and  C13_8 
REMARK    4  A    between atoms: C13_8  and  C14_9 
REMARK    5  A    between atoms: C17_25  and  C20_13 
REMARK       I    between atoms: N25_17  and  C6_21 
REMARK    6  A    between atoms: C23_27  and  N25_17 
REMARK    7  A    between atoms: N25_17  and  C26_28 
ROOT
ATOM      1  C1  C4K d   1      65.947  34.377  23.946  0.00  0.00     0.066 A 
ATOM      2  C2  C4K d   1      64.754  34.034  24.645  0.00  0.00     0.083 A 
ATOM      3  C3  C4K d   1      64.800  33.356  25.853  0.00  0.00    -0.022 A 
ATOM      4  C8  C4K d   1      67.247  33.433  25.770  0.00  0.00     0.020 A 
ATOM      5  C9  C4K d   1      66.043  33.069  26.434  0.00  0.00     0.065 A 
ATOM      6  C12 C4K d   1      68.335  32.976  26.634  0.00  0.00     0.071 A 
ATOM      7  C4  C4K d   1      67.192  34.050  24.515  0.00  0.00    -0.051 A 
ATOM      8  N10 C4K d   1      66.408  32.475  27.611  0.00  0.00    -0.277 N 
ATOM      9  N11 C4K d   1      67.796  32.485  27.714  0.00  0.00    -0.178 NA
ATOM     10  H1  C4K d   1      63.883  33.050  26.344  0.00  0.00     0.091 H 
ATOM     11  H16 C4K d   1      68.108  34.276  23.981  0.00  0.00     0.086 H 
ATOM     12  H17 C4K d   1      65.760  32.083  28.309  0.00  0.00     0.189 HD
ENDROOT
BRANCH   1  13
ATOM     13  C6  C4K d   1      65.837  35.152  22.675  0.00  0.00     0.260 C 
ATOM     14  N25 C4K d   1      66.446  36.376  22.497  0.00  0.00    -0.318 N 
ATOM     15  O7  C4K d   1      65.086  34.712  21.815  0.00  0.00    -0.267 OA
BRANCH  14  16
ATOM     16  C23 C4K d   1      67.334  36.921  23.450  0.00  0.00     0.039 A 
ATOM     17  C22 C4K d   1      68.719  36.878  23.200  0.00  0.00    -0.054 A 
ATOM     18  C21 C4K d   1      69.625  37.341  24.146  0.00  0.00    -0.046 A 
ATOM     19  H12 C4K d   1      69.082  36.480  22.260  0.00  0.00     0.087 H 
ATOM     20  C27 C4K d   1      69.150  37.853  25.355  0.00  0.00     0.105 A 
ATOM     21  H11 C4K d   1      70.690  37.305  23.948  0.00  0.00     0.087 H 
ATOM     22  C28 C4K d   1      67.770  37.897  25.613  0.00  0.00     0.107 A 
ATOM     23  O31 C4K d   1      69.811  38.376  26.433  0.00  0.00    -0.323 OA
ATOM     24  C24 C4K d   1      66.861  37.454  24.658  0.00  0.00    -0.022 A 
ATOM     25  O29 C4K d   1      67.581  38.440  26.847  0.00  0.00    -0.323 OA
ATOM     26  H13 C4K d   1      65.796  37.520  24.846  0.00  0.00     0.091 H 
ATOM     27  C30 C4K d   1      68.816  39.113  27.170  0.00  0.00     0.115 C 
ATOM     28  H14 C4K d   1      69.016  39.068  28.251  0.00  0.00     0.118 H 
ATOM     29  H15 C4K d   1      68.786  40.164  26.846  0.00  0.00     0.118 H 
ENDBRANCH  14  16
BRANCH  14  30
ATOM     30  C26 C4K d   1      66.293  37.114  21.232  0.00  0.00    -0.011 C 
ATOM     31  H19 C4K d   1      65.578  36.586  20.584  0.00  0.00     0.057 H 
ATOM     32  H20 C4K d   1      67.267  37.180  20.726  0.00  0.00     0.057 H 
ATOM     33  H21 C4K d   1      65.919  38.127  21.441  0.00  0.00     0.057 H 
ENDBRANCH  14  30
ENDBRANCH   1  13
BRANCH   2  34
ATOM     34  O5  C4K d   1      63.546  34.318  24.097  0.00  0.00    -0.360 OA
ATOM     35  H2  C4K d   1      63.672  34.781  23.277  0.00  0.00     0.217 HD
ENDBRANCH   2  34
BRANCH   6  36
ATOM     36  C13 C4K d   1      69.819  33.186  26.450  0.00  0.00     0.002 C 
ATOM     37  H3  C4K d   1      70.315  32.783  27.345  0.00  0.00     0.049 H 
ATOM     38  H4  C4K d   1      69.987  34.272  26.395  0.00  0.00     0.049 H 
BRANCH  36  39
ATOM     39  C14 C4K d   1      70.498  32.573  25.255  0.00  0.00    -0.052 A 
ATOM     40  C15 C4K d   1      70.910  33.426  24.244  0.00  0.00    -0.076 A 
ATOM     41  C18 C4K d   1      71.635  32.929  23.161  0.00  0.00    -0.082 A 
ATOM     42  H5  C4K d   1      70.668  34.481  24.295  0.00  0.00     0.084 H 
ATOM     43  C16 C4K d   1      71.990  31.601  23.075  0.00  0.00    -0.077 A 
ATOM     44  H18 C4K d   1      71.927  33.606  22.366  0.00  0.00     0.083 H 
ATOM     45  C17 C4K d   1      71.619  30.760  24.104  0.00  0.00    -0.061 A 
ATOM     46  H6  C4K d   1      72.545  31.227  22.223  0.00  0.00     0.084 H 
ATOM     47  C19 C4K d   1      70.872  31.224  25.202  0.00  0.00    -0.071 A 
ATOM     48  H7  C4K d   1      70.589  30.545  25.998  0.00  0.00     0.085 H 
BRANCH  45  49
ATOM     49  C20 C4K d   1      71.987  29.325  23.966  0.00  0.00    -0.051 C 
ATOM     50  H8  C4K d   1      72.566  29.182  23.042  0.00  0.00     0.033 H 
ATOM     51  H9  C4K d   1      71.073  28.715  23.924  0.00  0.00     0.033 H 
ATOM     52  H10 C4K d   1      72.594  29.017  24.830  0.00  0.00     0.033 H 
ENDBRANCH  45  49
ENDBRANCH  36  39
ENDBRANCH   6  36
TORSDOF 7
