REMARK  5 active torsions:
REMARK  status: ('A' for Active; 'I' for Inactive)
REMARK    1  A    between atoms: C2_2  and  O16_20 
REMARK    2  A    between atoms: C5_16  and  C3_3 
REMARK    3  A    between atoms: N9_19  and  C10_5 
REMARK    4  A    between atoms: C19_11  and  C22_12 
REMARK    5  A    between atoms: C22_12  and  C23_25 
ROOT
ATOM      1  C1  C3Z d   1      65.103  33.141  25.610  0.00  0.00    -0.020 A 
ATOM      2  C2  C3Z d   1      65.105  33.854  24.418  0.00  0.00     0.080 A 
ATOM      3  C3  C3Z d   1      66.317  34.232  23.789  0.00  0.00     0.027 A 
ATOM      4  C19 C3Z d   1      68.644  32.566  26.321  0.00  0.00     0.044 A 
ATOM      5  C4  C3Z d   1      67.540  33.832  24.320  0.00  0.00    -0.054 A 
ATOM      6  C17 C3Z d   1      66.348  32.753  26.160  0.00  0.00     0.091 A 
ATOM      7  C18 C3Z d   1      67.562  33.102  25.511  0.00  0.00     0.020 A 
ATOM      8  N20 C3Z d   1      68.108  32.048  27.408  0.00  0.00    -0.281 N 
ATOM      9  N21 C3Z d   1      66.720  32.096  27.313  0.00  0.00    -0.174 NA
ATOM     10  H1  C3Z d   1      64.173  32.889  26.106  0.00  0.00     0.091 H 
ATOM     11  H12 C3Z d   1      68.465  34.084  23.815  0.00  0.00     0.086 H 
ATOM     12  H15 C3Z d   1      68.636  31.666  28.206  0.00  0.00     0.189 HD
ENDROOT
BRANCH   3  13
ATOM     13  C5  C3Z d   1      66.319  35.092  22.582  0.00  0.00     0.073 A 
ATOM     14  C6  C3Z d   1      65.702  34.829  21.394  0.00  0.00    -0.036 A 
ATOM     15  C7  C3Z d   1      65.963  35.903  20.542  0.00  0.00     0.024 A 
ATOM     16  H13 C3Z d   1      65.114  33.944  21.155  0.00  0.00     0.089 H 
ATOM     17  N8  C3Z d   1      66.702  36.781  21.169  0.00  0.00    -0.179 NA
ATOM     18  H2  C3Z d   1      65.607  35.995  19.517  0.00  0.00     0.117 H 
ATOM     19  N9  C3Z d   1      66.919  36.327  22.473  0.00  0.00    -0.234 N 
BRANCH  19  20
ATOM     20  C10 C3Z d   1      67.731  36.969  23.440  0.00  0.00     0.059 A 
ATOM     21  C11 C3Z d   1      69.090  37.178  23.149  0.00  0.00    -0.055 A 
ATOM     22  C12 C3Z d   1      69.928  37.765  24.104  0.00  0.00    -0.081 A 
ATOM     23  H3  C3Z d   1      69.489  36.885  22.185  0.00  0.00     0.087 H 
ATOM     24  C13 C3Z d   1      69.417  38.125  25.354  0.00  0.00    -0.083 A 
ATOM     25  H4  C3Z d   1      70.973  37.940  23.874  0.00  0.00     0.083 H 
ATOM     26  C14 C3Z d   1      68.066  37.907  25.649  0.00  0.00    -0.081 A 
ATOM     27  H5  C3Z d   1      70.068  38.574  26.096  0.00  0.00     0.083 H 
ATOM     28  C15 C3Z d   1      67.220  37.340  24.698  0.00  0.00    -0.055 A 
ATOM     29  H6  C3Z d   1      67.676  38.181  26.623  0.00  0.00     0.083 H 
ATOM     30  H7  C3Z d   1      66.172  37.185  24.926  0.00  0.00     0.087 H 
ENDBRANCH  19  20
ENDBRANCH   3  13
BRANCH   2  31
ATOM     31  O16 C3Z d   1      63.933  34.239  23.871  0.00  0.00    -0.360 OA
ATOM     32  H14 C3Z d   1      63.215  33.913  24.401  0.00  0.00     0.217 HD
ENDBRANCH   2  31
BRANCH   4  33
ATOM     33  C22 C3Z d   1      70.118  32.752  26.028  0.00  0.00    -0.001 C 
ATOM     34  H8  C3Z d   1      70.668  32.612  26.970  0.00  0.00     0.049 H 
ATOM     35  H9  C3Z d   1      70.261  33.782  25.669  0.00  0.00     0.049 H 
BRANCH  33  36
ATOM     36  C23 C3Z d   1      70.719  31.816  24.999  0.00  0.00    -0.052 A 
ATOM     37  C24 C3Z d   1      70.786  30.441  25.223  0.00  0.00    -0.076 A 
ATOM     38  C27 C3Z d   1      71.418  29.604  24.299  0.00  0.00    -0.082 A 
ATOM     39  H10 C3Z d   1      70.345  30.019  26.119  0.00  0.00     0.084 H 
ATOM     40  C25 C3Z d   1      72.001  30.135  23.150  0.00  0.00    -0.083 A 
ATOM     41  H11 C3Z d   1      71.455  28.535  24.477  0.00  0.00     0.083 H 
ATOM     42  C26 C3Z d   1      71.958  31.515  22.931  0.00  0.00    -0.082 A 
ATOM     43  H16 C3Z d   1      72.484  29.483  22.431  0.00  0.00     0.083 H 
ATOM     44  C28 C3Z d   1      71.328  32.349  23.860  0.00  0.00    -0.076 A 
ATOM     45  H17 C3Z d   1      72.412  31.938  22.042  0.00  0.00     0.083 H 
ATOM     46  H18 C3Z d   1      71.312  33.420  23.695  0.00  0.00     0.084 H 
ENDBRANCH  33  36
ENDBRANCH   4  33
TORSDOF 5
