REMARK  8 active torsions:
REMARK  status: ('A' for Active; 'I' for Inactive)
REMARK    1  A    between atoms: N1_1  and  C1'_9 
REMARK    2  A    between atoms: C2'_10  and  O2'_11 
REMARK    3  A    between atoms: C3'_12  and  O3'_15 
REMARK    4  A    between atoms: C4'_13  and  C5'_16 
REMARK    5  A    between atoms: C5'_16  and  O5'_17 
REMARK    6  A    between atoms: O5'_17  and  PA_18 
REMARK    7  A    between atoms: PA_18  and  O3A_21 
REMARK    8  A    between atoms: O3A_21  and  PB_22 
ROOT
ATOM      1  C1' UDP d   1     -11.616  -8.431 -30.578  0.00  0.00     0.141 C 
ATOM      2  C2' UDP d   1     -10.481  -8.802 -31.545  0.00  0.00     0.105 C 
ATOM      3  C3' UDP d   1     -11.152  -8.627 -32.906  0.00  0.00     0.091 C 
ATOM      4  C4' UDP d   1     -12.064  -7.439 -32.646  0.00  0.00     0.089 C 
ATOM      5  O4' UDP d   1     -12.566  -7.675 -31.314  0.00  0.00    -0.353 OA
ATOM      6  H4  UDP d   1     -11.206  -7.821 -29.760  0.00  0.00     0.123 H 
ATOM      7  H5  UDP d   1     -10.119  -9.829 -31.390  0.00  0.00     0.093 H 
ATOM      8  H7  UDP d   1     -11.727  -9.520 -33.191  0.00  0.00     0.091 H 
ATOM      9  H8  UDP d   1     -11.467  -6.515 -32.670  0.00  0.00     0.090 H 
ENDROOT
BRANCH   4  10
ATOM     10  C5' UDP d   1     -13.214  -7.273 -33.607  0.00  0.00     0.058 C 
ATOM     11  H10 UDP d   1     -12.870  -6.740 -34.505  0.00  0.00     0.079 H 
ATOM     12  H11 UDP d   1     -14.018  -6.697 -33.124  0.00  0.00     0.079 H 
BRANCH  10  13
ATOM     13  O5' UDP d   1     -13.710  -8.579 -33.979  0.00  0.00    -0.287 OA
BRANCH  13  14
ATOM     14  PA  UDP d   1     -14.782  -8.756 -35.133  0.00  0.00     0.418 P 
ATOM     15  O1A UDP d   1     -14.244  -8.075 -36.337  0.00  0.00    -0.624 OA
ATOM     16  O2A UDP d   1     -15.175 -10.227 -35.293  0.00  0.00    -0.624 OA
BRANCH  14  17
ATOM     17  O3A UDP d   1     -16.077  -7.997 -34.598  0.00  0.00    -0.173 OA
BRANCH  17  18
ATOM     18  PB  UDP d   1     -16.856  -6.821 -35.327  0.00  0.00     0.431 P 
ATOM     19  O1B UDP d   1     -16.133  -6.316 -36.506  0.00  0.00    -0.616 OA
ATOM     20  O2B UDP d   1     -17.024  -5.774 -34.220  0.00  0.00    -0.616 OA
ATOM     21  O3B UDP d   1     -18.214  -7.452 -35.640  0.00  0.00    -0.616 OA
ENDBRANCH  17  18
ENDBRANCH  14  17
ENDBRANCH  13  14
ENDBRANCH  10  13
ENDBRANCH   4  10
BRANCH   3  22
ATOM     22  O3' UDP d   1     -10.188  -8.338 -33.913  0.00  0.00    -0.390 OA
ATOM     23  H9  UDP d   1     -10.634  -8.119 -34.723  0.00  0.00     0.210 HD
ENDBRANCH   3  22
BRANCH   2  24
ATOM     24  O2' UDP d   1      -9.420  -7.867 -31.401  0.00  0.00    -0.388 OA
ATOM     25  H6  UDP d   1      -8.716  -8.094 -31.998  0.00  0.00     0.210 HD
ENDBRANCH   2  24
BRANCH   1  26
ATOM     26  N1  UDP d   1     -12.285  -9.608 -29.999  0.00  0.00    -0.280 N 
ATOM     27  C2  UDP d   1     -11.690 -10.203 -28.907  0.00  0.00     0.331 A 
ATOM     28  N3  UDP d   1     -12.342 -11.299 -28.415  0.00  0.00    -0.275 N 
ATOM     29  O2  UDP d   1     -10.658  -9.786 -28.403  0.00  0.00    -0.246 OA
ATOM     30  C4  UDP d   1     -13.507 -11.858 -28.900  0.00  0.00     0.250 A 
ATOM     31  H1  UDP d   1     -11.931 -11.743 -27.619  0.00  0.00     0.173 HD
ATOM     32  C5  UDP d   1     -14.060 -11.196 -30.035  0.00  0.00    -0.002 A 
ATOM     33  O4  UDP d   1     -13.975 -12.867 -28.348  0.00  0.00    -0.268 OA
ATOM     34  C6  UDP d   1     -13.444 -10.111 -30.543  0.00  0.00    -0.008 A 
ATOM     35  H2  UDP d   1     -14.977 -11.566 -30.490  0.00  0.00     0.094 H 
ATOM     36  H3  UDP d   1     -13.877  -9.617 -31.411  0.00  0.00     0.112 H 
ENDBRANCH   1  26
TORSDOF 8
