REMARK  11 active torsions:
REMARK  status: ('A' for Active; 'I' for Inactive)
REMARK    1  A    between atoms: N1_1  and  CA1_2 
REMARK    2  A    between atoms: CA1_2  and  C1_3 
REMARK    3  A    between atoms: CA1_2  and  CB1_6 
REMARK    4  A    between atoms: CB1_6  and  CG1_7 
REMARK    5  A    between atoms: CG1_7  and  CD1_8 
REMARK       I    between atoms: CD1_8  and  N2_10 
REMARK    6  A    between atoms: N2_10  and  CA2_11 
REMARK    7  A    between atoms: CA2_11  and  C2_12 
REMARK    8  A    between atoms: CA2_11  and  CB2_14 
REMARK       I    between atoms: C2_12  and  N3_19 
REMARK    9  A    between atoms: CB2_14  and  SG2_15 
REMARK   10  A    between atoms: N3_19  and  CA3_20 
REMARK   11  A    between atoms: CA3_20  and  C3_21 
ROOT
ATOM      1  CD1 GTS d   1     -44.549  42.236 -33.720  0.00  0.00     0.218 C 
ATOM      2  OE1 GTS d   1     -43.550  42.816 -33.389  0.00  0.00    -0.274 OA
ATOM      3  N2  GTS d   1     -44.433  40.922 -34.246  0.00  0.00    -0.347 N 
ATOM      4  H9  GTS d   1     -45.251  40.423 -34.533  0.00  0.00     0.163 HD
ENDROOT
BRANCH   3   5
ATOM      5  CA2 GTS d   1     -43.156  40.321 -34.363  0.00  0.00     0.104 C 
ATOM      6  H10 GTS d   1     -42.507  40.659 -33.541  0.00  0.00     0.089 H 
BRANCH   5   7
ATOM      7  C2  GTS d   1     -42.537  40.645 -35.705  0.00  0.00     0.241 C 
ATOM      8  O2  GTS d   1     -43.257  40.817 -36.654  0.00  0.00    -0.271 OA
ATOM      9  N3  GTS d   1     -41.090  40.677 -35.847  0.00  0.00    -0.349 N 
ATOM     10  H13 GTS d   1     -40.492  40.514 -35.062  0.00  0.00     0.163 HD
BRANCH   9  11
ATOM     11  CA3 GTS d   1     -40.538  40.952 -37.160  0.00  0.00     0.075 C 
ATOM     12  H14 GTS d   1     -41.340  41.334 -37.809  0.00  0.00     0.080 H 
ATOM     13  H15 GTS d   1     -40.140  40.017 -37.580  0.00  0.00     0.080 H 
BRANCH  11  14
ATOM     14  C3  GTS d   1     -39.424  41.976 -37.108  0.00  0.00     0.191 C 
ATOM     15  O31 GTS d   1     -39.368  42.821 -36.184  0.00  0.00    -0.647 OA
ATOM     16  O32 GTS d   1     -38.564  41.977 -38.008  0.00  0.00    -0.647 OA
ENDBRANCH  11  14
ENDBRANCH   9  11
ENDBRANCH   5   7
BRANCH   5  17
ATOM     17  CB2 GTS d   1     -43.300  38.804 -34.356  0.00  0.00     0.072 C 
ATOM     18  H11 GTS d   1     -42.336  38.347 -34.623  0.00  0.00     0.064 H 
ATOM     19  H12 GTS d   1     -44.062  38.509 -35.092  0.00  0.00     0.064 H 
BRANCH  17  20
ATOM     20  SG2 GTS d   1     -43.799  38.227 -32.719  0.00  0.00     0.104 S 
ATOM     21  O1S GTS d   1     -43.419  36.783 -32.559  0.00  0.00    -0.595 OA
ATOM     22  O2S GTS d   1     -45.264  38.444 -32.506  0.00  0.00    -0.595 OA
ATOM     23  O3S GTS d   1     -43.226  39.059 -31.589  0.00  0.00    -0.595 OA
ENDBRANCH  17  20
ENDBRANCH   5  17
ENDBRANCH   3   5
BRANCH   1  24
ATOM     24  CG1 GTS d   1     -45.947  42.906 -33.575  0.00  0.00     0.012 C 
ATOM     25  H7  GTS d   1     -46.250  43.328 -34.544  0.00  0.00     0.047 H 
ATOM     26  H8  GTS d   1     -46.681  42.151 -33.258  0.00  0.00     0.047 H 
BRANCH  24  27
ATOM     27  CB1 GTS d   1     -45.888  44.016 -32.539  0.00  0.00    -0.021 C 
ATOM     28  H5  GTS d   1     -45.810  43.578 -31.533  0.00  0.00     0.037 H 
ATOM     29  H6  GTS d   1     -45.012  44.653 -32.730  0.00  0.00     0.037 H 
BRANCH  27  30
ATOM     30  CA1 GTS d   1     -47.170  44.858 -32.638  0.00  0.00     0.183 C 
ATOM     31  H4  GTS d   1     -47.214  45.354 -33.619  0.00  0.00     0.101 H 
BRANCH  30  32
ATOM     32  N1  GTS d   1     -47.162  45.832 -31.611  0.00  0.00    -0.065 N 
ATOM     33  H1  GTS d   1     -46.360  46.432 -31.724  0.00  0.00     0.275 HD
ATOM     34  H2  GTS d   1     -47.116  45.374 -30.714  0.00  0.00     0.275 HD
ATOM     35  H3  GTS d   1     -48.004  46.383 -31.664  0.00  0.00     0.275 HD
ENDBRANCH  30  32
BRANCH  30  36
ATOM     36  C1  GTS d   1     -48.381  43.950 -32.469  0.00  0.00     0.204 C 
ATOM     37  O11 GTS d   1     -49.138  43.638 -33.465  0.00  0.00    -0.646 OA
ATOM     38  O12 GTS d   1     -48.650  43.518 -31.306  0.00  0.00    -0.646 OA
ENDBRANCH  30  36
ENDBRANCH  27  30
ENDBRANCH  24  27
ENDBRANCH   1  24
TORSDOF 11
