REMARK  4 active torsions:
REMARK  status: ('A' for Active; 'I' for Inactive)
REMARK    1  A    between atoms: O2'_1  and  C2'_2 
REMARK    2  A    between atoms: C3'_5  and  O3'_6 
REMARK    3  A    between atoms: C4'_7  and  C5'_8 
REMARK    4  A    between atoms: C5'_8  and  O5'_9 
ROOT
ATOM      1  C2' EDG d   1      -9.864   3.903 -27.888  0.00  0.00     0.085 C 
ATOM      2  C1' EDG d   1      -9.916   5.085 -26.926  0.00  0.00     0.108 C 
ATOM      3  N4' EDG d   1     -10.778   6.085 -27.560  0.00  0.00    -0.064 N 
ATOM      4  C3' EDG d   1     -10.738   4.312 -29.085  0.00  0.00     0.091 C 
ATOM      5  C4' EDG d   1     -11.669   5.397 -28.525  0.00  0.00     0.148 C 
ATOM      6  H2  EDG d   1     -10.280   3.002 -27.414  0.00  0.00     0.089 H 
ATOM      7  H3  EDG d   1      -8.907   5.495 -26.769  0.00  0.00     0.079 H 
ATOM      8  H4  EDG d   1     -10.339   4.773 -25.960  0.00  0.00     0.079 H 
ATOM      9  H5  EDG d   1     -10.212   6.763 -28.045  0.00  0.00     0.277 HD
ATOM     10  H6  EDG d   1     -11.332   6.550 -26.858  0.00  0.00     0.277 HD
ATOM     11  H7  EDG d   1     -10.104   4.719 -29.887  0.00  0.00     0.090 H 
ATOM     12  H9  EDG d   1     -12.508   4.918 -28.000  0.00  0.00     0.091 H 
ENDROOT
BRANCH   5  13
ATOM     13  C5' EDG d   1     -12.260   6.385 -29.525  0.00  0.00     0.046 C 
ATOM     14  H10 EDG d   1     -13.046   6.966 -29.020  0.00  0.00     0.077 H 
ATOM     15  H11 EDG d   1     -12.701   5.818 -30.358  0.00  0.00     0.077 H 
BRANCH  13  16
ATOM     16  O5' EDG d   1     -11.294   7.292 -30.054  0.00  0.00    -0.399 OA
ATOM     17  H12 EDG d   1     -10.613   6.803 -30.500  0.00  0.00     0.209 HD
ENDBRANCH  13  16
ENDBRANCH   5  13
BRANCH   4  18
ATOM     18  O3' EDG d   1     -11.523   3.247 -29.614  0.00  0.00    -0.391 OA
ATOM     19  H8  EDG d   1     -10.950   2.549 -29.908  0.00  0.00     0.210 HD
ENDBRANCH   4  18
BRANCH   1  20
ATOM     20  O2' EDG d   1      -8.515   3.653 -28.255  0.00  0.00    -0.391 OA
ATOM     21  H1  EDG d   1      -8.482   2.917 -28.854  0.00  0.00     0.210 HD
ENDBRANCH   1  20
TORSDOF 4
