REMARK  4 active torsions:
REMARK  status: ('A' for Active; 'I' for Inactive)
REMARK    1  A    between atoms: C3_3  and  C2_2 
REMARK    2  A    between atoms: O1_14  and  C3_3 
REMARK    3  A    between atoms: C4_12  and  C8_5 
REMARK    4  A    between atoms: C4_12  and  O1_14 
ROOT
ATOM      1  C1  C9E d   1       3.118  -9.064 -16.596  0.00  0.00     0.138 A 
ATOM      2  C7  C9E d   1       1.383  -9.829 -15.307  0.00  0.00    -0.053 A 
ATOM      3  C8  C9E d   1       1.000  -8.155 -17.323  0.00  0.00     0.054 A 
ATOM      4  C9  C9E d   1       1.695  -8.998 -16.442  0.00  0.00     0.027 A 
ATOM      5  C10 C9E d   1       2.580 -10.381 -14.843  0.00  0.00    -0.020 A 
ATOM      6  N1  C9E d   1       3.875  -8.455 -17.524  0.00  0.00    -0.242 NA
ATOM      7  N2  C9E d   1       3.595  -9.906 -15.637  0.00  0.00    -0.350 N 
ATOM      8  C5  C9E d   1       3.186  -7.659 -18.360  0.00  0.00     0.005 A 
ATOM      9  C6  C9E d   1       1.800  -7.508 -18.298  0.00  0.00    -0.049 A 
ATOM     10  H6  C9E d   1       0.393  -9.997 -14.886  0.00  0.00     0.087 H 
ATOM     11  H7  C9E d   1       2.688 -11.065 -14.003  0.00  0.00     0.111 H 
ATOM     12  H8  C9E d   1       4.588 -10.154 -15.522  0.00  0.00     0.166 HD
ATOM     13  H9  C9E d   1       3.732  -7.109 -19.117  0.00  0.00     0.114 H 
ATOM     14  H10 C9E d   1       1.315  -6.869 -19.026  0.00  0.00     0.087 H 
ENDROOT
BRANCH   3  15
ATOM     15  C4  C9E d   1      -0.501  -7.982 -17.204  0.00  0.00     0.294 C 
ATOM     16  O2  C9E d   1      -1.009  -7.266 -18.067  0.00  0.00    -0.259 OA
BRANCH  15  17
ATOM     17  O1  C9E d   1      -1.167  -7.935 -15.988  0.00  0.00    -0.318 OA
BRANCH  17  18
ATOM     18  C3  C9E d   1      -2.585  -7.876 -15.855  0.00  0.00     0.026 C 
ATOM     19  H4  C9E d   1      -2.894  -6.827 -15.735  0.00  0.00     0.074 H 
ATOM     20  H5  C9E d   1      -3.051  -8.294 -16.759  0.00  0.00     0.074 H 
BRANCH  18  21
ATOM     21  C2  C9E d   1      -3.042  -8.675 -14.640  0.00  0.00    -0.056 C 
ATOM     22  H1  C9E d   1      -4.137  -8.618 -14.554  0.00  0.00     0.030 H 
ATOM     23  H2  C9E d   1      -2.581  -8.258 -13.732  0.00  0.00     0.030 H 
ATOM     24  H3  C9E d   1      -2.738  -9.726 -14.757  0.00  0.00     0.030 H 
ENDBRANCH  18  21
ENDBRANCH  17  18
ENDBRANCH  15  17
ENDBRANCH   3  15
TORSDOF 4
