REMARK  5 active torsions:
REMARK  status: ('A' for Active; 'I' for Inactive)
REMARK    1  A    between atoms: N3_2  and  C8_7 
REMARK    2  A    between atoms: C9_6  and  C10_5 
REMARK    3  A    between atoms: C5_10  and  C9_6 
REMARK    4  A    between atoms: C9_6  and  N4_15 
REMARK    5  A    between atoms: N1_9  and  C5_10 
ROOT
ATOM      1  O1  CG8 d   1     -44.600 -22.997 -20.609  0.00  0.00    -0.246 OA
ATOM      2  N3  CG8 d   1     -48.345 -21.495 -16.320  0.00  0.00    -0.066 N 
ATOM      3  C6  CG8 d   1     -47.111 -20.978 -16.941  0.00  0.00     0.122 A 
ATOM      4  C7  CG8 d   1     -48.710 -22.786 -16.936  0.00  0.00     0.114 A 
ATOM      5  N2  CG8 d   1     -46.463 -24.002 -19.778  0.00  0.00    -0.275 N 
ATOM      6  N1  CG8 d   1     -45.700 -21.920 -18.863  0.00  0.00    -0.298 N 
ATOM      7  C4  CG8 d   1     -47.664 -22.989 -17.988  0.00  0.00     0.060 A 
ATOM      8  C3  CG8 d   1     -47.560 -24.099 -18.915  0.00  0.00     0.259 A 
ATOM      9  C2  CG8 d   1     -45.525 -22.969 -19.797  0.00  0.00     0.329 A 
ATOM     10  C1  CG8 d   1     -46.780 -21.999 -17.998  0.00  0.00     0.055 A 
ATOM     11  O2  CG8 d   1     -48.327 -25.058 -18.977  0.00  0.00    -0.267 OA
ATOM     12  H1  CG8 d   1     -49.079 -20.850 -16.568  0.00  0.00     0.280 HD
ATOM     13  H2  CG8 d   1     -46.301 -20.905 -16.200  0.00  0.00     0.085 H 
ATOM     14  H3  CG8 d   1     -47.285 -19.990 -17.392  0.00  0.00     0.085 H 
ATOM     15  H4  CG8 d   1     -49.713 -22.736 -17.385  0.00  0.00     0.083 H 
ATOM     16  H5  CG8 d   1     -48.681 -23.597 -16.193  0.00  0.00     0.083 H 
ATOM     17  H10 CG8 d   1     -46.340 -24.740 -20.442  0.00  0.00     0.173 HD
ENDROOT
BRANCH   6  18
ATOM     18  C5  CG8 d   1     -44.736 -20.843 -18.855  0.00  0.00     0.040 C 
ATOM     19  H11 CG8 d   1     -44.485 -20.596 -19.897  0.00  0.00     0.069 H 
ATOM     20  H12 CG8 d   1     -45.197 -19.969 -18.371  0.00  0.00     0.069 H 
BRANCH  18  21
ATOM     21  C9  CG8 d   1     -43.416 -21.181 -18.100  0.00  0.00     0.198 C 
ATOM     22  H6  CG8 d   1     -43.111 -22.192 -18.409  0.00  0.00     0.103 H 
BRANCH  21  23
ATOM     23  C10 CG8 d   1     -42.268 -20.217 -18.430  0.00  0.00     0.206 C 
ATOM     24  O3  CG8 d   1     -41.634 -19.700 -17.484  0.00  0.00    -0.646 OA
ATOM     25  O4  CG8 d   1     -42.016 -19.989 -19.630  0.00  0.00    -0.646 OA
ENDBRANCH  21  23
BRANCH  21  26
ATOM     26  N4  CG8 d   1     -43.612 -21.183 -16.641  0.00  0.00    -0.064 N 
ATOM     27  H13 CG8 d   1     -42.741 -21.405 -16.185  0.00  0.00     0.275 HD
ATOM     28  H14 CG8 d   1     -44.304 -21.873 -16.396  0.00  0.00     0.275 HD
ATOM     29  H15 CG8 d   1     -43.925 -20.272 -16.343  0.00  0.00     0.275 HD
ENDBRANCH  21  26
ENDBRANCH  18  21
ENDBRANCH   6  18
BRANCH   2  30
ATOM     30  C8  CG8 d   1     -48.311 -21.499 -14.863  0.00  0.00     0.067 C 
ATOM     31  H7  CG8 d   1     -48.031 -20.499 -14.500  0.00  0.00     0.068 H 
ATOM     32  H8  CG8 d   1     -47.572 -22.235 -14.515  0.00  0.00     0.068 H 
ATOM     33  H9  CG8 d   1     -49.305 -21.765 -14.474  0.00  0.00     0.068 H 
ENDBRANCH   2  30
TORSDOF 5
