REMARK  7 active torsions:
REMARK  status: ('A' for Active; 'I' for Inactive)
REMARK    1  A    between atoms: C2_16  and  C1_1 
REMARK    2  A    between atoms: C8_6  and  C5_3 
REMARK    3  A    between atoms: N9_18  and  C8_6 
REMARK       I    between atoms: C10_7  and  N12_8 
REMARK       I    between atoms: C10_7  and  N9_18 
REMARK    4  A    between atoms: N12_8  and  C13_9 
REMARK    5  A    between atoms: C15_11  and  S20_21 
REMARK    6  A    between atoms: C18_14  and  O19_20 
REMARK    7  A    between atoms: S20_21  and  N23_23 
ROOT
ATOM      1  C10 CJK d   1      10.975  33.675  16.075  0.00  0.00     0.321 C 
ATOM      2  N12 CJK d   1      12.245  34.081  16.410  0.00  0.00    -0.306 N 
ATOM      3  N9  CJK d   1       9.988  34.488  16.509  0.00  0.00    -0.339 N 
ATOM      4  O11 CJK d   1      10.755  32.642  15.444  0.00  0.00    -0.247 OA
ATOM      5  H9  CJK d   1      12.971  33.416  16.236  0.00  0.00     0.171 HD
ATOM      6  H14 CJK d   1      10.225  35.315  17.018  0.00  0.00     0.164 HD
ENDROOT
BRANCH   2   7
ATOM      7  C13 CJK d   1      12.666  35.316  16.969  0.00  0.00     0.071 A 
ATOM      8  C14 CJK d   1      13.287  35.332  18.225  0.00  0.00    -0.032 A 
ATOM      9  C15 CJK d   1      13.745  36.538  18.741  0.00  0.00     0.081 A 
ATOM     10  H10 CJK d   1      13.409  34.414  18.788  0.00  0.00     0.089 H 
ATOM     11  C16 CJK d   1      13.604  37.721  18.028  0.00  0.00    -0.058 A 
ATOM     12  C17 CJK d   1      12.968  37.706  16.793  0.00  0.00    -0.047 A 
ATOM     13  H11 CJK d   1      13.988  38.651  18.433  0.00  0.00     0.086 H 
ATOM     14  C18 CJK d   1      12.501  36.511  16.254  0.00  0.00     0.092 A 
ATOM     15  H12 CJK d   1      12.835  38.632  16.245  0.00  0.00     0.087 H 
BRANCH   9  16
ATOM     16  S20 CJK d   1      14.514  36.574  20.335  0.00  0.00     0.256 S 
ATOM     17  O21 CJK d   1      14.607  35.225  20.806  0.00  0.00    -0.201 OA
ATOM     18  O22 CJK d   1      13.803  37.530  21.127  0.00  0.00    -0.201 OA
BRANCH  16  19
ATOM     19  N23 CJK d   1      16.023  37.126  20.141  0.00  0.00    -0.324 N 
ATOM     20  H16 CJK d   1      16.626  37.221  20.933  0.00  0.00     0.169 HD
ATOM     21  H17 CJK d   1      16.352  37.372  19.229  0.00  0.00     0.169 HD
ENDBRANCH  16  19
ENDBRANCH   9  16
BRANCH  14  22
ATOM     22  O19 CJK d   1      11.904  36.475  15.015  0.00  0.00    -0.358 OA
ATOM     23  H15 CJK d   1      12.517  36.788  14.360  0.00  0.00     0.217 HD
ENDBRANCH  14  22
ENDBRANCH   2   7
BRANCH   3  24
ATOM     24  C8  CJK d   1       8.587  34.189  16.253  0.00  0.00     0.021 C 
ATOM     25  H7  CJK d   1       8.436  33.104  16.349  0.00  0.00     0.071 H 
ATOM     26  H8  CJK d   1       7.973  34.713  17.001  0.00  0.00     0.071 H 
BRANCH  24  27
ATOM     27  C5  CJK d   1       8.142  34.618  14.877  0.00  0.00    -0.040 A 
ATOM     28  C6  CJK d   1       7.294  33.824  14.121  0.00  0.00    -0.075 A 
ATOM     29  C7  CJK d   1       6.823  34.257  12.891  0.00  0.00    -0.077 A 
ATOM     30  H5  CJK d   1       6.995  32.852  14.496  0.00  0.00     0.084 H 
ATOM     31  C2  CJK d   1       7.195  35.490  12.372  0.00  0.00    -0.062 A 
ATOM     32  H6  CJK d   1       6.152  33.621  12.324  0.00  0.00     0.084 H 
ATOM     33  C3  CJK d   1       8.067  36.270  13.120  0.00  0.00    -0.077 A 
ATOM     34  C4  CJK d   1       8.528  35.847  14.355  0.00  0.00    -0.075 A 
ATOM     35  H4  CJK d   1       8.393  37.227  12.730  0.00  0.00     0.084 H 
ATOM     36  H13 CJK d   1       9.199  36.482  14.922  0.00  0.00     0.084 H 
BRANCH  31  37
ATOM     37  C1  CJK d   1       6.643  35.982  11.056  0.00  0.00    -0.051 C 
ATOM     38  H1  CJK d   1       7.063  36.973  10.830  0.00  0.00     0.033 H 
ATOM     39  H2  CJK d   1       5.547  36.054  11.122  0.00  0.00     0.033 H 
ATOM     40  H3  CJK d   1       6.917  35.277  10.257  0.00  0.00     0.033 H 
ENDBRANCH  31  37
ENDBRANCH  24  27
ENDBRANCH   3  24
TORSDOF 7
