REMARK  5 active torsions:
REMARK  status: ('A' for Active; 'I' for Inactive)
REMARK    1  A    between atoms: C3_3  and  O3_10 
REMARK    2  A    between atoms: C4_4  and  O4_12 
REMARK    3  A    between atoms: C5_5  and  C6_6 
REMARK    4  A    between atoms: C6_6  and  O6_14 
REMARK    5  A    between atoms: C2_13  and  O2_11 
ROOT
ATOM      1  C1  MVL d   1      22.076 125.096  -9.495  0.00  0.00     0.138 A 
ATOM      2  N10 MVL d   1      21.149 124.349  -8.867  0.00  0.00    -0.332 N 
ATOM      3  C3  MVL d   1      22.956 123.125 -10.766  0.00  0.00     0.093 C 
ATOM      4  C4  MVL d   1      22.133 122.313  -9.761  0.00  0.00     0.085 C 
ATOM      5  C5  MVL d   1      20.840 122.967  -9.273  0.00  0.00     0.065 C 
ATOM      6  C7  MVL d   1      21.224 126.305  -7.895  0.00  0.00     0.019 A 
ATOM      7  C8  MVL d   1      20.611 125.070  -7.873  0.00  0.00    -0.001 A 
ATOM      8  N1  MVL d   1      22.126 126.295  -8.908  0.00  0.00    -0.243 NA
ATOM      9  C2  MVL d   1      22.878 124.655 -10.671  0.00  0.00     0.119 C 
ATOM     10  H1  MVL d   1      22.614 122.843 -11.773  0.00  0.00     0.091 H 
ATOM     11  H2  MVL d   1      22.765 122.111  -8.884  0.00  0.00     0.090 H 
ATOM     12  H3  MVL d   1      20.115 122.989 -10.100  0.00  0.00     0.080 H 
ATOM     13  H6  MVL d   1      21.021 127.137  -7.222  0.00  0.00     0.117 H 
ATOM     14  H7  MVL d   1      19.837 124.743  -7.180  0.00  0.00     0.113 H 
ATOM     15  H11 MVL d   1      22.359 125.016 -11.571  0.00  0.00     0.099 H 
ENDROOT
BRANCH   5  16
ATOM     16  C6  MVL d   1      20.232 122.188  -8.121  0.00  0.00     0.038 C 
ATOM     17  H4  MVL d   1      20.171 121.125  -8.398  0.00  0.00     0.077 H 
ATOM     18  H5  MVL d   1      19.221 122.573  -7.921  0.00  0.00     0.077 H 
BRANCH  16  19
ATOM     19  O6  MVL d   1      21.023 122.317  -6.938  0.00  0.00    -0.399 OA
ATOM     20  H12 MVL d   1      21.896 121.982  -7.104  0.00  0.00     0.209 HD
ENDBRANCH  16  19
ENDBRANCH   5  16
BRANCH   4  21
ATOM     21  O4  MVL d   1      21.780 121.083 -10.399  0.00  0.00    -0.391 OA
ATOM     22  H10 MVL d   1      22.567 120.653 -10.713  0.00  0.00     0.210 HD
ENDBRANCH   4  21
BRANCH   3  23
ATOM     23  O3  MVL d   1      24.329 122.742 -10.608  0.00  0.00    -0.390 OA
ATOM     24  H8  MVL d   1      24.609 122.930  -9.720  0.00  0.00     0.210 HD
ENDBRANCH   3  23
BRANCH   9  25
ATOM     25  O2  MVL d   1      24.197 125.229 -10.675  0.00  0.00    -0.385 OA
ATOM     26  H9  MVL d   1      24.687 124.898  -9.932  0.00  0.00     0.210 HD
ENDBRANCH   9  25
TORSDOF 5
