REMARK  5 active torsions:
REMARK  status: ('A' for Active; 'I' for Inactive)
REMARK    1  A    between atoms: N2_1  and  C4_2 
REMARK    2  A    between atoms: C4_2  and  C3_3 
REMARK    3  A    between atoms: C3_3  and  C2_4 
REMARK    4  A    between atoms: C2_4  and  C1_5 
REMARK    5  A    between atoms: C1_5  and  N1_6 
ROOT
ATOM      1  C3  PUT d   1      51.707  71.773  40.142  0.00  0.00    -0.041 C 
ATOM      2  H6  PUT d   1      51.178  71.815  41.105  0.00  0.00     0.035 H 
ATOM      3  H7  PUT d   1      51.079  71.257  39.401  0.00  0.00     0.035 H 
ENDROOT
BRANCH   1   4
ATOM      4  C4  PUT d   1      53.016  71.006  40.317  0.00  0.00     0.080 C 
ATOM      5  H4  PUT d   1      52.795  69.950  40.529  0.00  0.00     0.075 H 
ATOM      6  H5  PUT d   1      53.608  71.079  39.393  0.00  0.00     0.075 H 
BRANCH   4   7
ATOM      7  N2  PUT d   1      53.772  71.571  41.420  0.00  0.00    -0.079 N 
ATOM      8  H1  PUT d   1      54.635  71.062  41.532  0.00  0.00     0.274 HD
ATOM      9  H2  PUT d   1      53.230  71.504  42.267  0.00  0.00     0.274 HD
ATOM     10  H3  PUT d   1      53.976  72.539  41.227  0.00  0.00     0.274 HD
ENDBRANCH   4   7
ENDBRANCH   1   4
BRANCH   1  11
ATOM     11  C2  PUT d   1      51.994  73.193  39.660  0.00  0.00    -0.041 C 
ATOM     12  H8  PUT d   1      52.711  73.673  40.342  0.00  0.00     0.035 H 
ATOM     13  H9  PUT d   1      51.058  73.771  39.645  0.00  0.00     0.035 H 
BRANCH  11  14
ATOM     14  C1  PUT d   1      52.585  73.147  38.252  0.00  0.00     0.080 C 
ATOM     15  H10 PUT d   1      51.772  73.070  37.515  0.00  0.00     0.075 H 
ATOM     16  H11 PUT d   1      53.248  72.274  38.160  0.00  0.00     0.075 H 
BRANCH  14  17
ATOM     17  N1  PUT d   1      53.345  74.360  38.010  0.00  0.00    -0.079 N 
ATOM     18  H12 PUT d   1      53.736  74.332  37.081  0.00  0.00     0.274 HD
ATOM     19  H13 PUT d   1      54.089  74.431  38.686  0.00  0.00     0.274 HD
ATOM     20  H14 PUT d   1      52.737  75.160  38.095  0.00  0.00     0.274 HD
ENDBRANCH  14  17
ENDBRANCH  11  14
ENDBRANCH   1  11
TORSDOF 5
