REMARK  16 active torsions:
REMARK  status: ('A' for Active; 'I' for Inactive)
REMARK       I    between atoms: C10_1  and  N12_2 
REMARK    1  A    between atoms: C05_13  and  C10_1 
REMARK    2  A    between atoms: N12_2  and  C13_3 
REMARK    3  A    between atoms: C13_3  and  C14_16 
REMARK    4  A    between atoms: C14_16  and  C15_4 
REMARK    5  A    between atoms: C15_4  and  C16_17 
REMARK    6  A    between atoms: C16_17  and  C21_7 
REMARK       I    between atoms: C21_7  and  N23_28 
REMARK    7  A    between atoms: C24_8  and  C25_20 
REMARK    8  A    between atoms: C24_8  and  C33_25 
REMARK    9  A    between atoms: N23_28  and  C24_8 
REMARK   10  A    between atoms: C25_20  and  C26_9 
REMARK   11  A    between atoms: C02_12  and  C01_11 
REMARK       I    between atoms: N04_27  and  C02_12 
REMARK   12  A    between atoms: C05_13  and  C06_14 
REMARK   13  A    between atoms: C05_13  and  N04_27 
REMARK   14  A    between atoms: C06_14  and  C07_15 
REMARK   15  A    between atoms: C14_16  and  C36_26 
REMARK   16  A    between atoms: C29_22  and  O32_34 
ROOT
ATOM      1  C17 D0W d   1     -14.432 -10.459  21.155  0.00  0.00    -0.050 C 
ATOM      2  C20 D0W d   1     -15.221  -8.233  21.315  0.00  0.00    -0.050 C 
ATOM      3  C16 D0W d   1     -14.078  -8.902  20.887  0.00  0.00     0.042 C 
ATOM      4  C18 D0W d   1     -15.566 -10.494  22.266  0.00  0.00    -0.064 C 
ATOM      5  C19 D0W d   1     -15.958  -9.179  22.496  0.00  0.00    -0.064 C 
ATOM      6  H6  D0W d   1     -13.539 -10.994  21.510  0.00  0.00     0.034 H 
ATOM      7  H7  D0W d   1     -14.796 -10.928  20.229  0.00  0.00     0.034 H 
ATOM      8  H8  D0W d   1     -15.909  -8.088  20.469  0.00  0.00     0.034 H 
ATOM      9  H9  D0W d   1     -14.946  -7.255  21.736  0.00  0.00     0.034 H 
ATOM     10  H19 D0W d   1     -15.172 -10.937  23.192  0.00  0.00     0.033 H 
ATOM     11  H20 D0W d   1     -16.423 -11.086  21.912  0.00  0.00     0.033 H 
ATOM     12  H21 D0W d   1     -17.052  -9.092  22.421  0.00  0.00     0.033 H 
ATOM     13  H22 D0W d   1     -15.632  -8.857  23.496  0.00  0.00     0.033 H 
ENDROOT
BRANCH   3  14
ATOM     14  C15 D0W d   1     -13.796  -8.745  19.385  0.00  0.00    -0.036 C 
ATOM     15  H4  D0W d   1     -13.055  -9.506  19.098  0.00  0.00     0.036 H 
ATOM     16  H5  D0W d   1     -14.736  -8.927  18.843  0.00  0.00     0.036 H 
BRANCH  14  17
ATOM     17  C14 D0W d   1     -13.256  -7.369  18.950  0.00  0.00     0.047 C 
ATOM     18  H18 D0W d   1     -12.327  -7.154  19.499  0.00  0.00     0.059 H 
BRANCH  17  19
ATOM     19  C13 D0W d   1     -12.978  -7.350  17.446  0.00  0.00     0.008 C 
ATOM     20  H2  D0W d   1     -12.053  -7.912  17.250  0.00  0.00     0.065 H 
ATOM     21  H3  D0W d   1     -13.818  -7.833  16.925  0.00  0.00     0.065 H 
BRANCH  19  22
ATOM     22  N12 D0W d   1     -12.821  -5.982  16.924  0.00  0.00    -0.358 N 
ATOM     23  C10 D0W d   1     -13.785  -5.429  15.957  0.00  0.00     0.240 C 
ATOM     24  O11 D0W d   1     -14.712  -6.076  15.617  0.00  0.00    -0.271 OA
ATOM     25  H1  D0W d   1     -12.051  -5.422  17.230  0.00  0.00     0.162 HD
BRANCH  23  26
ATOM     26  C05 D0W d   1     -13.673  -3.998  15.405  0.00  0.00     0.098 C 
ATOM     27  H15 D0W d   1     -12.658  -3.615  15.588  0.00  0.00     0.088 H 
BRANCH  26  28
ATOM     28  C06 D0W d   1     -14.722  -3.143  16.114  0.00  0.00     0.043 C 
ATOM     29  H16 D0W d   1     -14.758  -3.435  17.174  0.00  0.00     0.052 H 
ATOM     30  H17 D0W d   1     -15.702  -3.329  15.649  0.00  0.00     0.052 H 
BRANCH  28  31
ATOM     31  C07 D0W d   1     -14.413  -1.650  16.027  0.00  0.00     0.175 C 
ATOM     32  O08 D0W d   1     -15.005  -0.934  15.171  0.00  0.00    -0.648 OA
ATOM     33  O09 D0W d   1     -13.550  -1.146  16.798  0.00  0.00    -0.648 OA
ENDBRANCH  28  31
ENDBRANCH  26  28
BRANCH  26  34
ATOM     34  N04 D0W d   1     -13.997  -3.884  13.992  0.00  0.00    -0.348 N 
ATOM     35  C02 D0W d   1     -13.383  -2.874  13.129  0.00  0.00     0.214 C 
ATOM     36  O03 D0W d   1     -13.699  -2.824  11.988  0.00  0.00    -0.274 OA
ATOM     37  H28 D0W d   1     -14.662  -4.517  13.596  0.00  0.00     0.163 HD
BRANCH  35  38
ATOM     38  C01 D0W d   1     -12.321  -1.884  13.619  0.00  0.00    -0.003 C 
ATOM     39  H12 D0W d   1     -12.018  -1.230  12.788  0.00  0.00     0.040 H 
ATOM     40  H13 D0W d   1     -11.445  -2.438  13.988  0.00  0.00     0.040 H 
ATOM     41  H14 D0W d   1     -12.738  -1.272  14.433  0.00  0.00     0.040 H 
ENDBRANCH  35  38
ENDBRANCH  26  34
ENDBRANCH  23  26
ENDBRANCH  19  22
ENDBRANCH  17  19
BRANCH  17  42
ATOM     42  C36 D0W d   1     -14.289  -6.295  19.249  0.00  0.00     0.178 C 
ATOM     43  O37 D0W d   1     -13.982  -5.361  20.046  0.00  0.00    -0.648 OA
ATOM     44  O38 D0W d   1     -15.427  -6.362  18.699  0.00  0.00    -0.648 OA
ENDBRANCH  17  42
ENDBRANCH  14  17
ENDBRANCH   3  14
BRANCH   3  45
ATOM     45  C21 D0W d   1     -12.826  -8.621  21.756  0.00  0.00     0.227 C 
ATOM     46  N23 D0W d   1     -13.045  -8.160  23.104  0.00  0.00    -0.346 N 
ATOM     47  H29 D0W d   1     -13.977  -7.993  23.426  0.00  0.00     0.163 HD
ATOM     48  O22 D0W d   1     -11.706  -8.813  21.366  0.00  0.00    -0.273 OA
BRANCH  46  49
ATOM     49  C24 D0W d   1     -11.926  -7.936  23.997  0.00  0.00     0.100 C 
ATOM     50  H10 D0W d   1     -11.135  -7.377  23.476  0.00  0.00     0.090 H 
BRANCH  49  51
ATOM     51  C25 D0W d   1     -12.356  -7.176  25.247  0.00  0.00    -0.013 C 
ATOM     52  H23 D0W d   1     -12.306  -6.099  25.029  0.00  0.00     0.043 H 
ATOM     53  H24 D0W d   1     -11.653  -7.419  26.057  0.00  0.00     0.043 H 
BRANCH  51  54
ATOM     54  C26 D0W d   1     -13.769  -7.502  25.727  0.00  0.00    -0.056 A 
ATOM     55  C27 D0W d   1     -14.009  -8.611  26.519  0.00  0.00    -0.074 A 
ATOM     56  C28 D0W d   1     -15.296  -8.886  26.952  0.00  0.00    -0.051 A 
ATOM     57  H25 D0W d   1     -13.191  -9.264  26.800  0.00  0.00     0.084 H 
ATOM     58  C29 D0W d   1     -16.341  -8.043  26.591  0.00  0.00     0.065 A 
ATOM     59  H11 D0W d   1     -15.488  -9.756  27.570  0.00  0.00     0.087 H 
ATOM     60  C30 D0W d   1     -16.096  -6.931  25.802  0.00  0.00    -0.051 A 
ATOM     61  C31 D0W d   1     -14.806  -6.655  25.369  0.00  0.00    -0.074 A 
ATOM     62  H26 D0W d   1     -16.913  -6.275  25.522  0.00  0.00     0.087 H 
ATOM     63  H27 D0W d   1     -14.611  -5.783  24.755  0.00  0.00     0.084 H 
BRANCH  58  64
ATOM     64  O32 D0W d   1     -17.652  -8.303  27.020  0.00  0.00    -0.361 OA
ATOM     65  H30 D0W d   1     -17.660  -9.093  27.548  0.00  0.00     0.217 HD
ENDBRANCH  58  64
ENDBRANCH  51  54
ENDBRANCH  49  51
BRANCH  49  66
ATOM     66  C33 D0W d   1     -11.413  -9.326  24.433  0.00  0.00     0.197 C 
ATOM     67  O34 D0W d   1     -12.156 -10.330  24.264  0.00  0.00    -0.646 OA
ATOM     68  O35 D0W d   1     -10.266  -9.511  24.944  0.00  0.00    -0.646 OA
ENDBRANCH  49  66
ENDBRANCH  46  49
ENDBRANCH   3  45
TORSDOF 16
