REMARK  20 active torsions:
REMARK  status: ('A' for Active; 'I' for Inactive)
REMARK    1  A    between atoms: S02_40  and  C01_1 
REMARK    2  A    between atoms: C06_2  and  C07_3 
REMARK    3  A    between atoms: C06_2  and  C12_7 
REMARK    4  A    between atoms: N05_27  and  C06_2 
REMARK    5  A    between atoms: C07_3  and  C08_4 
REMARK    6  A    between atoms: C08_4  and  C09_5 
REMARK    7  A    between atoms: C09_5  and  C10_6 
REMARK    8  A    between atoms: C10_6  and  N11_28 
REMARK       I    between atoms: C12_7  and  N14_29 
REMARK    9  A    between atoms: C15_8  and  C16_9 
REMARK   10  A    between atoms: N14_29  and  C15_8 
REMARK   11  A    between atoms: C16_9  and  C17_10 
REMARK   12  A    between atoms: C16_9  and  C38_26 
REMARK   13  A    between atoms: C17_10  and  C18_11 
REMARK   14  A    between atoms: C18_11  and  C23_16 
REMARK       I    between atoms: C23_16  and  N25_30 
REMARK   15  A    between atoms: C26_17  and  C27_18 
REMARK   16  A    between atoms: C26_17  and  C35_25 
REMARK   17  A    between atoms: N25_30  and  C26_17 
REMARK   18  A    between atoms: C27_18  and  C28_19 
REMARK   19  A    between atoms: C31_22  and  O34_35 
REMARK   20  A    between atoms: N05_27  and  S02_40 
ROOT
ATOM      1  C17 D0Z d   1       0.072 -15.337 -24.194  0.00  0.00    -0.036 C 
ATOM      2  H16 D0Z d   1      -0.207 -14.347 -24.583  0.00  0.00     0.036 H 
ATOM      3  H17 D0Z d   1       0.170 -16.045 -25.030  0.00  0.00     0.036 H 
ENDROOT
BRANCH   1   4
ATOM      4  C16 D0Z d   1      -1.063 -15.833 -23.270  0.00  0.00     0.047 C 
ATOM      5  H15 D0Z d   1      -1.209 -15.123 -22.443  0.00  0.00     0.059 H 
BRANCH   4   6
ATOM      6  C15 D0Z d   1      -2.315 -15.890 -24.151  0.00  0.00     0.008 C 
ATOM      7  H13 D0Z d   1      -2.096 -16.445 -25.075  0.00  0.00     0.065 H 
ATOM      8  H14 D0Z d   1      -2.639 -14.870 -24.404  0.00  0.00     0.065 H 
BRANCH   6   9
ATOM      9  N14 D0Z d   1      -3.362 -16.569 -23.405  0.00  0.00    -0.358 N 
ATOM     10  C12 D0Z d   1      -4.031 -17.730 -23.972  0.00  0.00     0.241 C 
ATOM     11  O13 D0Z d   1      -3.720 -18.162 -25.032  0.00  0.00    -0.271 OA
ATOM     12  H37 D0Z d   1      -3.623 -16.237 -22.499  0.00  0.00     0.162 HD
BRANCH  10  13
ATOM     13  C06 D0Z d   1      -5.114 -18.417 -23.149  0.00  0.00     0.096 C 
ATOM     14  H4  D0Z d   1      -5.579 -17.701 -22.455  0.00  0.00     0.088 H 
BRANCH  13  15
ATOM     15  C07 D0Z d   1      -4.548 -19.623 -22.388  0.00  0.00    -0.037 C 
ATOM     16  H5  D0Z d   1      -3.782 -19.295 -21.670  0.00  0.00     0.036 H 
ATOM     17  H6  D0Z d   1      -4.106 -20.345 -23.091  0.00  0.00     0.036 H 
BRANCH  15  18
ATOM     18  C08 D0Z d   1      -5.743 -20.263 -21.643  0.00  0.00    -0.061 C 
ATOM     19  H7  D0Z d   1      -6.227 -20.997 -22.304  0.00  0.00     0.033 H 
ATOM     20  H8  D0Z d   1      -6.465 -19.476 -21.378  0.00  0.00     0.033 H 
BRANCH  18  21
ATOM     21  C09 D0Z d   1      -5.289 -20.959 -20.383  0.00  0.00    -0.043 C 
ATOM     22  H9  D0Z d   1      -4.718 -20.246 -19.771  0.00  0.00     0.035 H 
ATOM     23  H10 D0Z d   1      -4.643 -21.805 -20.659  0.00  0.00     0.035 H 
BRANCH  21  24
ATOM     24  C10 D0Z d   1      -6.454 -21.480 -19.566  0.00  0.00     0.080 C 
ATOM     25  H11 D0Z d   1      -6.239 -22.505 -19.230  0.00  0.00     0.075 H 
ATOM     26  H12 D0Z d   1      -7.365 -21.480 -20.183  0.00  0.00     0.075 H 
BRANCH  24  27
ATOM     27  N11 D0Z d   1      -6.649 -20.620 -18.410  0.00  0.00    -0.079 N 
ATOM     28  H34 D0Z d   1      -7.423 -20.963 -17.863  0.00  0.00     0.274 HD
ATOM     29  H35 D0Z d   1      -6.846 -19.681 -18.719  0.00  0.00     0.274 HD
ATOM     30  H36 D0Z d   1      -5.813 -20.620 -17.846  0.00  0.00     0.274 HD
ENDBRANCH  24  27
ENDBRANCH  21  24
ENDBRANCH  18  21
ENDBRANCH  15  18
ENDBRANCH  13  15
BRANCH  13  31
ATOM     31  N05 D0Z d   1      -6.083 -18.963 -24.075  0.00  0.00    -0.306 N 
ATOM     32  H33 D0Z d   1      -5.992 -19.881 -24.461  0.00  0.00     0.173 HD
BRANCH  31  33
ATOM     33  S02 D0Z d   1      -7.399 -17.931 -24.468  0.00  0.00     0.223 S 
ATOM     34  O03 D0Z d   1      -6.953 -17.095 -25.567  0.00  0.00    -0.206 OA
ATOM     35  O04 D0Z d   1      -8.402 -18.832 -25.063  0.00  0.00    -0.206 OA
BRANCH  33  36
ATOM     36  C01 D0Z d   1      -7.906 -17.009 -23.053  0.00  0.00     0.032 C 
ATOM     37  H1  D0Z d   1      -8.748 -16.355 -23.324  0.00  0.00     0.051 H 
ATOM     38  H2  D0Z d   1      -7.066 -16.396 -22.695  0.00  0.00     0.051 H 
ATOM     39  H3  D0Z d   1      -8.220 -17.701 -22.258  0.00  0.00     0.051 H 
ENDBRANCH  33  36
ENDBRANCH  31  33
ENDBRANCH  13  31
ENDBRANCH  10  13
ENDBRANCH   6   9
ENDBRANCH   4   6
BRANCH   4  40
ATOM     40  C38 D0Z d   1      -0.775 -17.211 -22.696  0.00  0.00     0.178 C 
ATOM     41  O39 D0Z d   1      -0.679 -17.397 -21.459  0.00  0.00    -0.648 OA
ATOM     42  O40 D0Z d   1      -0.552 -18.192 -23.441  0.00  0.00    -0.648 OA
ENDBRANCH   4  40
ENDBRANCH   1   4
BRANCH   1  43
ATOM     43  C18 D0Z d   1       1.446 -15.215 -23.498  0.00  0.00     0.042 C 
ATOM     44  C19 D0Z d   1       2.464 -14.418 -24.573  0.00  0.00    -0.050 C 
ATOM     45  C20 D0Z d   1       3.392 -15.375 -24.988  0.00  0.00    -0.064 C 
ATOM     46  H18 D0Z d   1       2.973 -13.581 -24.072  0.00  0.00     0.034 H 
ATOM     47  H19 D0Z d   1       1.893 -14.038 -25.433  0.00  0.00     0.034 H 
ATOM     48  C21 D0Z d   1       3.558 -16.344 -23.718  0.00  0.00    -0.064 C 
ATOM     49  H20 D0Z d   1       4.351 -14.902 -25.245  0.00  0.00     0.033 H 
ATOM     50  H21 D0Z d   1       3.014 -15.933 -25.857  0.00  0.00     0.033 H 
ATOM     51  C22 D0Z d   1       2.038 -16.482 -23.219  0.00  0.00    -0.050 C 
ATOM     52  H22 D0Z d   1       4.195 -15.888 -22.945  0.00  0.00     0.033 H 
ATOM     53  H23 D0Z d   1       3.975 -17.319 -24.009  0.00  0.00     0.033 H 
ATOM     54  H24 D0Z d   1       1.520 -17.281 -23.770  0.00  0.00     0.034 H 
ATOM     55  H25 D0Z d   1       2.002 -16.697 -22.141  0.00  0.00     0.034 H 
BRANCH  43  56
ATOM     56  C23 D0Z d   1       1.376 -14.220 -22.330  0.00  0.00     0.227 C 
ATOM     57  N25 D0Z d   1       2.351 -14.414 -21.286  0.00  0.00    -0.346 N 
ATOM     58  H38 D0Z d   1       2.927 -15.231 -21.309  0.00  0.00     0.163 HD
ATOM     59  O24 D0Z d   1       0.659 -13.247 -22.265  0.00  0.00    -0.273 OA
BRANCH  57  60
ATOM     60  C26 D0Z d   1       2.526 -13.461 -20.199  0.00  0.00     0.100 C 
ATOM     61  H26 D0Z d   1       1.556 -13.204 -19.749  0.00  0.00     0.090 H 
BRANCH  60  62
ATOM     62  C27 D0Z d   1       3.495 -13.979 -19.111  0.00  0.00    -0.013 C 
ATOM     63  H27 D0Z d   1       2.898 -14.489 -18.341  0.00  0.00     0.043 H 
ATOM     64  H28 D0Z d   1       4.001 -13.109 -18.667  0.00  0.00     0.043 H 
BRANCH  62  65
ATOM     65  C28 D0Z d   1       4.575 -14.958 -19.597  0.00  0.00    -0.056 A 
ATOM     66  C29 D0Z d   1       5.798 -14.494 -20.022  0.00  0.00    -0.074 A 
ATOM     67  C30 D0Z d   1       6.753 -15.433 -20.411  0.00  0.00    -0.051 A 
ATOM     68  H29 D0Z d   1       6.013 -13.432 -20.054  0.00  0.00     0.084 H 
ATOM     69  C31 D0Z d   1       6.460 -16.787 -20.361  0.00  0.00     0.065 A 
ATOM     70  H30 D0Z d   1       7.727 -15.103 -20.753  0.00  0.00     0.087 H 
ATOM     71  C32 D0Z d   1       5.236 -17.237 -19.914  0.00  0.00    -0.051 A 
ATOM     72  C33 D0Z d   1       4.274 -16.305 -19.530  0.00  0.00    -0.074 A 
ATOM     73  H31 D0Z d   1       5.025 -18.299 -19.862  0.00  0.00     0.087 H 
ATOM     74  H32 D0Z d   1       3.301 -16.633 -19.183  0.00  0.00     0.084 H 
BRANCH  69  75
ATOM     75  O34 D0Z d   1       7.446 -17.729 -20.757  0.00  0.00    -0.361 OA
ATOM     76  H39 D0Z d   1       7.111 -18.253 -21.475  0.00  0.00     0.217 HD
ENDBRANCH  69  75
ENDBRANCH  62  65
ENDBRANCH  60  62
BRANCH  60  77
ATOM     77  C35 D0Z d   1       3.182 -12.249 -20.852  0.00  0.00     0.197 C 
ATOM     78  O36 D0Z d   1       3.103 -11.132 -20.279  0.00  0.00    -0.646 OA
ATOM     79  O37 D0Z d   1       3.817 -12.344 -21.987  0.00  0.00    -0.646 OA
ENDBRANCH  60  77
ENDBRANCH  57  60
ENDBRANCH  43  56
ENDBRANCH   1  43
TORSDOF 20
