REMARK  9 active torsions:
REMARK  status: ('A' for Active; 'I' for Inactive)
REMARK    1  A    between atoms: C1_1  and  O17_17 
REMARK    2  A    between atoms: C3_3  and  C7_7 
REMARK    3  A    between atoms: C6_6  and  N19_19 
REMARK    4  A    between atoms: O17_17  and  C18_18 
REMARK    5  A    between atoms: N19_19  and  C20_20 
REMARK    6  A    between atoms: C23_23  and  C26_26 
REMARK    7  A    between atoms: C26_26  and  N27_27 
REMARK    8  A    between atoms: N27_27  and  C28_28 
REMARK    9  A    between atoms: N27_27  and  C29_29 
ROOT
ATOM      1  C1  D1W d   1      32.802  96.631  29.224  0.00  0.00     0.192 A 
ATOM      2  N2  D1W d   1      31.704  97.050  28.629  0.00  0.00    -0.222 NA
ATOM      3  C3  D1W d   1      31.787  97.539  27.384  0.00  0.00     0.072 A 
ATOM      4  C4  D1W d   1      33.002  97.586  26.700  0.00  0.00    -0.052 A 
ATOM      5  C5  D1W d   1      34.155  97.154  27.327  0.00  0.00    -0.051 A 
ATOM      6  C6  D1W d   1      34.107  96.636  28.626  0.00  0.00     0.086 A 
ATOM      7  H1  D1W d   1      33.041  97.959  25.683  0.00  0.00     0.087 H 
ATOM      8  H2  D1W d   1      35.105  97.217  26.808  0.00  0.00     0.087 H 
ENDROOT
BRANCH   6   9
ATOM      9  N19 D1W d   1      35.207  96.130  29.352  0.00  0.00    -0.353 N 
ATOM     10  H13 D1W d   1      34.987  95.865  30.323  0.00  0.00     0.166 HD
BRANCH   9  11
ATOM     11  C20 D1W d   1      36.550  95.923  28.987  0.00  0.00     0.032 A 
ATOM     12  C21 D1W d   1      36.993  95.636  27.693  0.00  0.00    -0.057 A 
ATOM     13  C22 D1W d   1      38.317  95.309  27.467  0.00  0.00    -0.073 A 
ATOM     14  H14 D1W d   1      36.296  95.670  26.864  0.00  0.00     0.086 H 
ATOM     15  C23 D1W d   1      39.224  95.247  28.504  0.00  0.00    -0.033 A 
ATOM     16  H15 D1W d   1      38.648  95.098  26.457  0.00  0.00     0.084 H 
ATOM     17  C24 D1W d   1      38.781  95.535  29.789  0.00  0.00    -0.073 A 
ATOM     18  C25 D1W d   1      37.466  95.877  30.035  0.00  0.00    -0.057 A 
ATOM     19  H16 D1W d   1      39.482  95.490  30.615  0.00  0.00     0.084 H 
ATOM     20  H17 D1W d   1      37.147  96.110  31.044  0.00  0.00     0.086 H 
BRANCH  15  21
ATOM     21  C26 D1W d   1      40.674  94.886  28.259  0.00  0.00     0.106 C 
ATOM     22  H18 D1W d   1      41.314  95.543  28.867  0.00  0.00     0.083 H 
ATOM     23  H19 D1W d   1      40.904  95.034  27.194  0.00  0.00     0.083 H 
BRANCH  21  24
ATOM     24  N27 D1W d   1      40.951  93.471  28.622  0.00  0.00    -0.075 N 
ATOM     25  H20 D1W d   1      40.584  93.309  29.547  0.00  0.00     0.279 HD
BRANCH  24  26
ATOM     26  C28 D1W d   1      40.286  92.523  27.682  0.00  0.00     0.066 C 
ATOM     27  H21 D1W d   1      40.513  91.489  27.982  0.00  0.00     0.068 H 
ATOM     28  H22 D1W d   1      40.656  92.698  26.661  0.00  0.00     0.068 H 
ATOM     29  H23 D1W d   1      39.198  92.682  27.710  0.00  0.00     0.068 H 
ENDBRANCH  24  26
BRANCH  24  30
ATOM     30  C29 D1W d   1      42.399  93.206  28.645  0.00  0.00     0.066 C 
ATOM     31  H24 D1W d   1      42.889  93.906  29.338  0.00  0.00     0.068 H 
ATOM     32  H25 D1W d   1      42.813  93.341  27.635  0.00  0.00     0.068 H 
ATOM     33  H26 D1W d   1      42.578  92.173  28.979  0.00  0.00     0.068 H 
ENDBRANCH  24  30
ENDBRANCH  21  24
ENDBRANCH  15  21
ENDBRANCH   9  11
ENDBRANCH   6   9
BRANCH   1  34
ATOM     34  O17 D1W d   1      32.737  96.163  30.480  0.00  0.00    -0.338 OA
BRANCH  34  35
ATOM     35  C18 D1W d   1      32.268  94.821  30.649  0.00  0.00     0.012 C 
ATOM     36  H10 D1W d   1      32.264  94.566  31.719  0.00  0.00     0.067 H 
ATOM     37  H11 D1W d   1      32.932  94.130  30.110  0.00  0.00     0.067 H 
ATOM     38  H12 D1W d   1      31.247  94.736  30.248  0.00  0.00     0.067 H 
ENDBRANCH  34  35
ENDBRANCH   1  34
BRANCH   3  39
ATOM     39  C7  D1W d   1      30.512  98.037  26.787  0.00  0.00     0.029 A 
ATOM     40  C8  D1W d   1      30.435  99.356  26.301  0.00  0.00    -0.068 A 
ATOM     41  C9  D1W d   1      29.254  99.845  25.759  0.00  0.00    -0.079 A 
ATOM     42  H3  D1W d   1      31.308  99.997  26.351  0.00  0.00     0.085 H 
ATOM     43  C10 D1W d   1      28.126  99.028  25.680  0.00  0.00    -0.048 A 
ATOM     44  H4  D1W d   1      29.208 100.865  25.396  0.00  0.00     0.083 H 
ATOM     45  C12 D1W d   1      28.168  97.727  26.161  0.00  0.00     0.103 A 
ATOM     46  H5  D1W d   1      27.212  99.411  25.241  0.00  0.00     0.087 H 
ATOM     47  C11 D1W d   1      29.358  97.220  26.690  0.00  0.00     0.114 A 
ATOM     48  O13 D1W d   1      27.016  96.965  26.073  0.00  0.00    -0.346 OA
ATOM     49  O16 D1W d   1      29.466  95.925  27.121  0.00  0.00    -0.345 OA
ATOM     50  C15 D1W d   1      28.415  94.988  26.789  0.00  0.00     0.046 C 
ATOM     51  C14 D1W d   1      27.020  95.628  26.636  0.00  0.00     0.046 C 
ATOM     52  H8  D1W d   1      28.676  94.500  25.839  0.00  0.00     0.078 H 
ATOM     53  H9  D1W d   1      28.362  94.233  27.587  0.00  0.00     0.078 H 
ATOM     54  H6  D1W d   1      26.418  94.981  25.982  0.00  0.00     0.078 H 
ATOM     55  H7  D1W d   1      26.556  95.676  27.632  0.00  0.00     0.078 H 
ENDBRANCH   3  39
TORSDOF 9
