REMARK  7 active torsions:
REMARK  status: ('A' for Active; 'I' for Inactive)
REMARK    1  A    between atoms: C5_3  and  S2_18 
REMARK    2  A    between atoms: N20_7  and  C7_5 
REMARK       I    between atoms: C22_8  and  N20_7 
REMARK       I    between atoms: N24_10  and  C22_8 
REMARK    3  A    between atoms: N24_10  and  C1_11 
REMARK    4  A    between atoms: C2_12  and  O1_17 
REMARK    5  A    between atoms: C9_13  and  C14_23 
REMARK    6  A    between atoms: C12_16  and  C13_22 
REMARK    7  A    between atoms: S2_18  and  N5_21 
ROOT
ATOM      1  N20 D3B d   1      12.322  35.611  15.072  0.00  0.00    -0.308 N 
ATOM      2  C22 D3B d   1      13.580  35.322  14.591  0.00  0.00     0.325 C 
ATOM      3  O23 D3B d   1      13.868  35.307  13.396  0.00  0.00    -0.247 OA
ATOM      4  N24 D3B d   1      14.494  35.053  15.582  0.00  0.00    -0.306 N 
ATOM      5  H5  D3B d   1      12.256  35.822  16.047  0.00  0.00     0.170 HD
ATOM      6  H6  D3B d   1      15.449  34.973  15.295  0.00  0.00     0.171 HD
ENDROOT
BRANCH   1   7
ATOM      7  C7  D3B d   1      11.106  35.643  14.334  0.00  0.00     0.042 A 
ATOM      8  C8  D3B d   1      11.033  36.341  13.123  0.00  0.00    -0.051 A 
ATOM      9  C9  D3B d   1       9.853  36.404  12.394  0.00  0.00    -0.060 A 
ATOM     10  H4  D3B d   1      11.917  36.843  12.746  0.00  0.00     0.087 H 
ATOM     11  C10 D3B d   1       8.731  35.770  12.913  0.00  0.00    -0.077 A 
ATOM     12  C11 D3B d   1       8.787  35.075  14.109  0.00  0.00    -0.075 A 
ATOM     13  H7  D3B d   1       7.794  35.821  12.371  0.00  0.00     0.084 H 
ATOM     14  C12 D3B d   1       9.969  34.978  14.843  0.00  0.00    -0.035 A 
ATOM     15  H8  D3B d   1       7.891  34.595  14.484  0.00  0.00     0.084 H 
BRANCH   9  16
ATOM     16  C14 D3B d   1       9.802  37.112  11.062  0.00  0.00    -0.051 C 
ATOM     17  H15 D3B d   1      10.789  37.543  10.838  0.00  0.00     0.033 H 
ATOM     18  H16 D3B d   1       9.052  37.915  11.102  0.00  0.00     0.033 H 
ATOM     19  H17 D3B d   1       9.529  36.394  10.275  0.00  0.00     0.033 H 
ENDBRANCH   9  16
BRANCH  14  20
ATOM     20  C13 D3B d   1      10.022  34.151  16.102  0.00  0.00    -0.049 C 
ATOM     21  H12 D3B d   1      11.034  34.201  16.531  0.00  0.00     0.033 H 
ATOM     22  H13 D3B d   1       9.776  33.105  15.865  0.00  0.00     0.033 H 
ATOM     23  H14 D3B d   1       9.295  34.543  16.829  0.00  0.00     0.033 H 
ENDBRANCH  14  20
ENDBRANCH   1   7
BRANCH   4  24
ATOM     24  C1  D3B d   1      14.237  34.876  16.963  0.00  0.00     0.071 A 
ATOM     25  C6  D3B d   1      14.593  35.842  17.910  0.00  0.00    -0.032 A 
ATOM     26  C5  D3B d   1      14.366  35.590  19.258  0.00  0.00     0.081 A 
ATOM     27  H3  D3B d   1      15.041  36.778  17.596  0.00  0.00     0.089 H 
ATOM     28  C4  D3B d   1      13.762  34.410  19.673  0.00  0.00    -0.058 A 
ATOM     29  C3  D3B d   1      13.396  33.461  18.731  0.00  0.00    -0.047 A 
ATOM     30  H2  D3B d   1      13.578  34.232  20.726  0.00  0.00     0.086 H 
ATOM     31  C2  D3B d   1      13.635  33.681  17.377  0.00  0.00     0.092 A 
ATOM     32  H1  D3B d   1      12.920  32.541  19.051  0.00  0.00     0.087 H 
BRANCH  26  33
ATOM     33  S2  D3B d   1      14.929  36.752  20.467  0.00  0.00     0.256 S 
ATOM     34  O3  D3B d   1      15.262  36.010  21.643  0.00  0.00    -0.201 OA
ATOM     35  O4  D3B d   1      13.945  37.789  20.562  0.00  0.00    -0.201 OA
BRANCH  33  36
ATOM     36  N5  D3B d   1      16.285  37.434  19.936  0.00  0.00    -0.324 N 
ATOM     37  H10 D3B d   1      16.750  38.122  20.493  0.00  0.00     0.169 HD
ATOM     38  H11 D3B d   1      16.663  37.170  19.049  0.00  0.00     0.169 HD
ENDBRANCH  33  36
ENDBRANCH  26  33
BRANCH  31  39
ATOM     39  O1  D3B d   1      12.997  32.933  16.435  0.00  0.00    -0.358 OA
ATOM     40  H9  D3B d   1      12.635  32.155  16.842  0.00  0.00     0.217 HD
ENDBRANCH  31  39
ENDBRANCH   4  24
TORSDOF 7
