REMARK  2 active torsions:
REMARK  status: ('A' for Active; 'I' for Inactive)
REMARK    1  A    between atoms: O1_1  and  C1_2 
REMARK    2  A    between atoms: C10_11  and  O2_12 
ROOT
ATOM      1  C1  D48 d   1      63.568  60.440-123.426  0.00  0.00     0.099 A 
ATOM      2  C2  D48 d   1      64.487  59.931-124.294  0.00  0.00    -0.037 A 
ATOM      3  C3  D48 d   1      64.403  58.583-124.719  0.00  0.00    -0.023 A 
ATOM      4  C4  D48 d   1      65.353  58.023-125.599  0.00  0.00    -0.072 A 
ATOM      5  C5  D48 d   1      65.267  56.720-125.968  0.00  0.00    -0.082 A 
ATOM      6  C6  D48 d   1      64.214  55.915-125.500  0.00  0.00    -0.082 A 
ATOM      7  C7  D48 d   1      63.258  56.432-124.686  0.00  0.00    -0.072 A 
ATOM      8  C8  D48 d   1      63.328  57.774-124.255  0.00  0.00    -0.023 A 
ATOM      9  C9  D48 d   1      62.371  58.334-123.369  0.00  0.00    -0.037 A 
ATOM     10  C10 D48 d   1      62.494  59.633-122.963  0.00  0.00     0.099 A 
ATOM     11  H2  D48 d   1      65.288  60.562-124.662  0.00  0.00     0.089 H 
ATOM     12  H3  D48 d   1      66.158  58.639-125.984  0.00  0.00     0.084 H 
ATOM     13  H4  D48 d   1      66.016  56.297-126.628  0.00  0.00     0.083 H 
ATOM     14  H5  D48 d   1      64.165  54.872-125.791  0.00  0.00     0.083 H 
ATOM     15  H6  D48 d   1      62.433  55.807-124.364  0.00  0.00     0.084 H 
ATOM     16  H7  D48 d   1      61.543  57.731-123.014  0.00  0.00     0.089 H 
ENDROOT
BRANCH   1  17
ATOM     17  O1  D48 d   1      63.631  61.722-122.973  0.00  0.00    -0.358 OA
ATOM     18  H1  D48 d   1      62.906  61.884-122.381  0.00  0.00     0.217 HD
ENDBRANCH   1  17
BRANCH  10  19
ATOM     19  O2  D48 d   1      61.650  60.230-122.085  0.00  0.00    -0.358 OA
ATOM     20  H8  D48 d   1      60.767  60.215-122.436  0.00  0.00     0.217 HD
ENDBRANCH  10  19
TORSDOF 2
