REMARK  4 active torsions:
REMARK  status: ('A' for Active; 'I' for Inactive)
REMARK    1  A    between atoms: C1_1  and  C3_2 
REMARK    2  A    between atoms: C8_5  and  O19_19 
REMARK    3  A    between atoms: C16_13  and  O20_20 
REMARK    4  A    between atoms: N2_14  and  C5_16 
ROOT
ATOM      1  C1  D4W d   1      64.908  34.686  23.245  0.00  0.00     0.073 A 
ATOM      2  N6  D4W d   1      65.520  36.318  21.827  0.00  0.00    -0.179 NA
ATOM      3  C9  D4W d   1      64.565  35.632  21.246  0.00  0.00     0.024 A 
ATOM      4  N2  D4W d   1      65.757  35.761  23.093  0.00  0.00    -0.232 N 
ATOM      5  C4  D4W d   1      64.161  34.601  22.100  0.00  0.00    -0.036 A 
ATOM      6  H2  D4W d   1      64.153  35.833  20.258  0.00  0.00     0.117 H 
ATOM      7  H8  D4W d   1      63.389  33.861  21.892  0.00  0.00     0.089 H 
ENDROOT
BRANCH   1   8
ATOM      8  C3  D4W d   1      64.807  33.830  24.459  0.00  0.00     0.026 A 
ATOM      9  C7  D4W d   1      65.971  33.237  24.981  0.00  0.00    -0.066 A 
ATOM     10  C12 D4W d   1      65.941  32.520  26.163  0.00  0.00    -0.050 A 
ATOM     11  H1  D4W d   1      66.908  33.344  24.447  0.00  0.00     0.085 H 
ATOM     12  C16 D4W d   1      64.729  32.347  26.826  0.00  0.00     0.068 A 
ATOM     13  H4  D4W d   1      66.852  32.097  26.570  0.00  0.00     0.087 H 
ATOM     14  C13 D4W d   1      63.552  32.905  26.321  0.00  0.00    -0.018 A 
ATOM     15  C8  D4W d   1      63.584  33.664  25.153  0.00  0.00     0.080 A 
ATOM     16  H5  D4W d   1      62.613  32.747  26.838  0.00  0.00     0.092 H 
BRANCH  12  17
ATOM     17  O20 D4W d   1      64.705  31.624  27.969  0.00  0.00    -0.361 OA
ATOM     18  H11 D4W d   1      64.128  30.877  27.858  0.00  0.00     0.217 HD
ENDBRANCH  12  17
BRANCH  15  19
ATOM     19  O19 D4W d   1      62.426  34.203  24.698  0.00  0.00    -0.360 OA
ATOM     20  H10 D4W d   1      61.803  33.508  24.519  0.00  0.00     0.217 HD
ENDBRANCH  15  19
ENDBRANCH   1   8
BRANCH   4  21
ATOM     21  C5  D4W d   1      66.696  36.209  24.043  0.00  0.00     0.080 A 
ATOM     22  C10 D4W d   1      67.994  35.692  24.030  0.00  0.00    -0.053 A 
ATOM     23  C14 D4W d   1      68.901  36.063  25.017  0.00  0.00    -0.081 A 
ATOM     24  H3  D4W d   1      68.294  35.001  23.250  0.00  0.00     0.087 H 
ATOM     25  C17 D4W d   1      68.531  36.968  26.008  0.00  0.00    -0.081 A 
ATOM     26  H6  D4W d   1      69.901  35.645  25.015  0.00  0.00     0.083 H 
ATOM     27  C15 D4W d   1      67.242  37.489  26.031  0.00  0.00    -0.060 A 
ATOM     28  H9  D4W d   1      69.249  37.267  26.763  0.00  0.00     0.083 H 
ATOM     29  C11 D4W d   1      66.322  37.095  25.065  0.00  0.00     0.062 A 
ATOM     30  H7  D4W d   1      66.955  38.199  26.798  0.00  0.00     0.086 H 
ATOM     31 CL1  D4W d   1      64.722  37.755  25.119  0.00  0.00    -0.082 Cl
ENDBRANCH   4  21
TORSDOF 4
