REMARK  7 active torsions:
REMARK  status: ('A' for Active; 'I' for Inactive)
REMARK    1  A    between atoms: C6_3  and  S12_4 
REMARK    2  A    between atoms: S12_4  and  C13_5 
REMARK    3  A    between atoms: C13_5  and  C14_6 
REMARK    4  A    between atoms: C14_6  and  O15_7 
REMARK    5  A    between atoms: C3_11  and  S8_12 
REMARK    6  A    between atoms: S8_12  and  N11_14 
REMARK    7  A    between atoms: N7_18  and  C19_19 
ROOT
ATOM      1  F18 V90 d   1     -30.631  12.846 -92.640  0.00  0.00    -0.202 F 
ATOM      2  C5  V90 d   1     -29.297  12.869 -92.701  0.00  0.00     0.164 A 
ATOM      3  C6  V90 d   1     -28.705  13.841 -93.632  0.00  0.00     0.083 A 
ATOM      4  C1  V90 d   1     -27.239  13.933 -93.734  0.00  0.00     0.176 A 
ATOM      5  F17 V90 d   1     -26.672  14.824 -94.573  0.00  0.00    -0.201 F 
ATOM      6  C4  V90 d   1     -28.446  11.936 -91.895  0.00  0.00     0.095 A 
ATOM      7  C3  V90 d   1     -26.959  12.056 -91.966  0.00  0.00     0.150 A 
ATOM      8  C2  V90 d   1     -26.389  13.040 -92.918  0.00  0.00     0.181 A 
ATOM      9  F16 V90 d   1     -25.063  13.142 -93.017  0.00  0.00    -0.201 F 
ATOM     10  N7  V90 d   1     -28.951  11.160 -90.922  0.00  0.00    -0.381 N 
ATOM     11  H8  V90 d   1     -28.636  10.184 -90.828  0.00  0.00     0.160 HD
ENDROOT
BRANCH  10  12
ATOM     12  C19 V90 d   1     -29.952  11.701 -89.991  0.00  0.00     0.010 C 
ATOM     13  C26 V90 d   1     -29.301  12.878 -89.228  0.00  0.00    -0.046 C 
ATOM     14  C25 V90 d   1     -30.164  14.109 -88.946  0.00  0.00    -0.063 C 
ATOM     15  H10 V90 d   1     -28.435  13.213 -89.818  0.00  0.00     0.035 H 
ATOM     16  H11 V90 d   1     -28.956  12.490 -88.258  0.00  0.00     0.035 H 
ATOM     17  C24 V90 d   1     -31.528  13.874 -88.333  0.00  0.00    -0.065 C 
ATOM     18  H12 V90 d   1     -30.317  14.632 -89.902  0.00  0.00     0.033 H 
ATOM     19  H13 V90 d   1     -29.600  14.758 -88.259  0.00  0.00     0.033 H 
ATOM     20  C23 V90 d   1     -31.442  13.207 -86.963  0.00  0.00    -0.065 C 
ATOM     21  H14 V90 d   1     -32.111  13.227 -89.005  0.00  0.00     0.033 H 
ATOM     22  H15 V90 d   1     -32.038  14.842 -88.223  0.00  0.00     0.033 H 
ATOM     23  C22 V90 d   1     -31.087  11.723 -86.882  0.00  0.00    -0.065 C 
ATOM     24  H16 V90 d   1     -32.424  13.330 -86.482  0.00  0.00     0.033 H 
ATOM     25  H17 V90 d   1     -30.680  13.752 -86.386  0.00  0.00     0.033 H 
ATOM     26  C21 V90 d   1     -31.507  10.856 -88.060  0.00  0.00    -0.063 C 
ATOM     27  H18 V90 d   1     -31.565  11.314 -85.980  0.00  0.00     0.033 H 
ATOM     28  H19 V90 d   1     -29.994  11.646 -86.784  0.00  0.00     0.033 H 
ATOM     29  C20 V90 d   1     -30.356  10.589 -89.033  0.00  0.00    -0.046 C 
ATOM     30  H20 V90 d   1     -32.316  11.367 -88.603  0.00  0.00     0.033 H 
ATOM     31  H21 V90 d   1     -31.874   9.893 -87.676  0.00  0.00     0.033 H 
ATOM     32  H22 V90 d   1     -29.470  10.340 -88.430  0.00  0.00     0.035 H 
ATOM     33  H23 V90 d   1     -30.640   9.719 -89.644  0.00  0.00     0.035 H 
ATOM     34  H9  V90 d   1     -30.835  12.057 -90.542  0.00  0.00     0.072 H 
ENDBRANCH  10  12
BRANCH   7  35
ATOM     35  S8  V90 d   1     -25.934  11.089 -91.139  0.00  0.00     0.262 S 
ATOM     36  O10 V90 d   1     -25.426  11.784 -89.974  0.00  0.00    -0.201 OA
ATOM     37  O9  V90 d   1     -26.595   9.838 -90.863  0.00  0.00    -0.201 OA
BRANCH  35  38
ATOM     38  N11 V90 d   1     -24.686  10.691 -92.064  0.00  0.00    -0.324 N 
ATOM     39  H6  V90 d   1     -23.965  10.100 -91.703  0.00  0.00     0.169 HD
ATOM     40  H7  V90 d   1     -24.629  11.034 -93.002  0.00  0.00     0.169 HD
ENDBRANCH  35  38
ENDBRANCH   7  35
BRANCH   3  41
ATOM     41  S12 V90 d   1     -29.736  14.815 -94.592  0.00  0.00    -0.121 SA
BRANCH  41  42
ATOM     42  C13 V90 d   1     -29.800  16.436 -93.928  0.00  0.00     0.001 C 
ATOM     43  H1  V90 d   1     -30.319  17.095 -94.640  0.00  0.00     0.052 H 
ATOM     44  H2  V90 d   1     -28.774  16.800 -93.772  0.00  0.00     0.052 H 
BRANCH  42  45
ATOM     45  C14 V90 d   1     -30.536  16.458 -92.610  0.00  0.00     0.025 C 
ATOM     46  H3  V90 d   1     -30.502  15.468 -92.132  0.00  0.00     0.075 H 
ATOM     47  H4  V90 d   1     -31.584  16.758 -92.758  0.00  0.00     0.075 H 
BRANCH  45  48
ATOM     48  O15 V90 d   1     -29.848  17.419 -91.818  0.00  0.00    -0.400 OA
ATOM     49  H5  V90 d   1     -28.943  17.149 -91.710  0.00  0.00     0.209 HD
ENDBRANCH  45  48
ENDBRANCH  42  45
ENDBRANCH  41  42
ENDBRANCH   3  41
TORSDOF 7
