REMARK  7 active torsions:
REMARK  status: ('A' for Active; 'I' for Inactive)
REMARK    1  A    between atoms: C4_3  and  S7_4 
REMARK    2  A    between atoms: S7_4  and  N10_6 
REMARK    3  A    between atoms: C1_13  and  S11_14 
REMARK    4  A    between atoms: S11_14  and  C15_17 
REMARK    5  A    between atoms: C15_17  and  C18_18 
REMARK    6  A    between atoms: C18_18  and  O21_19 
REMARK    7  A    between atoms: N19_20  and  C14_21 
ROOT
ATOM      1  F20 V14 d   1      11.710 -25.752 -55.683  0.00  0.00    -0.202 F 
ATOM      2  C5  V14 d   1      11.221 -26.282 -56.800  0.00  0.00     0.170 A 
ATOM      3  C4  V14 d   1       9.813 -26.728 -56.811  0.00  0.00     0.161 A 
ATOM      4  C3  V14 d   1       9.346 -27.340 -58.071  0.00  0.00     0.182 A 
ATOM      5  F12 V14 d   1       8.126 -27.776 -58.224  0.00  0.00    -0.201 F 
ATOM      6  C2  V14 d   1      10.172 -27.511 -59.254  0.00  0.00     0.180 A 
ATOM      7  F13 V14 d   1       9.645 -28.053 -60.367  0.00  0.00    -0.201 F 
ATOM      8  C6  V14 d   1      12.086 -26.440 -58.021  0.00  0.00     0.094 A 
ATOM      9  C1  V14 d   1      11.559 -27.089 -59.242  0.00  0.00     0.130 A 
ATOM     10  N19 V14 d   1      13.402 -26.189 -58.131  0.00  0.00    -0.382 N 
ATOM     11  H8  V14 d   1      13.697 -25.869 -59.065  0.00  0.00     0.160 HD
ENDROOT
BRANCH   9  12
ATOM     12  S11 V14 d   1      12.394 -27.264 -60.633  0.00  0.00     0.182 S 
ATOM     13  O16 V14 d   1      13.653 -26.584 -60.546  0.00  0.00    -0.222 OA
ATOM     14  O17 V14 d   1      11.598 -26.616 -61.630  0.00  0.00    -0.222 OA
BRANCH  12  15
ATOM     15  C15 V14 d   1      12.601 -28.878 -61.041  0.00  0.00     0.053 C 
ATOM     16  H3  V14 d   1      12.943 -28.938 -62.085  0.00  0.00     0.059 H 
ATOM     17  H4  V14 d   1      11.635 -29.395 -60.941  0.00  0.00     0.059 H 
BRANCH  15  18
ATOM     18  C18 V14 d   1      13.620 -29.570 -60.153  0.00  0.00     0.029 C 
ATOM     19  H5  V14 d   1      14.459 -28.891 -59.941  0.00  0.00     0.075 H 
ATOM     20  H6  V14 d   1      13.998 -30.477 -60.648  0.00  0.00     0.075 H 
BRANCH  18  21
ATOM     21  O21 V14 d   1      12.958 -29.914 -58.949  0.00  0.00    -0.400 OA
ATOM     22  H7  V14 d   1      12.232 -30.496 -59.143  0.00  0.00     0.209 HD
ENDBRANCH  18  21
ENDBRANCH  15  18
ENDBRANCH  12  15
ENDBRANCH   9  12
BRANCH  10  23
ATOM     23  C14 V14 d   1      14.468 -26.289 -57.173  0.00  0.00     0.010 C 
ATOM     24  C28 V14 d   1      14.262 -27.487 -56.234  0.00  0.00    -0.046 C 
ATOM     25  C27 V14 d   1      15.558 -28.143 -55.756  0.00  0.00    -0.063 C 
ATOM     26  H10 V14 d   1      13.669 -28.245 -56.767  0.00  0.00     0.035 H 
ATOM     27  H11 V14 d   1      13.705 -27.140 -55.351  0.00  0.00     0.035 H 
ATOM     28  C26 V14 d   1      16.300 -27.493 -54.585  0.00  0.00    -0.065 C 
ATOM     29  H12 V14 d   1      16.250 -28.164 -56.611  0.00  0.00     0.033 H 
ATOM     30  H13 V14 d   1      15.313 -29.173 -55.458  0.00  0.00     0.033 H 
ATOM     31  C25 V14 d   1      15.732 -26.193 -53.988  0.00  0.00    -0.065 C 
ATOM     32  H14 V14 d   1      17.321 -27.273 -54.929  0.00  0.00     0.033 H 
ATOM     33  H15 V14 d   1      16.338 -28.234 -53.773  0.00  0.00     0.033 H 
ATOM     34  C24 V14 d   1      16.279 -24.917 -54.618  0.00  0.00    -0.065 C 
ATOM     35  H16 V14 d   1      15.970 -26.175 -52.914  0.00  0.00     0.033 H 
ATOM     36  H17 V14 d   1      14.640 -26.202 -54.122  0.00  0.00     0.033 H 
ATOM     37  C23 V14 d   1      16.210 -24.860 -56.127  0.00  0.00    -0.063 C 
ATOM     38  H18 V14 d   1      17.334 -24.817 -54.322  0.00  0.00     0.033 H 
ATOM     39  H19 V14 d   1      15.704 -24.068 -54.219  0.00  0.00     0.033 H 
ATOM     40  C22 V14 d   1      14.749 -24.930 -56.565  0.00  0.00    -0.046 C 
ATOM     41  H20 V14 d   1      16.763 -25.710 -56.553  0.00  0.00     0.033 H 
ATOM     42  H21 V14 d   1      16.655 -23.918 -56.480  0.00  0.00     0.033 H 
ATOM     43  H22 V14 d   1      14.097 -24.777 -55.692  0.00  0.00     0.035 H 
ATOM     44  H23 V14 d   1      14.552 -24.147 -57.312  0.00  0.00     0.035 H 
ATOM     45  H9  V14 d   1      15.375 -26.536 -57.744  0.00  0.00     0.072 H 
ENDBRANCH  10  23
BRANCH   3  46
ATOM     46  S7  V14 d   1       8.778 -26.408 -55.587  0.00  0.00     0.263 S 
ATOM     47  O9  V14 d   1       8.967 -27.201 -54.402  0.00  0.00    -0.201 OA
ATOM     48  O8  V14 d   1       8.955 -24.993 -55.350  0.00  0.00    -0.201 OA
BRANCH  46  49
ATOM     49  N10 V14 d   1       7.280 -26.526 -56.182  0.00  0.00    -0.324 N 
ATOM     50  H1  V14 d   1       6.492 -26.365 -55.588  0.00  0.00     0.169 HD
ATOM     51  H2  V14 d   1       7.141 -26.760 -57.144  0.00  0.00     0.169 HD
ENDBRANCH  46  49
ENDBRANCH   3  46
TORSDOF 7
