REMARK  8 active torsions:
REMARK  status: ('A' for Active; 'I' for Inactive)
REMARK    1  A    between atoms: N02_19  and  C01_1 
REMARK    2  A    between atoms: N02_19  and  C03_2 
REMARK    3  A    between atoms: C05_4  and  C04_3 
REMARK    4  A    between atoms: C04_3  and  N02_19 
REMARK    5  A    between atoms: N06_20  and  C05_4 
REMARK    6  A    between atoms: N14_21  and  C13_9 
REMARK    7  A    between atoms: C17_11  and  C15_10 
REMARK       I    between atoms: C15_10  and  N14_21 
REMARK    8  A    between atoms: N19_22  and  C20_13 
ROOT
ATOM      1  C07 D9B d   1     -29.787  -8.032 -15.028  0.00  0.00     0.372 A 
ATOM      2  C10 D9B d   1     -27.701  -8.984 -15.110  0.00  0.00     0.108 A 
ATOM      3  C11 D9B d   1     -27.548  -7.621 -15.343  0.00  0.00     0.075 A 
ATOM      4  C12 D9B d   1     -26.268  -7.107 -15.574  0.00  0.00    -0.028 A 
ATOM      5  C13 D9B d   1     -25.198  -7.994 -15.595  0.00  0.00     0.037 A 
ATOM      6  C25 D9B d   1     -25.357  -9.356 -15.312  0.00  0.00    -0.054 A 
ATOM      7  C26 D9B d   1     -26.618  -9.868 -15.087  0.00  0.00    -0.046 A 
ATOM      8  N06 D9B d   1     -28.845  -7.001 -15.297  0.00  0.00    -0.289 N 
ATOM      9  O08 D9B d   1     -30.962  -7.907 -14.917  0.00  0.00    -0.237 OA
ATOM     10  O09 D9B d   1     -29.092  -9.250 -14.913  0.00  0.00    -0.259 OA
ATOM     11  H11 D9B d   1     -26.114  -6.046 -15.732  0.00  0.00     0.090 H 
ATOM     12  H20 D9B d   1     -24.491 -10.007 -15.270  0.00  0.00     0.087 H 
ATOM     13  H21 D9B d   1     -26.765 -10.925 -14.898  0.00  0.00     0.087 H 
ENDROOT
BRANCH   5  14
ATOM     14  N14 D9B d   1     -23.862  -7.530 -15.717  0.00  0.00    -0.326 N 
ATOM     15  C15 D9B d   1     -23.548  -6.189 -16.083  0.00  0.00     0.231 C 
ATOM     16  O16 D9B d   1     -24.340  -5.335 -16.305  0.00  0.00    -0.272 OA
ATOM     17  H23 D9B d   1     -23.113  -8.168 -15.539  0.00  0.00     0.169 HD
BRANCH  15  18
ATOM     18  C17 D9B d   1     -22.129  -5.801 -15.940  0.00  0.00     0.056 A 
ATOM     19  C18 D9B d   1     -21.239  -6.640 -15.062  0.00  0.00     0.012 A 
ATOM     20  N19 D9B d   1     -19.891  -6.188 -14.832  0.00  0.00    -0.352 N 
ATOM     21  H13 D9B d   1     -21.175  -7.638 -15.521  0.00  0.00     0.066 H 
ATOM     22  H14 D9B d   1     -21.729  -6.718 -14.080  0.00  0.00     0.066 H 
ATOM     23  C21 D9B d   1     -19.421  -4.924 -15.388  0.00  0.00     0.242 A 
ATOM     24  C23 D9B d   1     -20.335  -4.065 -16.233  0.00  0.00    -0.020 A 
ATOM     25  O22 D9B d   1     -18.332  -4.564 -15.121  0.00  0.00    -0.268 OA
ATOM     26  C24 D9B d   1     -21.706  -4.517 -16.490  0.00  0.00    -0.084 A 
ATOM     27  H18 D9B d   1     -19.979  -3.122 -16.646  0.00  0.00     0.091 H 
ATOM     28  H19 D9B d   1     -22.392  -3.909 -17.077  0.00  0.00     0.078 H 
ATOM     29  H12 D9B d   1     -21.824  -6.344 -16.847  0.00  0.00     0.063 H 
BRANCH  20  30
ATOM     30  C20 D9B d   1     -18.998  -6.944 -14.000  0.00  0.00    -0.016 C 
ATOM     31  H15 D9B d   1     -18.024  -6.436 -13.951  0.00  0.00     0.056 H 
ATOM     32  H16 D9B d   1     -18.865  -7.950 -14.424  0.00  0.00     0.056 H 
ATOM     33  H17 D9B d   1     -19.421  -7.025 -12.988  0.00  0.00     0.056 H 
ENDBRANCH  20  30
ENDBRANCH  15  18
ENDBRANCH   5  14
BRANCH   8  34
ATOM     34  C05 D9B d   1     -29.131  -5.593 -15.476  0.00  0.00     0.028 C 
ATOM     35  H9  D9B d   1     -28.464  -5.182 -16.248  0.00  0.00     0.067 H 
ATOM     36  H10 D9B d   1     -30.177  -5.472 -15.793  0.00  0.00     0.067 H 
BRANCH  34  37
ATOM     37  C04 D9B d   1     -28.910  -4.842 -14.165  0.00  0.00     0.098 C 
ATOM     38  H7  D9B d   1     -27.942  -5.148 -13.743  0.00  0.00     0.078 H 
ATOM     39  H8  D9B d   1     -29.716  -5.110 -13.466  0.00  0.00     0.078 H 
BRANCH  37  40
ATOM     40  N02 D9B d   1     -28.906  -3.392 -14.341  0.00  0.00    -0.077 N 
ATOM     41  H22 D9B d   1     -28.236  -3.151 -15.054  0.00  0.00     0.279 HD
BRANCH  40  42
ATOM     42  C01 D9B d   1     -30.225  -2.919 -14.741  0.00  0.00     0.066 C 
ATOM     43  H1  D9B d   1     -30.200  -1.827 -14.868  0.00  0.00     0.068 H 
ATOM     44  H2  D9B d   1     -30.959  -3.181 -13.965  0.00  0.00     0.068 H 
ATOM     45  H3  D9B d   1     -30.511  -3.392 -15.692  0.00  0.00     0.068 H 
ENDBRANCH  40  42
BRANCH  40  46
ATOM     46  C03 D9B d   1     -28.542  -2.734 -13.095  0.00  0.00     0.066 C 
ATOM     47  H4  D9B d   1     -27.547  -3.078 -12.775  0.00  0.00     0.068 H 
ATOM     48  H5  D9B d   1     -29.282  -2.982 -12.320  0.00  0.00     0.068 H 
ATOM     49  H6  D9B d   1     -28.521  -1.645 -13.248  0.00  0.00     0.068 H 
ENDBRANCH  40  46
ENDBRANCH  37  40
ENDBRANCH  34  37
ENDBRANCH   8  34
TORSDOF 8
