REMARK  7 active torsions:
REMARK  status: ('A' for Active; 'I' for Inactive)
REMARK    1  A    between atoms: NH2_10  and  P_1 
REMARK    2  A    between atoms: CA_3  and  N_2 
REMARK    3  A    between atoms: CB_4  and  CA_3 
REMARK    4  A    between atoms: CA_3  and  C_14 
REMARK    5  A    between atoms: CG_5  and  CB_4 
REMARK    6  A    between atoms: CD_6  and  CG_5 
REMARK    7  A    between atoms: NE_7  and  CD_6 
REMARK       I    between atoms: CZ_8  and  NE_7 
REMARK       I    between atoms: CZ_8  and  NH2_10 
ROOT
ATOM      1  CG  RPI d   1      93.592  18.418 410.579  0.00  0.00    -0.047 C 
ATOM      2  H7  RPI d   1      94.092  17.620 410.011  0.00  0.00     0.035 H 
ATOM      3  H8  RPI d   1      92.614  18.635 410.125  0.00  0.00     0.035 H 
ENDROOT
BRANCH   1   4
ATOM      4  CB  RPI d   1      94.448  19.668 410.545  0.00  0.00    -0.028 C 
ATOM      5  H5  RPI d   1      93.814  20.529 410.803  0.00  0.00     0.036 H 
ATOM      6  H6  RPI d   1      95.246  19.562 411.295  0.00  0.00     0.036 H 
BRANCH   4   7
ATOM      7  CA  RPI d   1      95.091  19.935 409.197  0.00  0.00     0.182 C 
ATOM      8  H4  RPI d   1      94.311  20.007 408.425  0.00  0.00     0.101 H 
BRANCH   7   9
ATOM      9  N   RPI d   1      96.010  18.904 408.827  0.00  0.00    -0.065 N 
ATOM     10  H1  RPI d   1      95.517  18.029 408.743  0.00  0.00     0.275 HD
ATOM     11  H2  RPI d   1      96.724  18.821 409.533  0.00  0.00     0.275 HD
ATOM     12  H3  RPI d   1      96.436  19.135 407.943  0.00  0.00     0.275 HD
ENDBRANCH   7   9
BRANCH   7  13
ATOM     13  C   RPI d   1      95.807  21.256 409.328  0.00  0.00     0.204 C 
ATOM     14  O   RPI d   1      96.975  21.419 408.869  0.00  0.00    -0.646 OA
ATOM     15  OXT RPI d   1      95.215  22.188 409.935  0.00  0.00    -0.646 OA
ENDBRANCH   7  13
ENDBRANCH   4   7
ENDBRANCH   1   4
BRANCH   1  16
ATOM     16  CD  RPI d   1      93.390  17.964 412.005  0.00  0.00     0.009 C 
ATOM     17  H9  RPI d   1      92.559  17.245 412.057  0.00  0.00     0.064 H 
ATOM     18  H10 RPI d   1      93.167  18.828 412.648  0.00  0.00     0.064 H 
BRANCH  16  19
ATOM     19  NE  RPI d   1      94.598  17.344 412.425  0.00  0.00    -0.226 N 
ATOM     20  CZ  RPI d   1      94.647  16.453 413.507  0.00  0.00     0.677 C 
ATOM     21  NH1 RPI d   1      93.569  16.128 414.200  0.00  0.00    -0.235 N 
ATOM     22  NH2 RPI d   1      95.936  15.963 413.795  0.00  0.00    -0.117 N 
ATOM     23  H12 RPI d   1      93.643  15.470 414.989  0.00  0.00     0.174 HD
ATOM     24  H13 RPI d   1      92.655  16.533 413.951  0.00  0.00     0.174 HD
ATOM     25  H14 RPI d   1      96.702  16.315 413.257  0.00  0.00     0.191 HD
ATOM     26  H11 RPI d   1      95.468  17.557 411.917  0.00  0.00     0.177 HD
BRANCH  22  27
ATOM     27  P   RPI d   1      96.259  14.855 414.954  0.00  0.00     0.390 P 
ATOM     28  O1P RPI d   1      95.216  14.884 416.064  0.00  0.00    -0.622 OA
ATOM     29  O2P RPI d   1      96.168  13.539 414.232  0.00  0.00    -0.622 OA
ATOM     30  O3P RPI d   1      97.607  15.127 415.557  0.00  0.00    -0.622 OA
ENDBRANCH  22  27
ENDBRANCH  16  19
ENDBRANCH   1  16
TORSDOF 7
