REMARK  8 active torsions:
REMARK  status: ('A' for Active; 'I' for Inactive)
REMARK    1  A    between atoms: O3A_8  and  PB_1 
REMARK    2  A    between atoms: PA_5  and  O3A_8 
REMARK    3  A    between atoms: PA_5  and  O5'_9 
REMARK    4  A    between atoms: O5'_9  and  C5'_10 
REMARK    5  A    between atoms: C5'_10  and  C4'_11 
REMARK    6  A    between atoms: C3'_13  and  O3'_14 
REMARK    7  A    between atoms: C2'_15  and  O2'_16 
REMARK    8  A    between atoms: C1'_17  and  N9_18 
ROOT
ATOM      1  C4' ADP d   1      22.370  -6.385  72.619  0.00  0.00     0.089 C 
ATOM      2  O4' ADP d   1      22.836  -5.030  72.666  0.00  0.00    -0.353 OA
ATOM      3  C3' ADP d   1      21.783  -6.714  73.975  0.00  0.00     0.091 C 
ATOM      4  C2' ADP d   1      21.803  -5.363  74.655  0.00  0.00     0.105 C 
ATOM      5  C1' ADP d   1      23.026  -4.709  74.035  0.00  0.00     0.139 C 
ATOM      6  H3  ADP d   1      23.185  -7.082  72.373  0.00  0.00     0.090 H 
ATOM      7  H4  ADP d   1      20.773  -7.147  73.923  0.00  0.00     0.091 H 
ATOM      8  H6  ADP d   1      20.889  -4.800  74.415  0.00  0.00     0.093 H 
ATOM      9  H8  ADP d   1      23.967  -5.101  74.448  0.00  0.00     0.122 H 
ENDROOT
BRANCH   5  10
ATOM     10  N9  ADP d   1      22.964  -3.245  74.152  0.00  0.00    -0.294 N 
ATOM     11  C8  ADP d   1      21.981  -2.448  73.689  0.00  0.00     0.071 A 
ATOM     12  N7  ADP d   1      22.272  -1.168  73.971  0.00  0.00    -0.236 NA
ATOM     13  H9  ADP d   1      21.088  -2.789  73.167  0.00  0.00     0.144 H 
ATOM     14  C5  ADP d   1      23.464  -1.160  74.617  0.00  0.00     0.149 A 
ATOM     15  C6  ADP d   1      24.336  -0.134  75.218  0.00  0.00     0.155 A 
ATOM     16  C4  ADP d   1      23.919  -2.526  74.725  0.00  0.00     0.167 A 
ATOM     17  N6  ADP d   1      24.001   1.178  75.181  0.00  0.00    -0.382 N 
ATOM     18  N1  ADP d   1      25.491  -0.567  75.765  0.00  0.00    -0.222 NA
ATOM     19  H10 ADP d   1      24.623   1.881  75.606  0.00  0.00     0.157 HD
ATOM     20  H11 ADP d   1      23.125   1.473  74.728  0.00  0.00     0.157 HD
ATOM     21  C2  ADP d   1      25.844  -1.868  75.827  0.00  0.00     0.091 A 
ATOM     22  N3  ADP d   1      25.092  -2.854  75.313  0.00  0.00    -0.222 NA
ATOM     23  H12 ADP d   1      26.777  -2.129  76.314  0.00  0.00     0.146 H 
ENDBRANCH   5  10
BRANCH   4  24
ATOM     24  O2' ADP d   1      21.938  -5.436  76.075  0.00  0.00    -0.388 OA
ATOM     25  H7  ADP d   1      21.208  -5.924  76.437  0.00  0.00     0.210 HD
ENDBRANCH   4  24
BRANCH   1  26
ATOM     26  C5' ADP d   1      21.306  -6.414  71.562  0.00  0.00     0.058 C 
ATOM     27  H1  ADP d   1      20.848  -7.413  71.515  0.00  0.00     0.079 H 
ATOM     28  H2  ADP d   1      20.532  -5.665  71.785  0.00  0.00     0.079 H 
BRANCH  26  29
ATOM     29  O5' ADP d   1      21.939  -6.108  70.325  0.00  0.00    -0.287 OA
BRANCH  29  30
ATOM     30  PA  ADP d   1      20.978  -5.829  69.089  0.00  0.00     0.418 P 
ATOM     31  O1A ADP d   1      21.916  -5.529  67.940  0.00  0.00    -0.624 OA
ATOM     32  O2A ADP d   1      19.928  -4.852  69.483  0.00  0.00    -0.624 OA
BRANCH  30  33
ATOM     33  O3A ADP d   1      20.194  -7.218  68.875  0.00  0.00    -0.173 OA
BRANCH  33  34
ATOM     34  PB  ADP d   1      20.583  -8.527  67.980  0.00  0.00     0.431 P 
ATOM     35  O1B ADP d   1      20.368  -8.097  66.525  0.00  0.00    -0.616 OA
ATOM     36  O2B ADP d   1      21.983  -8.816  68.357  0.00  0.00    -0.616 OA
ATOM     37  O3B ADP d   1      19.549  -9.459  68.525  0.00  0.00    -0.616 OA
ENDBRANCH  33  34
ENDBRANCH  30  33
ENDBRANCH  29  30
ENDBRANCH  26  29
ENDBRANCH   1  26
BRANCH   3  38
ATOM     38  O3' ADP d   1      22.707  -7.599  74.608  0.00  0.00    -0.390 OA
ATOM     39  H5  ADP d   1      22.379  -7.835  75.468  0.00  0.00     0.210 HD
ENDBRANCH   3  38
TORSDOF 8
