REMARK  2 active torsions:
REMARK  status: ('A' for Active; 'I' for Inactive)
REMARK    1  A    between atoms: C4_1  and  C5_2 
REMARK       I    between atoms: N2_4  and  C4_1 
REMARK    2  A    between atoms: C5_2  and  N3_6 
ROOT
ATOM      1  C4  DE5 d   1      19.576   2.654   7.864  0.00  0.00     0.249 C 
ATOM      2  N1  DE5 d   1      19.145   4.503   4.788  0.00  0.00    -0.236 NA
ATOM      3  N2  DE5 d   1      19.201   2.932   6.566  0.00  0.00    -0.304 N 
ATOM      4  C3  DE5 d   1      19.282   4.189   6.084  0.00  0.00     0.172 A 
ATOM      5  C2  DE5 d   1      19.254   5.832   4.505  0.00  0.00     0.011 A 
ATOM      6  C1  DE5 d   1      19.496   6.605   5.585  0.00  0.00    -0.025 A 
ATOM      7  S1  DE5 d   1      19.550   5.630   6.950  0.00  0.00    -0.062 SA
ATOM      8  O1  DE5 d   1      19.987   3.496   8.689  0.00  0.00    -0.271 OA
ATOM      9  H3  DE5 d   1      18.866   2.196   5.978  0.00  0.00     0.171 HD
ATOM     10  H7  DE5 d   1      19.155   6.234   3.498  0.00  0.00     0.115 H 
ATOM     11  H8  DE5 d   1      19.634   7.685   5.572  0.00  0.00     0.097 H 
ENDROOT
BRANCH   1  12
ATOM     12  C5  DE5 d   1      19.353   1.152   8.260  0.00  0.00     0.152 C 
ATOM     13  H1  DE5 d   1      20.131   0.544   7.776  0.00  0.00     0.090 H 
ATOM     14  H2  DE5 d   1      18.363   0.838   7.896  0.00  0.00     0.090 H 
BRANCH  12  15
ATOM     15  N3  DE5 d   1      19.414   0.913   9.741  0.00  0.00    -0.071 N 
ATOM     16  H4  DE5 d   1      19.264  -0.066   9.930  0.00  0.00     0.274 HD
ATOM     17  H5  DE5 d   1      18.699   1.457  10.199  0.00  0.00     0.274 HD
ATOM     18  H6  DE5 d   1      20.320   1.187  10.089  0.00  0.00     0.274 HD
ENDBRANCH  12  15
ENDBRANCH   1  12
TORSDOF 2
