REMARK  12 active torsions:
REMARK  status: ('A' for Active; 'I' for Inactive)
REMARK    1  A    between atoms: N_1  and  CA_2 
REMARK    2  A    between atoms: CA_2  and  C_3 
REMARK    3  A    between atoms: CA_2  and  CB_5 
REMARK       I    between atoms: C_3  and  N_6 
REMARK    4  A    between atoms: N_6  and  CA_7 
REMARK    5  A    between atoms: CA_7  and  C_8 
REMARK    6  A    between atoms: CA_7  and  CB_10 
REMARK       I    between atoms: C_8  and  N_12 
REMARK    7  A    between atoms: CB_10  and  CG_11 
REMARK    8  A    between atoms: N_12  and  CA_13 
REMARK    9  A    between atoms: CA_13  and  C_14 
REMARK   10  A    between atoms: CA_13  and  CB_16 
REMARK       I    between atoms: C_14  and  NXT_19 
REMARK   11  A    between atoms: CB_16  and  OG1_17 
REMARK   12  A    between atoms: CB_16  and  CG2_18 
ROOT
ATOM      1  CA  ARG d   1      19.809  35.986  13.647  0.00  0.00     0.089 C 
ATOM      2  H9  ARG d   1      20.106  36.766  12.930  0.00  0.00     0.087 H 
ENDROOT
BRANCH   1   3
ATOM      3  N   ARG d   1      20.138  36.449  15.002  0.00  0.00    -0.346 N 
ATOM      4  C   ALA d   1      20.238  37.735  15.330  0.00  0.00     0.248 C 
ATOM      5  O   ALA d   1      19.954  38.659  14.563  0.00  0.00    -0.271 OA
ATOM      6  H8  ARG d   1      20.295  35.764  15.713  0.00  0.00     0.163 HD
BRANCH   4   7
ATOM      7  CA  ALA d   1      20.716  38.018  16.756  0.00  0.00     0.172 C 
ATOM      8  H4  ALA d   1      21.430  37.230  17.038  0.00  0.00     0.098 H 
BRANCH   7   9
ATOM      9  N   ALA d   1      21.422  39.334  16.850  0.00  0.00    -0.067 N 
ATOM     10  H1  ALA d   1      21.722  39.487  17.800  0.00  0.00     0.275 HD
ATOM     11  H2  ALA d   1      20.794  40.072  16.573  0.00  0.00     0.275 HD
ATOM     12  H3  ALA d   1      22.225  39.329  16.241  0.00  0.00     0.275 HD
ENDBRANCH   7   9
BRANCH   7  13
ATOM     13  CB  ALA d   1      19.541  37.967  17.729  0.00  0.00    -0.042 C 
ATOM     14  H5  ALA d   1      19.037  36.993  17.644  0.00  0.00     0.030 H 
ATOM     15  H6  ALA d   1      18.830  38.771  17.487  0.00  0.00     0.030 H 
ATOM     16  H7  ALA d   1      19.910  38.100  18.757  0.00  0.00     0.030 H 
ENDBRANCH   7  13
ENDBRANCH   4   7
ENDBRANCH   1   3
BRANCH   1  17
ATOM     17  C   ARG d   1      18.292  35.743  13.494  0.00  0.00     0.241 C 
ATOM     18  O   ARG d   1      17.605  35.479  14.488  0.00  0.00    -0.271 OA
ATOM     19  N   9AT d   1      17.785  35.843  12.258  0.00  0.00    -0.344 N 
ATOM     20  H15 9AT d   1      18.411  36.026  11.500  0.00  0.00     0.163 HD
BRANCH  19  21
ATOM     21  CA  9AT d   1      16.346  35.696  11.963  0.00  0.00     0.113 C 
ATOM     22  H16 9AT d   1      15.889  35.268  12.868  0.00  0.00     0.091 H 
BRANCH  21  23
ATOM     23  C   9AT d   1      16.041  34.735  10.810  0.00  0.00     0.240 C 
ATOM     24  O   9AT d   1      16.866  34.556   9.916  0.00  0.00    -0.271 OA
ATOM     25  NXT 9AT d   1      14.860  34.133  10.831  0.00  0.00    -0.368 N 
ATOM     26  H22 9AT d   1      14.611  33.496  10.102  0.00  0.00     0.159 HD
ATOM     27  H23 9AT d   1      14.219  34.316  11.576  0.00  0.00     0.159 HD
ENDBRANCH  21  23
BRANCH  21  28
ATOM     28  CB  9AT d   1      15.646  37.037  11.692  0.00  0.00     0.060 C 
ATOM     29  H17 9AT d   1      14.706  36.828  11.160  0.00  0.00     0.086 H 
BRANCH  28  30
ATOM     30  OG1 9AT d   1      16.469  37.844  10.850  0.00  0.00    -0.393 OA
ATOM     31  H18 9AT d   1      16.617  37.392  10.027  0.00  0.00     0.210 HD
ENDBRANCH  28  30
BRANCH  28  32
ATOM     32  CG2 9AT d   1      15.302  37.775  12.967  0.00  0.00    -0.050 C 
ATOM     33  H19 9AT d   1      14.805  38.724  12.718  0.00  0.00     0.031 H 
ATOM     34  H20 9AT d   1      16.223  37.980  13.532  0.00  0.00     0.031 H 
ATOM     35  H21 9AT d   1      14.628  37.157  13.578  0.00  0.00     0.031 H 
ENDBRANCH  28  32
ENDBRANCH  21  28
ENDBRANCH  19  21
ENDBRANCH   1  17
BRANCH   1  36
ATOM     36  CB  ARG d   1      20.605  34.706  13.335  0.00  0.00    -0.041 C 
ATOM     37  H10 ARG d   1      20.465  34.464  12.271  0.00  0.00     0.036 H 
ATOM     38  H11 ARG d   1      20.201  33.890  13.953  0.00  0.00     0.036 H 
BRANCH  36  39
ATOM     39  CG  ARG d   1      22.099  34.813  13.606  0.00  0.00    -0.074 C 
ATOM     40  H12 ARG d   1      22.586  33.859  13.357  0.00  0.00     0.027 H 
ATOM     41  H13 ARG d   1      22.263  35.042  14.669  0.00  0.00     0.027 H 
ATOM     42  H14 ARG d   1      22.527  35.616  12.988  0.00  0.00     0.027 H 
ENDBRANCH  36  39
ENDBRANCH   1  36
TORSDOF 12
