REMARK  10 active torsions:
REMARK  status: ('A' for Active; 'I' for Inactive)
REMARK    1  A    between atoms: CAA_1  and  CAT_2 
REMARK       I    between atoms: CAT_2  and  NAR_4 
REMARK    2  A    between atoms: NAR_4  and  CBB_5 
REMARK    3  A    between atoms: CBB_5  and  CAC_6 
REMARK    4  A    between atoms: CBB_5  and  CAV_7 
REMARK    5  A    between atoms: CG_11  and  OD1_12 
REMARK    6  A    between atoms: CA_14  and  C_15 
REMARK       I    between atoms: C_15  and  NAQ_17 
REMARK    7  A    between atoms: NAQ_17  and  CAM_18 
REMARK    8  A    between atoms: CAM_18  and  CAX_19 
REMARK    9  A    between atoms: CAY_24  and  CAZ_25 
REMARK   10  A    between atoms: CAW_29  and  CAB_30 
ROOT
ATOM      1  CAV DV5 d   1      12.276  53.558  91.734  0.00  0.00     0.099 C 
ATOM      2  SAG DV5 d   1      10.690  53.131  91.571  0.00  0.00    -0.063 SA
ATOM      3  N   DV5 d   1      12.988  54.072  90.706  0.00  0.00    -0.358 N 
ATOM      4  CD2 DV5 d   1      14.413  54.502  90.779  0.00  0.00     0.020 C 
ATOM      5  CG  DV5 d   1      14.626  55.432  89.607  0.00  0.00     0.053 C 
ATOM      6  CB  DV5 d   1      13.697  54.895  88.550  0.00  0.00    -0.012 C 
ATOM      7  CA  DV5 d   1      12.487  54.355  89.303  0.00  0.00     0.092 C 
ATOM      8  H9  DV5 d   1      15.080  53.631  90.702  0.00  0.00     0.068 H 
ATOM      9  H10 DV5 d   1      14.606  55.029  91.725  0.00  0.00     0.068 H 
ATOM     10  H11 DV5 d   1      15.673  55.426  89.271  0.00  0.00     0.085 H 
ATOM     11  H13 DV5 d   1      14.186  54.090  87.982  0.00  0.00     0.040 H 
ATOM     12  H14 DV5 d   1      13.394  55.698  87.862  0.00  0.00     0.040 H 
ATOM     13  H15 DV5 d   1      11.665  55.085  89.328  0.00  0.00     0.087 H 
ENDROOT
BRANCH   7  14
ATOM     14  C   DV5 d   1      12.079  53.189  88.634  0.00  0.00     0.240 C 
ATOM     15  O   DV5 d   1      12.568  52.105  88.948  0.00  0.00    -0.271 OA
ATOM     16  NAQ DV5 d   1      11.175  53.320  87.639  0.00  0.00    -0.355 N 
ATOM     17  H16 DV5 d   1      10.806  54.225  87.425  0.00  0.00     0.162 HD
BRANCH  16  18
ATOM     18  CAM DV5 d   1      10.725  52.155  86.866  0.00  0.00     0.019 C 
ATOM     19  H17 DV5 d   1       9.680  52.306  86.558  0.00  0.00     0.071 H 
ATOM     20  H18 DV5 d   1      10.796  51.254  87.494  0.00  0.00     0.071 H 
BRANCH  18  21
ATOM     21  CAX DV5 d   1      11.528  51.986  85.719  0.00  0.00    -0.040 A 
ATOM     22  CAI DV5 d   1      11.508  50.747  85.075  0.00  0.00    -0.074 A 
ATOM     23  CAK DV5 d   1      12.279  50.499  83.939  0.00  0.00    -0.071 A 
ATOM     24  H19 DV5 d   1      10.877  49.958  85.468  0.00  0.00     0.084 H 
ATOM     25  CAY DV5 d   1      13.092  51.495  83.389  0.00  0.00    -0.017 A 
ATOM     26  H20 DV5 d   1      12.247  49.520  83.476  0.00  0.00     0.084 H 
ATOM     27  CAJ DV5 d   1      13.117  52.732  84.033  0.00  0.00    -0.071 A 
ATOM     28  CAH DV5 d   1      12.346  52.980  85.171  0.00  0.00    -0.074 A 
ATOM     29  H22 DV5 d   1      13.750  53.520  83.641  0.00  0.00     0.084 H 
ATOM     30  H21 DV5 d   1      12.382  53.958  85.637  0.00  0.00     0.084 H 
BRANCH  25  31
ATOM     31  CAZ DV5 d   1      13.839  51.292  82.293  0.00  0.00     0.040 A 
ATOM     32  SAS DV5 d   1      15.420  51.823  82.111  0.00  0.00    -0.080 SA
ATOM     33  CAL DV5 d   1      15.616  51.224  80.562  0.00  0.00     0.041 A 
ATOM     34  NAP DV5 d   1      14.468  50.639  80.215  0.00  0.00    -0.258 NA
ATOM     35  H23 DV5 d   1      16.514  51.298  79.950  0.00  0.00     0.126 H 
ATOM     36  CAW DV5 d   1      13.504  50.678  81.144  0.00  0.00     0.049 A 
BRANCH  36  37
ATOM     37  CAB DV5 d   1      12.155  50.028  80.818  0.00  0.00    -0.034 C 
ATOM     38  H24 DV5 d   1      12.186  49.609  79.801  0.00  0.00     0.035 H 
ATOM     39  H25 DV5 d   1      11.359  50.785  80.878  0.00  0.00     0.035 H 
ATOM     40  H26 DV5 d   1      11.952  49.224  81.540  0.00  0.00     0.035 H 
ENDBRANCH  36  37
ENDBRANCH  25  31
ENDBRANCH  18  21
ENDBRANCH  16  18
ENDBRANCH   7  14
BRANCH   1  41
ATOM     41  CBB DV5 d   1      12.957  53.256  93.090  0.00  0.00     0.059 C 
ATOM     42  H5  DV5 d   1      13.787  53.962  93.241  0.00  0.00     0.083 H 
BRANCH  41  43
ATOM     43  NAR DV5 d   1      12.027  53.363  94.226  0.00  0.00    -0.351 N 
ATOM     44  CAT DV5 d   1      11.632  54.553  94.700  0.00  0.00     0.214 C 
ATOM     45  OAD DV5 d   1      11.978  55.639  94.237  0.00  0.00    -0.274 OA
ATOM     46  H4  DV5 d   1      11.682  52.528  94.654  0.00  0.00     0.163 HD
BRANCH  44  47
ATOM     47  CAA DV5 d   1      10.663  54.482  95.883  0.00  0.00    -0.003 C 
ATOM     48  H1  DV5 d   1      10.481  53.429  96.145  0.00  0.00     0.040 H 
ATOM     49  H2  DV5 d   1       9.712  54.961  95.607  0.00  0.00     0.040 H 
ATOM     50  H3  DV5 d   1      11.100  55.005  96.747  0.00  0.00     0.040 H 
ENDBRANCH  44  47
ENDBRANCH  41  43
BRANCH  41  51
ATOM     51  CAC DV5 d   1      13.495  51.822  93.031  0.00  0.00    -0.051 C 
ATOM     52  H6  DV5 d   1      14.192  51.727  92.186  0.00  0.00     0.030 H 
ATOM     53  H7  DV5 d   1      12.658  51.121  92.896  0.00  0.00     0.030 H 
ATOM     54  H8  DV5 d   1      14.021  51.589  93.969  0.00  0.00     0.030 H 
ENDBRANCH  41  51
ENDBRANCH   1  41
BRANCH   5  55
ATOM     55  OD1 DV5 d   1      14.220  56.755  89.953  0.00  0.00    -0.394 OA
ATOM     56  H12 DV5 d   1      14.358  57.332  89.211  0.00  0.00     0.210 HD
ENDBRANCH   5  55
TORSDOF 10
