REMARK  8 active torsions:
REMARK  status: ('A' for Active; 'I' for Inactive)
REMARK    1  A    between atoms: C01_1  and  C02_2 
REMARK    2  A    between atoms: C03_3  and  N21_21 
REMARK    3  A    between atoms: C05_5  and  C08_8 
REMARK       I    between atoms: C08_8  and  N10_10 
REMARK    4  A    between atoms: N10_10  and  C11_11 
REMARK    5  A    between atoms: C15_15  and  C17_17 
REMARK    6  A    between atoms: N21_21  and  C22_22 
REMARK    7  A    between atoms: C24_24  and  C32_32 
REMARK    8  A    between atoms: N30_30  and  C31_31 
ROOT
ATOM      1  C02 DXH d   1     -82.721 -21.306  85.278  0.00  0.00    -0.035 A 
ATOM      2  C03 DXH d   1     -82.568 -19.949  84.974  0.00  0.00     0.040 A 
ATOM      3  C04 DXH d   1     -83.106 -19.008  85.781  0.00  0.00    -0.041 A 
ATOM      4  C05 DXH d   1     -83.798 -19.381  86.878  0.00  0.00     0.034 A 
ATOM      5  C06 DXH d   1     -83.977 -20.702  87.181  0.00  0.00    -0.067 A 
ATOM      6  C07 DXH d   1     -83.430 -21.684  86.362  0.00  0.00    -0.074 A 
ATOM      7  H4  DXH d   1     -82.982 -17.957  85.548  0.00  0.00     0.088 H 
ATOM      8  H5  DXH d   1     -84.545 -20.984  88.060  0.00  0.00     0.085 H 
ATOM      9  H6  DXH d   1     -83.571 -22.734  86.590  0.00  0.00     0.084 H 
ENDROOT
BRANCH   2  10
ATOM     10  N21 DXH d   1     -81.866 -19.437  83.805  0.00  0.00    -0.340 N 
ATOM     11  H12 DXH d   1     -82.412 -19.212  82.961  0.00  0.00     0.167 HD
BRANCH  10  12
ATOM     12  C22 DXH d   1     -80.412 -19.227  83.778  0.00  0.00     0.146 A 
ATOM     13  N23 DXH d   1     -79.723 -19.501  84.820  0.00  0.00    -0.210 NA
ATOM     14  C24 DXH d   1     -78.439 -19.323  84.840  0.00  0.00     0.165 A 
ATOM     15  N25 DXH d   1     -77.753 -18.873  83.832  0.00  0.00    -0.208 NA
ATOM     16  C26 DXH d   1     -78.368 -18.551  82.709  0.00  0.00     0.163 A 
ATOM     17  C27 DXH d   1     -79.714 -18.710  82.635  0.00  0.00     0.077 A 
ATOM     18  N30 DXH d   1     -77.958 -18.054  81.555  0.00  0.00    -0.256 N 
ATOM     19  C28 DXH d   1     -80.060 -18.280  81.366  0.00  0.00     0.039 A 
ATOM     20  N29 DXH d   1     -78.959 -17.904  80.757  0.00  0.00    -0.182 NA
ATOM     21  H13 DXH d   1     -81.065 -18.258  80.947  0.00  0.00     0.119 H 
BRANCH  14  22
ATOM     22  C32 DXH d   1     -77.700 -19.699  86.100  0.00  0.00     0.029 A 
ATOM     23  C33 DXH d   1     -78.408 -20.214  87.153  0.00  0.00     0.015 A 
ATOM     24  N34 DXH d   1     -77.796 -20.547  88.220  0.00  0.00    -0.272 NA
ATOM     25  H17 DXH d   1     -79.482 -20.338  87.079  0.00  0.00     0.116 H 
ATOM     26  C35 DXH d   1     -76.516 -20.407  88.339  0.00  0.00     0.002 A 
ATOM     27  C36 DXH d   1     -75.740 -19.889  87.323  0.00  0.00    -0.065 A 
ATOM     28  H18 DXH d   1     -76.038 -20.706  89.265  0.00  0.00     0.114 H 
ATOM     29  C37 DXH d   1     -76.349 -19.520  86.173  0.00  0.00    -0.067 A 
ATOM     30  H19 DXH d   1     -74.668 -19.780  87.443  0.00  0.00     0.085 H 
ATOM     31  H20 DXH d   1     -75.788 -19.100  85.346  0.00  0.00     0.085 H 
ENDBRANCH  14  22
BRANCH  18  32
ATOM     32  C31 DXH d   1     -76.621 -17.747  81.214  0.00  0.00     0.004 C 
ATOM     33  H14 DXH d   1     -76.586 -17.349  80.189  0.00  0.00     0.059 H 
ATOM     34  H15 DXH d   1     -76.009 -18.659  81.274  0.00  0.00     0.059 H 
ATOM     35  H16 DXH d   1     -76.228 -16.994  81.913  0.00  0.00     0.059 H 
ENDBRANCH  18  32
ENDBRANCH  10  12
ENDBRANCH   2  10
BRANCH   1  36
ATOM     36  C01 DXH d   1     -82.142 -22.359  84.367  0.00  0.00    -0.049 C 
ATOM     37  H1  DXH d   1     -82.365 -23.357  84.772  0.00  0.00     0.033 H 
ATOM     38  H2  DXH d   1     -81.052 -22.226  84.299  0.00  0.00     0.033 H 
ATOM     39  H3  DXH d   1     -82.587 -22.262  83.365  0.00  0.00     0.033 H 
ENDBRANCH   1  36
BRANCH   4  40
ATOM     40  C08 DXH d   1     -84.385 -18.242  87.714  0.00  0.00     0.256 C 
ATOM     41  O09 DXH d   1     -84.020 -17.179  87.601  0.00  0.00    -0.267 OA
ATOM     42  N10 DXH d   1     -85.479 -18.605  88.620  0.00  0.00    -0.323 N 
ATOM     43  H7  DXH d   1     -85.770 -19.559  88.689  0.00  0.00     0.169 HD
BRANCH  42  44
ATOM     44  C11 DXH d   1     -86.121 -17.624  89.392  0.00  0.00     0.035 A 
ATOM     45  C12 DXH d   1     -86.443 -17.930  90.684  0.00  0.00    -0.057 A 
ATOM     46  C13 DXH d   1     -87.115 -17.009  91.449  0.00  0.00    -0.080 A 
ATOM     47  H8  DXH d   1     -86.170 -18.892  91.102  0.00  0.00     0.086 H 
ATOM     48  C14 DXH d   1     -87.436 -15.800  90.941  0.00  0.00    -0.068 A 
ATOM     49  H9  DXH d   1     -87.390 -17.254  92.469  0.00  0.00     0.083 H 
ATOM     50  C15 DXH d   1     -87.125 -15.499  89.654  0.00  0.00     0.050 A 
ATOM     51  H10 DXH d   1     -87.942 -15.069  91.561  0.00  0.00     0.084 H 
ATOM     52  C16 DXH d   1     -86.439 -16.450  88.856  0.00  0.00    -0.043 A 
ATOM     53  H11 DXH d   1     -86.179 -16.224  87.828  0.00  0.00     0.088 H 
BRANCH  50  54
ATOM     54  C17 DXH d   1     -87.501 -14.134  89.126  0.00  0.00     0.417 C 
ATOM     55  F18 DXH d   1     -86.536 -13.353  89.536  0.00  0.00    -0.166 F 
ATOM     56  F19 DXH d   1     -88.623 -13.635  89.630  0.00  0.00    -0.166 F 
ATOM     57  F20 DXH d   1     -87.638 -14.112  87.830  0.00  0.00    -0.166 F 
ENDBRANCH  50  54
ENDBRANCH  42  44
ENDBRANCH   4  40
TORSDOF 8
