REMARK  8 active torsions:
REMARK  status: ('A' for Active; 'I' for Inactive)
REMARK    1  A    between atoms: CBH_2  and  CBF_5 
REMARK    2  A    between atoms: CBB_10  and  NAZ_11 
REMARK       I    between atoms: NAZ_11  and  CAY_12 
REMARK    3  A    between atoms: CAY_12  and  CAV_14 
REMARK    4  A    between atoms: CAS_18  and  CAX_19 
REMARK    5  A    between atoms: CAR_20  and  NAC_21 
REMARK    6  A    between atoms: NAC_21  and  C6_22 
REMARK    7  A    between atoms: NAI_26  and  CAK_27 
REMARK    8  A    between atoms: C2_31  and  CAL_32 
ROOT
ATOM      1  CAV DWT d   1    -105.505 -17.287  50.067  0.00  0.00     0.034 A 
ATOM      2  CAT DWT d   1    -104.555 -17.118  49.056  0.00  0.00    -0.041 A 
ATOM      3  CAW DWT d   1    -105.978 -18.592  50.285  0.00  0.00    -0.067 A 
ATOM      4  CAU DWT d   1    -105.477 -19.668  49.537  0.00  0.00    -0.074 A 
ATOM      5  CAS DWT d   1    -104.517 -19.487  48.540  0.00  0.00    -0.035 A 
ATOM      6  CAR DWT d   1    -104.043 -18.188  48.321  0.00  0.00     0.040 A 
ATOM      7  H6  DWT d   1    -104.202 -16.117  48.834  0.00  0.00     0.088 H 
ATOM      8  H7  DWT d   1    -106.737 -18.769  51.038  0.00  0.00     0.085 H 
ATOM      9  H8  DWT d   1    -105.846 -20.667  49.739  0.00  0.00     0.084 H 
ENDROOT
BRANCH   6  10
ATOM     10  NAC DWT d   1    -103.134 -17.989  47.340  0.00  0.00    -0.340 N 
ATOM     11  H12 DWT d   1    -103.489 -17.985  46.373  0.00  0.00     0.167 HD
BRANCH  10  12
ATOM     12  C6  DWT d   1    -101.800 -17.794  47.503  0.00  0.00     0.146 A 
ATOM     13  N1  DWT d   1    -101.139 -17.281  46.450  0.00  0.00    -0.210 NA
ATOM     14  C2  DWT d   1     -99.808 -17.094  46.493  0.00  0.00     0.165 A 
ATOM     15  N3  DWT d   1     -99.129 -17.396  47.604  0.00  0.00    -0.206 NA
ATOM     16  C4  DWT d   1     -99.780 -17.904  48.660  0.00  0.00     0.186 A 
ATOM     17  C5  DWT d   1    -101.113 -18.116  48.632  0.00  0.00     0.077 A 
ATOM     18  NAJ DWT d   1     -99.303 -18.269  49.848  0.00  0.00    -0.152 NA
ATOM     19  CAH DWT d   1    -101.390 -18.619  49.848  0.00  0.00     0.015 A 
ATOM     20  NAI DWT d   1    -100.246 -18.695  50.543  0.00  0.00    -0.282 N 
ATOM     21  H13 DWT d   1    -102.375 -18.914  50.207  0.00  0.00     0.115 H 
BRANCH  14  22
ATOM     22  CAL DWT d   1     -99.157 -16.519  45.397  0.00  0.00     0.029 A 
ATOM     23  CAN DWT d   1     -97.778 -16.342  45.373  0.00  0.00    -0.067 A 
ATOM     24  CAP DWT d   1     -97.178 -15.732  44.274  0.00  0.00    -0.065 A 
ATOM     25  H17 DWT d   1     -97.172 -16.678  46.207  0.00  0.00     0.085 H 
ATOM     26  CAQ DWT d   1     -97.944 -15.278  43.209  0.00  0.00     0.002 A 
ATOM     27  H18 DWT d   1     -96.101 -15.610  44.250  0.00  0.00     0.085 H 
ATOM     28  NAO DWT d   1     -99.323 -15.433  43.229  0.00  0.00    -0.272 NA
ATOM     29  H19 DWT d   1     -97.465 -14.802  42.361  0.00  0.00     0.114 H 
ATOM     30  CAM DWT d   1     -99.912 -16.046  44.337  0.00  0.00     0.015 A 
ATOM     31  H20 DWT d   1    -100.990 -16.154  44.368  0.00  0.00     0.116 H 
ENDBRANCH  14  22
BRANCH  20  32
ATOM     32  CAK DWT d   1    -100.045 -19.176  51.937  0.00  0.00     0.002 C 
ATOM     33  H14 DWT d   1     -98.979 -19.105  52.199  0.00  0.00     0.059 H 
ATOM     34  H15 DWT d   1    -100.373 -20.223  52.014  0.00  0.00     0.059 H 
ATOM     35  H16 DWT d   1    -100.635 -18.555  52.628  0.00  0.00     0.059 H 
ENDBRANCH  20  32
ENDBRANCH  10  12
ENDBRANCH   6  10
BRANCH   5  36
ATOM     36  CAX DWT d   1    -104.030 -20.590  47.807  0.00  0.00    -0.049 C 
ATOM     37  H9  DWT d   1    -104.539 -21.506  48.142  0.00  0.00     0.033 H 
ATOM     38  H10 DWT d   1    -102.947 -20.691  47.972  0.00  0.00     0.033 H 
ATOM     39  H11 DWT d   1    -104.225 -20.433  46.736  0.00  0.00     0.033 H 
ENDBRANCH   5  36
BRANCH   1  40
ATOM     40  CAY DWT d   1    -106.011 -16.130  50.722  0.00  0.00     0.256 C 
ATOM     41  NAZ DWT d   1    -107.027 -16.317  51.615  0.00  0.00    -0.323 N 
ATOM     42  H5  DWT d   1    -107.262 -17.257  51.863  0.00  0.00     0.169 HD
ATOM     43  OBA DWT d   1    -105.652 -15.007  50.334  0.00  0.00    -0.267 OA
BRANCH  41  44
ATOM     44  CBB DWT d   1    -107.747 -15.305  52.195  0.00  0.00     0.035 A 
ATOM     45  CBD DWT d   1    -107.971 -14.037  51.617  0.00  0.00    -0.043 A 
ATOM     46  CBF DWT d   1    -108.764 -13.060  52.246  0.00  0.00     0.050 A 
ATOM     47  H1  DWT d   1    -107.518 -13.809  50.659  0.00  0.00     0.088 H 
ATOM     48  CBG DWT d   1    -109.340 -13.363  53.481  0.00  0.00    -0.068 A 
ATOM     49  CBE DWT d   1    -109.137 -14.616  54.063  0.00  0.00    -0.080 A 
ATOM     50  H2  DWT d   1    -109.947 -12.623  53.990  0.00  0.00     0.084 H 
ATOM     51  CBC DWT d   1    -108.362 -15.578  53.418  0.00  0.00    -0.057 A 
ATOM     52  H3  DWT d   1    -109.586 -14.842  55.024  0.00  0.00     0.083 H 
ATOM     53  H4  DWT d   1    -108.235 -16.554  53.873  0.00  0.00     0.086 H 
BRANCH  46  54
ATOM     54  CBH DWT d   1    -108.940 -11.782  51.655  0.00  0.00     0.417 C 
ATOM     55  FBI DWT d   1    -109.082 -11.878  50.375  0.00  0.00    -0.166 F 
ATOM     56  FBJ DWT d   1    -107.894 -11.024  51.870  0.00  0.00    -0.166 F 
ATOM     57  FBK DWT d   1    -110.017 -11.153  52.166  0.00  0.00    -0.166 F 
ENDBRANCH  46  54
ENDBRANCH  41  44
ENDBRANCH   1  40
TORSDOF 8
