REMARK  8 active torsions:
REMARK  status: ('A' for Active; 'I' for Inactive)
REMARK    1  A    between atoms: C01_1  and  C02_2 
REMARK    2  A    between atoms: C03_3  and  N21_21 
REMARK    3  A    between atoms: C05_5  and  C08_8 
REMARK       I    between atoms: C08_8  and  N10_10 
REMARK    4  A    between atoms: N10_10  and  C11_11 
REMARK    5  A    between atoms: C15_15  and  C17_17 
REMARK    6  A    between atoms: N21_21  and  C22_22 
REMARK    7  A    between atoms: C24_24  and  C32_32 
REMARK    8  A    between atoms: N30_30  and  C31_31 
ROOT
ATOM      1  C02 DXH d   1      20.050  95.188   2.256  0.00  0.00    -0.035 A 
ATOM      2  C03 DXH d   1      18.652  95.269   2.292  0.00  0.00     0.040 A 
ATOM      3  C04 DXH d   1      17.891  94.497   1.442  0.00  0.00    -0.041 A 
ATOM      4  C05 DXH d   1      18.510  93.625   0.570  0.00  0.00     0.034 A 
ATOM      5  C06 DXH d   1      19.899  93.548   0.511  0.00  0.00    -0.067 A 
ATOM      6  C07 DXH d   1      20.666  94.336   1.373  0.00  0.00    -0.074 A 
ATOM      7  H4  DXH d   1      16.810  94.574   1.458  0.00  0.00     0.088 H 
ATOM      8  H5  DXH d   1      20.381  92.883  -0.197  0.00  0.00     0.085 H 
ATOM      9  H6  DXH d   1      21.748  94.275   1.345  0.00  0.00     0.084 H 
ENDROOT
BRANCH   2  10
ATOM     10  N21 DXH d   1      17.962  96.189   3.223  0.00  0.00    -0.340 N 
ATOM     11  H12 DXH d   1      17.669  97.118   2.889  0.00  0.00     0.167 HD
BRANCH  10  12
ATOM     12  C22 DXH d   1      17.684  95.801   4.625  0.00  0.00     0.146 A 
ATOM     13  N23 DXH d   1      18.165  94.683   5.121  0.00  0.00    -0.210 NA
ATOM     14  C24 DXH d   1      17.928  94.312   6.376  0.00  0.00     0.165 A 
ATOM     15  N25 DXH d   1      17.199  95.061   7.206  0.00  0.00    -0.208 NA
ATOM     16  C26 DXH d   1      16.660  96.240   6.784  0.00  0.00     0.163 A 
ATOM     17  C27 DXH d   1      16.885  96.635   5.493  0.00  0.00     0.077 A 
ATOM     18  N30 DXH d   1      15.890  97.200   7.364  0.00  0.00    -0.256 N 
ATOM     19  C28 DXH d   1      16.214  97.874   5.342  0.00  0.00     0.039 A 
ATOM     20  N29 DXH d   1      15.629  98.171   6.500  0.00  0.00    -0.182 NA
ATOM     21  H13 DXH d   1      16.183  98.478   4.436  0.00  0.00     0.119 H 
BRANCH  14  22
ATOM     22  C32 DXH d   1      18.554  92.972   6.852  0.00  0.00     0.029 A 
ATOM     23  C33 DXH d   1      19.101  92.089   5.899  0.00  0.00     0.015 A 
ATOM     24  N34 DXH d   1      19.647  90.952   6.264  0.00  0.00    -0.272 NA
ATOM     25  H17 DXH d   1      19.070  92.353   4.848  0.00  0.00     0.116 H 
ATOM     26  C35 DXH d   1      19.699  90.606   7.537  0.00  0.00     0.002 A 
ATOM     27  C36 DXH d   1      19.174  91.439   8.555  0.00  0.00    -0.065 A 
ATOM     28  H18 DXH d   1      20.155  89.661   7.810  0.00  0.00     0.114 H 
ATOM     29  C37 DXH d   1      18.594  92.645   8.205  0.00  0.00    -0.067 A 
ATOM     30  H19 DXH d   1      19.226  91.136   9.594  0.00  0.00     0.085 H 
ATOM     31  H20 DXH d   1      18.186  93.311   8.956  0.00  0.00     0.085 H 
ENDBRANCH  14  22
BRANCH  18  32
ATOM     32  C31 DXH d   1      15.408  97.190   8.726  0.00  0.00     0.004 C 
ATOM     33  H14 DXH d   1      14.812  98.096   8.911  0.00  0.00     0.059 H 
ATOM     34  H15 DXH d   1      16.263  97.167   9.418  0.00  0.00     0.059 H 
ATOM     35  H16 DXH d   1      14.782  96.300   8.887  0.00  0.00     0.059 H 
ENDBRANCH  18  32
ENDBRANCH  10  12
ENDBRANCH   2  10
BRANCH   1  36
ATOM     36  C01 DXH d   1      20.877  96.052   3.201  0.00  0.00    -0.049 C 
ATOM     37  H1  DXH d   1      21.947  95.858   3.034  0.00  0.00     0.033 H 
ATOM     38  H2  DXH d   1      20.619  95.808   4.242  0.00  0.00     0.033 H 
ATOM     39  H3  DXH d   1      20.663  97.114   3.009  0.00  0.00     0.033 H 
ENDBRANCH   1  36
BRANCH   4  40
ATOM     40  C08 DXH d   1      17.612  92.797  -0.387  0.00  0.00     0.256 C 
ATOM     41  O09 DXH d   1      16.461  92.691  -0.169  0.00  0.00    -0.267 OA
ATOM     42  N10 DXH d   1      18.270  92.225  -1.590  0.00  0.00    -0.323 N 
ATOM     43  H7  DXH d   1      19.256  92.358  -1.692  0.00  0.00     0.169 HD
BRANCH  42  44
ATOM     44  C11 DXH d   1      17.574  91.487  -2.625  0.00  0.00     0.035 A 
ATOM     45  C12 DXH d   1      18.243  90.512  -3.352  0.00  0.00    -0.057 A 
ATOM     46  C13 DXH d   1      17.572  89.842  -4.367  0.00  0.00    -0.080 A 
ATOM     47  H8  DXH d   1      19.277  90.276  -3.130  0.00  0.00     0.086 H 
ATOM     48  C14 DXH d   1      16.263  90.153  -4.659  0.00  0.00    -0.068 A 
ATOM     49  H9  DXH d   1      18.082  89.070  -4.932  0.00  0.00     0.083 H 
ATOM     50  C15 DXH d   1      15.621  91.132  -3.956  0.00  0.00     0.050 A 
ATOM     51  H10 DXH d   1      15.742  89.621  -5.447  0.00  0.00     0.084 H 
ATOM     52  C16 DXH d   1      16.303  91.819  -2.923  0.00  0.00    -0.043 A 
ATOM     53  H11 DXH d   1      15.804  92.609  -2.374  0.00  0.00     0.088 H 
BRANCH  50  54
ATOM     54  C17 DXH d   1      14.174  91.487  -4.258  0.00  0.00     0.417 C 
ATOM     55  F18 DXH d   1      13.834  90.936  -5.449  0.00  0.00    -0.166 F 
ATOM     56  F19 DXH d   1      14.040  92.846  -4.319  0.00  0.00    -0.166 F 
ATOM     57  F20 DXH d   1      13.403  91.018  -3.260  0.00  0.00    -0.166 F 
ENDBRANCH  50  54
ENDBRANCH  42  44
ENDBRANCH   4  40
TORSDOF 8
