REMARK  8 active torsions:
REMARK  status: ('A' for Active; 'I' for Inactive)
REMARK    1  A    between atoms: CBH_2  and  CBF_5 
REMARK    2  A    between atoms: CBB_10  and  NAZ_11 
REMARK       I    between atoms: NAZ_11  and  CAY_12 
REMARK    3  A    between atoms: CAY_12  and  CAV_14 
REMARK    4  A    between atoms: CAS_18  and  CAX_19 
REMARK    5  A    between atoms: CAR_20  and  NAC_21 
REMARK    6  A    between atoms: NAC_21  and  C6_22 
REMARK    7  A    between atoms: NAI_26  and  CAK_27 
REMARK    8  A    between atoms: C2_31  and  CAL_32 
ROOT
ATOM      1  CAV DWT d   1       2.150  11.633 106.253  0.00  0.00     0.034 A 
ATOM      2  CAT DWT d   1       1.052  11.853 107.085  0.00  0.00    -0.041 A 
ATOM      3  CAW DWT d   1       3.428  11.730 106.819  0.00  0.00    -0.067 A 
ATOM      4  CAU DWT d   1       3.587  12.026 108.189  0.00  0.00    -0.074 A 
ATOM      5  CAS DWT d   1       2.475  12.241 109.016  0.00  0.00    -0.035 A 
ATOM      6  CAR DWT d   1       1.203  12.145 108.438  0.00  0.00     0.040 A 
ATOM      7  H6  DWT d   1       0.054  11.795 106.667  0.00  0.00     0.088 H 
ATOM      8  H7  DWT d   1       4.303  11.576 106.198  0.00  0.00     0.085 H 
ATOM      9  H8  DWT d   1       4.584  12.088 108.609  0.00  0.00     0.084 H 
ENDROOT
BRANCH   6  10
ATOM     10  NAC DWT d   1       0.146  12.366 109.243  0.00  0.00    -0.340 N 
ATOM     11  H12 DWT d   1      -0.080  13.344 109.473  0.00  0.00     0.167 HD
BRANCH  10  12
ATOM     12  C6  DWT d   1      -0.643  11.402 109.774  0.00  0.00     0.146 A 
ATOM     13  N1  DWT d   1      -1.800  11.798 110.300  0.00  0.00    -0.210 NA
ATOM     14  C2  DWT d   1      -2.641  10.924 110.857  0.00  0.00     0.165 A 
ATOM     15  N3  DWT d   1      -2.325   9.629 110.877  0.00  0.00    -0.206 NA
ATOM     16  C4  DWT d   1      -1.165   9.225 110.340  0.00  0.00     0.186 A 
ATOM     17  C5  DWT d   1      -0.321  10.096 109.776  0.00  0.00     0.077 A 
ATOM     18  NAJ DWT d   1      -0.642   8.006 110.239  0.00  0.00    -0.152 NA
ATOM     19  CAH DWT d   1       0.700   9.360 109.343  0.00  0.00     0.015 A 
ATOM     20  NAI DWT d   1       0.447   8.091 109.650  0.00  0.00    -0.282 N 
ATOM     21  H13 DWT d   1       1.585   9.731 108.829  0.00  0.00     0.115 H 
BRANCH  14  22
ATOM     22  CAL DWT d   1      -3.840  11.372 111.397  0.00  0.00     0.029 A 
ATOM     23  CAN DWT d   1      -4.704  10.478 112.028  0.00  0.00    -0.067 A 
ATOM     24  CAP DWT d   1      -5.910  10.959 112.542  0.00  0.00    -0.065 A 
ATOM     25  H17 DWT d   1      -4.444   9.429 112.118  0.00  0.00     0.085 H 
ATOM     26  CAQ DWT d   1      -6.253  12.305 112.404  0.00  0.00     0.002 A 
ATOM     27  H18 DWT d   1      -6.585  10.282 113.052  0.00  0.00     0.085 H 
ATOM     28  NAO DWT d   1      -5.389  13.202 111.768  0.00  0.00    -0.272 NA
ATOM     29  H19 DWT d   1      -7.200  12.659 112.794  0.00  0.00     0.114 H 
ATOM     30  CAM DWT d   1      -4.189  12.711 111.253  0.00  0.00     0.015 A 
ATOM     31  H20 DWT d   1      -3.518  13.384 110.732  0.00  0.00     0.116 H 
ENDBRANCH  14  22
BRANCH  20  32
ATOM     32  CAK DWT d   1       1.317   6.930 109.359  0.00  0.00     0.002 C 
ATOM     33  H14 DWT d   1       0.841   6.012 109.733  0.00  0.00     0.059 H 
ATOM     34  H15 DWT d   1       2.289   7.067 109.855  0.00  0.00     0.059 H 
ATOM     35  H16 DWT d   1       1.468   6.848 108.272  0.00  0.00     0.059 H 
ENDBRANCH  20  32
ENDBRANCH  10  12
ENDBRANCH   6  10
BRANCH   5  36
ATOM     36  CAX DWT d   1       2.628  12.539 110.412  0.00  0.00    -0.049 C 
ATOM     37  H9  DWT d   1       3.698  12.569 110.665  0.00  0.00     0.033 H 
ATOM     38  H10 DWT d   1       2.132  11.760 111.010  0.00  0.00     0.033 H 
ATOM     39  H11 DWT d   1       2.172  13.516 110.631  0.00  0.00     0.033 H 
ENDBRANCH   5  36
BRANCH   1  40
ATOM     40  CAY DWT d   1       1.909  11.379 104.882  0.00  0.00     0.256 C 
ATOM     41  NAZ DWT d   1       2.989  11.355 104.051  0.00  0.00    -0.323 N 
ATOM     42  H5  DWT d   1       3.898  11.426 104.461  0.00  0.00     0.169 HD
ATOM     43  OBA DWT d   1       0.742  11.298 104.502  0.00  0.00    -0.267 OA
BRANCH  41  44
ATOM     44  CBB DWT d   1       2.904  11.239 102.685  0.00  0.00     0.035 A 
ATOM     45  CBD DWT d   1       1.866  11.779 101.894  0.00  0.00    -0.043 A 
ATOM     46  CBF DWT d   1       1.850  11.666 100.485  0.00  0.00     0.050 A 
ATOM     47  H1  DWT d   1       1.052  12.299 102.385  0.00  0.00     0.088 H 
ATOM     48  CBG DWT d   1       2.920  10.993  99.897  0.00  0.00    -0.068 A 
ATOM     49  CBE DWT d   1       3.969  10.466 100.659  0.00  0.00    -0.080 A 
ATOM     50  H2  DWT d   1       2.940  10.875  98.820  0.00  0.00     0.084 H 
ATOM     51  CBC DWT d   1       3.965  10.600 102.054  0.00  0.00    -0.057 A 
ATOM     52  H3  DWT d   1       4.788   9.952 100.168  0.00  0.00     0.083 H 
ATOM     53  H4  DWT d   1       4.788  10.206 102.640  0.00  0.00     0.086 H 
BRANCH  46  54
ATOM     54  CBH DWT d   1       0.758  12.201  99.702  0.00  0.00     0.417 C 
ATOM     55  FBI DWT d   1       1.118  12.235  98.474  0.00  0.00    -0.166 F 
ATOM     56  FBJ DWT d   1      -0.093  11.489  99.872  0.00  0.00    -0.166 F 
ATOM     57  FBK DWT d   1       0.536  13.240 100.114  0.00  0.00    -0.166 F 
ENDBRANCH  46  54
ENDBRANCH  41  44
ENDBRANCH   1  40
TORSDOF 8
