REMARK  7 active torsions:
REMARK  status: ('A' for Active; 'I' for Inactive)
REMARK    1  A    between atoms: NBE_14  and  CAA_1 
REMARK    2  A    between atoms: NBE_14  and  CAB_2 
REMARK    3  A    between atoms: NBE_14  and  CAC_3 
REMARK    4  A    between atoms: CAP_7  and  CAY_11 
REMARK    5  A    between atoms: CBC_13  and  CAP_7 
REMARK    6  A    between atoms: CBC_13  and  CAX_10 
REMARK    7  A    between atoms: CBC_13  and  NBE_14 
ROOT
ATOM      1  CBC AVJ d   1       8.631  16.190  15.551  0.00  0.00     0.192 C 
ATOM      2  H15 AVJ d   1       9.537  16.018  14.952  0.00  0.00     0.102 H 
ENDROOT
BRANCH   1   3
ATOM      3  CAP AVJ d   1       8.500  15.024  16.536  0.00  0.00     0.011 C 
ATOM      4  H11 AVJ d   1       9.405  14.996  17.160  0.00  0.00     0.046 H 
ATOM      5  H12 AVJ d   1       7.622  15.207  17.172  0.00  0.00     0.046 H 
BRANCH   3   6
ATOM      6  CAY AVJ d   1       8.332  13.641  15.863  0.00  0.00     0.030 A 
ATOM      7  CAM AVJ d   1       9.063  13.113  14.812  0.00  0.00     0.025 A 
ATOM      8  NAT AVJ d   1       8.589  11.829  14.546  0.00  0.00    -0.254 NA
ATOM      9  H10 AVJ d   1       9.871  13.616  14.283  0.00  0.00     0.117 H 
ATOM     10  CAZ AVJ d   1       7.568  11.588  15.425  0.00  0.00     0.063 A 
ATOM     11  NAR AVJ d   1       7.402  12.695  16.248  0.00  0.00    -0.353 N 
ATOM     12  H14 AVJ d   1       6.979  10.673  15.472  0.00  0.00     0.143 H 
ATOM     13  H13 AVJ d   1       6.712  12.792  17.006  0.00  0.00     0.166 HD
ENDBRANCH   3   6
ENDBRANCH   1   3
BRANCH   1  14
ATOM     14  CAX AVJ d   1       7.452  16.153  14.604  0.00  0.00     0.205 C 
ATOM     15  OAH AVJ d   1       7.675  15.952  13.389  0.00  0.00    -0.646 OA
ATOM     16  OAL AVJ d   1       6.258  16.396  14.991  0.00  0.00    -0.646 OA
ENDBRANCH   1  14
BRANCH   1  17
ATOM     17  NBE AVJ d   1       8.815  17.488  16.227  0.00  0.00    -0.064 N 
BRANCH  17  18
ATOM     18  CAA AVJ d   1       7.884  17.683  17.323  0.00  0.00     0.068 C 
ATOM     19  H1  AVJ d   1       8.066  18.663  17.789  0.00  0.00     0.068 H 
ATOM     20  H2  AVJ d   1       8.027  16.889  18.071  0.00  0.00     0.068 H 
ATOM     21  H3  AVJ d   1       6.854  17.645  16.940  0.00  0.00     0.068 H 
ENDBRANCH  17  18
BRANCH  17  22
ATOM     22  CAB AVJ d   1      10.171  17.571  16.807  0.00  0.00     0.068 C 
ATOM     23  H4  AVJ d   1      10.919  17.429  16.013  0.00  0.00     0.068 H 
ATOM     24  H5  AVJ d   1      10.292  16.787  17.569  0.00  0.00     0.068 H 
ATOM     25  H6  AVJ d   1      10.312  18.558  17.271  0.00  0.00     0.068 H 
ENDBRANCH  17  22
BRANCH  17  26
ATOM     26  CAC AVJ d   1       8.689  18.579  15.298  0.00  0.00     0.068 C 
ATOM     27  H7  AVJ d   1       7.689  18.557  14.839  0.00  0.00     0.068 H 
ATOM     28  H8  AVJ d   1       9.454  18.483  14.514  0.00  0.00     0.068 H 
ATOM     29  H9  AVJ d   1       8.827  19.532  15.830  0.00  0.00     0.068 H 
ENDBRANCH  17  26
ENDBRANCH   1  17
TORSDOF 7
