REMARK  3 active torsions:
REMARK  status: ('A' for Active; 'I' for Inactive)
REMARK    1  A    between atoms: CAI_2  and  CAK_4 
REMARK    2  A    between atoms: CAK_4  and  CAF_6 
REMARK    3  A    between atoms: CAF_6  and  CAJ_7 
ROOT
ATOM      1  CAF DYT d   1       8.370  14.922  16.534  0.00  0.00    -0.001 C 
ATOM      2  H2  DYT d   1       7.492  15.098  17.173  0.00  0.00     0.045 H 
ATOM      3  H3  DYT d   1       9.280  14.931  17.151  0.00  0.00     0.045 H 
ENDROOT
BRANCH   1   4
ATOM      4  CAK DYT d   1       8.462  16.040  15.519  0.00  0.00     0.107 C 
ATOM      5 CL1  DYT d   1       8.380  17.556  16.382  0.00  0.00    -0.113 Cl
ATOM      6  H1  DYT d   1       9.414  15.964  14.974  0.00  0.00     0.082 H 
BRANCH   4   7
ATOM      7  CAI DYT d   1       7.313  15.996  14.535  0.00  0.00     0.192 C 
ATOM      8  OAA DYT d   1       7.530  15.747  13.326  0.00  0.00    -0.647 OA
ATOM      9  OAB DYT d   1       6.147  16.242  14.933  0.00  0.00    -0.647 OA
ENDBRANCH   4   7
ENDBRANCH   1   4
BRANCH   1  10
ATOM     10  CAJ DYT d   1       8.235  13.563  15.890  0.00  0.00     0.029 A 
ATOM     11  CAE DYT d   1       9.016  13.047  14.870  0.00  0.00     0.025 A 
ATOM     12  NAG DYT d   1       8.562  11.772  14.602  0.00  0.00    -0.254 NA
ATOM     13  H4  DYT d   1       9.839  13.555  14.370  0.00  0.00     0.117 H 
ATOM     14  CAD DYT d   1       7.517  11.500  15.447  0.00  0.00     0.063 A 
ATOM     15  NAH DYT d   1       7.319  12.609  16.248  0.00  0.00    -0.353 N 
ATOM     16  H5  DYT d   1       6.944  10.574  15.481  0.00  0.00     0.143 H 
ATOM     17  H6  DYT d   1       6.606  12.702  16.986  0.00  0.00     0.166 HD
ENDBRANCH   1  10
TORSDOF 3
