REMARK  8 active torsions:
REMARK  status: ('A' for Active; 'I' for Inactive)
REMARK    1  A    between atoms: C12_10  and  C11_5 
REMARK    2  A    between atoms: C11_5  and  N2_13 
REMARK    3  A    between atoms: S1_19  and  C9_8 
REMARK    4  A    between atoms: N2_13  and  S1_19 
REMARK    5  A    between atoms: C18_25  and  N3_15 
REMARK    6  A    between atoms: C15_22  and  C18_25 
REMARK    7  A    between atoms: N6_33  and  C24_36 
REMARK    8  A    between atoms: C24_36  and  C25_37 
ROOT
ATOM      1  C14 DZH d   1      57.868   1.896   4.826  0.00  0.00    -0.075 A 
ATOM      2  C12 DZH d   1      56.375   0.004   4.493  0.00  0.00    -0.040 A 
ATOM      3  C13 DZH d   1      57.023   1.136   4.027  0.00  0.00    -0.075 A 
ATOM      4  C15 DZH d   1      58.142   1.478   6.127  0.00  0.00    -0.040 A 
ATOM      5  C16 DZH d   1      57.494   0.336   6.587  0.00  0.00    -0.075 A 
ATOM      6  C17 DZH d   1      56.646  -0.432   5.783  0.00  0.00    -0.075 A 
ATOM      7  H1  DZH d   1      58.311   2.807   4.441  0.00  0.00     0.084 H 
ATOM      8  H7  DZH d   1      56.865   1.441   2.999  0.00  0.00     0.084 H 
ATOM      9  H16 DZH d   1      57.654   0.028   7.614  0.00  0.00     0.084 H 
ATOM     10  H17 DZH d   1      56.209  -1.350   6.160  0.00  0.00     0.084 H 
ENDROOT
BRANCH   2  11
ATOM     11  C11 DZH d   1      55.394  -0.715   3.626  0.00  0.00     0.026 C 
ATOM     12  H2  DZH d   1      55.269  -0.149   2.691  0.00  0.00     0.072 H 
ATOM     13  H3  DZH d   1      54.430  -0.769   4.154  0.00  0.00     0.072 H 
BRANCH  11  14
ATOM     14  N2  DZH d   1      55.829  -2.086   3.295  0.00  0.00    -0.311 N 
ATOM     15  H9  DZH d   1      56.796  -2.340   3.289  0.00  0.00     0.172 HD
BRANCH  14  16
ATOM     16  S1  DZH d   1      54.671  -3.161   2.942  0.00  0.00     0.259 S 
ATOM     17  O2  DZH d   1      53.808  -3.242   4.060  0.00  0.00    -0.201 OA
ATOM     18  O3  DZH d   1      55.381  -4.344   2.489  0.00  0.00    -0.201 OA
BRANCH  16  19
ATOM     19  C9  DZH d   1      53.725  -2.542   1.578  0.00  0.00     0.080 A 
ATOM     20  C8  DZH d   1      54.164  -2.772   0.286  0.00  0.00    -0.058 A 
ATOM     21  C7  DZH d   1      53.453  -2.330  -0.746  0.00  0.00    -0.055 A 
ATOM     22  H5  DZH d   1      55.088  -3.313   0.116  0.00  0.00     0.086 H 
ATOM     23  C5  DZH d   1      52.308  -1.586  -0.542  0.00  0.00     0.041 A 
ATOM     24  H4  DZH d   1      53.775  -2.555  -1.756  0.00  0.00     0.087 H 
ATOM     25  C6  DZH d   1      51.889  -1.289   0.760  0.00  0.00    -0.030 A 
ATOM     26  N1  DZH d   1      51.613  -1.049  -1.648  0.00  0.00    -0.327 N 
ATOM     27  C10 DZH d   1      52.622  -1.819   1.815  0.00  0.00    -0.052 A 
ATOM     28  C1  DZH d   1      50.771  -0.318   0.949  0.00  0.00    -0.038 C 
ATOM     29  H6  DZH d   1      52.300  -1.647   2.836  0.00  0.00     0.086 H 
ATOM     30  C2  DZH d   1      49.412  -0.853   0.577  0.00  0.00    -0.053 C 
ATOM     31  H12 DZH d   1      50.974   0.566   0.327  0.00  0.00     0.040 H 
ATOM     32  H13 DZH d   1      50.746  -0.024   2.009  0.00  0.00     0.040 H 
ATOM     33  C3  DZH d   1      49.475  -1.632  -0.769  0.00  0.00     0.010 C 
ATOM     34  H14 DZH d   1      49.062  -1.530   1.370  0.00  0.00     0.034 H 
ATOM     35  H15 DZH d   1      48.709  -0.013   0.475  0.00  0.00     0.034 H 
ATOM     36  C4  DZH d   1      50.303  -0.964  -1.797  0.00  0.00     0.222 C 
ATOM     37  H10 DZH d   1      49.897  -2.629  -0.575  0.00  0.00     0.047 H 
ATOM     38  H11 DZH d   1      48.452  -1.737  -1.159  0.00  0.00     0.047 H 
ATOM     39  O1  DZH d   1      49.782  -0.450  -2.784  0.00  0.00    -0.273 OA
ATOM     40  H8  DZH d   1      52.172  -0.696  -2.398  0.00  0.00     0.169 HD
ENDBRANCH  16  19
ENDBRANCH  14  16
ENDBRANCH  11  14
ENDBRANCH   2  11
BRANCH   4  41
ATOM     41  C18 DZH d   1      59.081   2.270   7.005  0.00  0.00     0.030 C 
ATOM     42  H18 DZH d   1      59.527   1.591   7.747  0.00  0.00     0.072 H 
ATOM     43  H19 DZH d   1      59.875   2.698   6.376  0.00  0.00     0.072 H 
BRANCH  41  44
ATOM     44  N3  DZH d   1      58.394   3.377   7.724  0.00  0.00    -0.277 N 
ATOM     45  C19 DZH d   1      58.345   4.594   7.091  0.00  0.00     0.331 A 
ATOM     46  N4  DZH d   1      57.685   5.605   7.760  0.00  0.00    -0.273 N 
ATOM     47  O5  DZH d   1      58.801   4.805   5.984  0.00  0.00    -0.246 OA
ATOM     48  C22 DZH d   1      57.058   5.544   9.009  0.00  0.00     0.280 A 
ATOM     49  H20 DZH d   1      57.651   6.489   7.295  0.00  0.00     0.173 HD
ATOM     50  C21 DZH d   1      57.183   4.259   9.592  0.00  0.00     0.151 A 
ATOM     51  O4  DZH d   1      56.475   6.532   9.470  0.00  0.00    -0.265 OA
ATOM     52  C20 DZH d   1      57.838   3.237   8.980  0.00  0.00     0.168 A 
ATOM     53  N6  DZH d   1      56.754   3.730  10.793  0.00  0.00    -0.334 N 
ATOM     54  N5  DZH d   1      57.843   2.110   9.714  0.00  0.00    -0.223 NA
ATOM     55  C23 DZH d   1      57.175   2.469  10.818  0.00  0.00     0.069 A 
ATOM     56  H21 DZH d   1      56.995   1.795  11.654  0.00  0.00     0.143 H 
BRANCH  53  57
ATOM     57  C24 DZH d   1      55.855   4.391  11.771  0.00  0.00    -0.002 C 
ATOM     58  H22 DZH d   1      56.127   5.453  11.860  0.00  0.00     0.064 H 
ATOM     59  H23 DZH d   1      55.956   3.903  12.752  0.00  0.00     0.064 H 
BRANCH  57  60
ATOM     60  C25 DZH d   1      54.423   4.274  11.294  0.00  0.00    -0.061 C 
ATOM     61  H24 DZH d   1      53.754   4.763  12.018  0.00  0.00     0.029 H 
ATOM     62  H25 DZH d   1      54.152   3.212  11.205  0.00  0.00     0.029 H 
ATOM     63  H26 DZH d   1      54.322   4.762  10.313  0.00  0.00     0.029 H 
ENDBRANCH  57  60
ENDBRANCH  53  57
ENDBRANCH  41  44
ENDBRANCH   4  41
TORSDOF 8
