REMARK  15 active torsions:
REMARK  status: ('A' for Active; 'I' for Inactive)
REMARK    1  A    between atoms: C1_1  and  C_43 
REMARK    2  A    between atoms: C5_39  and  C3_3 
REMARK    3  A    between atoms: C6_37  and  C7_4 
REMARK    4  A    between atoms: C8_5  and  C12_9 
REMARK    5  A    between atoms: C9_6  and  C11_8 
REMARK    6  A    between atoms: N2_35  and  C10_7 
REMARK    7  A    between atoms: C19_14  and  C20_15 
REMARK    8  A    between atoms: C20_15  and  C21_16 
REMARK    9  A    between atoms: C21_16  and  C22_17 
REMARK   10  A    between atoms: C22_17  and  O_27 
REMARK   11  A    between atoms: C18_26  and  C33_23 
REMARK   12  A    between atoms: O_27  and  C23_28 
REMARK   13  A    between atoms: S_38  and  C6_37 
REMARK   14  A    between atoms: S_38  and  C5_39 
REMARK   15  A    between atoms: N1_41  and  C4_42 
ROOT
ATOM      1  C12 E4Q d   1      12.067  -0.912  29.111  0.00  0.00     0.006 A 
ATOM      2  C13 E4Q d   1      10.716  -1.259  29.106  0.00  0.00    -0.070 A 
ATOM      3  C14 E4Q d   1       9.999  -1.291  27.917  0.00  0.00    -0.081 A 
ATOM      4  C15 E4Q d   1      10.609  -0.966  26.713  0.00  0.00    -0.070 A 
ATOM      5  C16 E4Q d   1      11.948  -0.580  26.691  0.00  0.00     0.000 A 
ATOM      6  C19 E4Q d   1      12.848  -0.145  25.651  0.00  0.00    -0.012 A 
ATOM      7  C18 E4Q d   1      14.063   0.108  26.255  0.00  0.00     0.117 A 
ATOM      8  N4  E4Q d   1      13.977  -0.145  27.609  0.00  0.00    -0.349 N 
ATOM      9  C17 E4Q d   1      12.686  -0.559  27.893  0.00  0.00     0.055 A 
ATOM     10  H8  E4Q d   1      10.221  -1.506  30.038  0.00  0.00     0.084 H 
ATOM     11  H9  E4Q d   1       8.952  -1.573  27.929  0.00  0.00     0.083 H 
ATOM     12  H10 E4Q d   1      10.043  -1.012  25.789  0.00  0.00     0.084 H 
ATOM     13  H24 E4Q d   1      14.742  -0.043  28.291  0.00  0.00     0.166 HD
ENDROOT
BRANCH   1  14
ATOM     14  C8  E4Q d   1      12.828  -0.948  30.385  0.00  0.00     0.027 A 
ATOM     15  C7  E4Q d   1      12.638  -0.117  31.530  0.00  0.00     0.077 A 
ATOM     16  N3  E4Q d   1      13.511  -0.397  32.469  0.00  0.00    -0.176 NA
ATOM     17  N2  E4Q d   1      14.294  -1.397  31.988  0.00  0.00    -0.278 N 
ATOM     18  C9  E4Q d   1      13.898  -1.770  30.690  0.00  0.00     0.039 A 
BRANCH  15  19
ATOM     19  C6  E4Q d   1      11.667   0.999  31.703  0.00  0.00     0.020 C 
ATOM     20  H25 E4Q d   1      11.149   0.883  32.666  0.00  0.00     0.058 H 
ATOM     21  H26 E4Q d   1      10.932   0.971  30.885  0.00  0.00     0.058 H 
BRANCH  19  22
ATOM     22  S   E4Q d   1      12.533   2.596  31.676  0.00  0.00    -0.157 SA
BRANCH  22  23
ATOM     23  C5  E4Q d   1      12.554   2.897  29.888  0.00  0.00     0.019 C 
ATOM     24  H27 E4Q d   1      13.303   3.674  29.673  0.00  0.00     0.058 H 
ATOM     25  H28 E4Q d   1      12.838   1.964  29.380  0.00  0.00     0.058 H 
BRANCH  23  26
ATOM     26  C3  E4Q d   1      11.237   3.347  29.351  0.00  0.00     0.066 A 
ATOM     27  C2  E4Q d   1      10.383   2.591  28.534  0.00  0.00    -0.034 A 
ATOM     28  C1  E4Q d   1       9.242   3.324  28.393  0.00  0.00     0.028 A 
ATOM     29  H1  E4Q d   1      10.590   1.614  28.099  0.00  0.00     0.089 H 
ATOM     30  N1  E4Q d   1       9.445   4.468  29.095  0.00  0.00    -0.278 N 
ATOM     31  N   E4Q d   1      10.681   4.497  29.688  0.00  0.00    -0.177 NA
BRANCH  28  32
ATOM     32  C   E4Q d   1       7.965   3.018  27.685  0.00  0.00    -0.036 C 
ATOM     33  H32 E4Q d   1       8.045   2.038  27.192  0.00  0.00     0.035 H 
ATOM     34  H33 E4Q d   1       7.769   3.794  26.930  0.00  0.00     0.035 H 
ATOM     35  H34 E4Q d   1       7.139   2.997  28.411  0.00  0.00     0.035 H 
ENDBRANCH  28  32
BRANCH  30  36
ATOM     36  C4  E4Q d   1       8.543   5.593  29.305  0.00  0.00     0.002 C 
ATOM     37  H29 E4Q d   1       9.041   6.351  29.928  0.00  0.00     0.059 H 
ATOM     38  H30 E4Q d   1       7.632   5.243  29.811  0.00  0.00     0.059 H 
ATOM     39  H31 E4Q d   1       8.276   6.035  28.334  0.00  0.00     0.059 H 
ENDBRANCH  30  36
ENDBRANCH  23  26
ENDBRANCH  22  23
ENDBRANCH  19  22
ENDBRANCH  15  19
BRANCH  17  40
ATOM     40  C10 E4Q d   1      15.390  -1.887  32.817  0.00  0.00     0.003 C 
ATOM     41  H2  E4Q d   1      15.388  -1.355  33.780  0.00  0.00     0.059 H 
ATOM     42  H3  E4Q d   1      16.346  -1.710  32.303  0.00  0.00     0.059 H 
ATOM     43  H4  E4Q d   1      15.262  -2.965  32.994  0.00  0.00     0.059 H 
ENDBRANCH  17  40
BRANCH  18  44
ATOM     44  C11 E4Q d   1      14.548  -2.834  29.867  0.00  0.00    -0.035 C 
ATOM     45  H5  E4Q d   1      14.034  -2.913  28.897  0.00  0.00     0.035 H 
ATOM     46  H6  E4Q d   1      14.484  -3.797  30.395  0.00  0.00     0.035 H 
ATOM     47  H7  E4Q d   1      15.605  -2.576  29.702  0.00  0.00     0.035 H 
ENDBRANCH  18  44
ENDBRANCH   1  14
BRANCH   6  48
ATOM     48  C20 E4Q d   1      12.518  -0.084  24.178  0.00  0.00    -0.036 C 
ATOM     49  H11 E4Q d   1      11.713  -0.806  23.979  0.00  0.00     0.040 H 
ATOM     50  H12 E4Q d   1      13.418  -0.374  23.615  0.00  0.00     0.040 H 
BRANCH  48  51
ATOM     51  C21 E4Q d   1      12.061   1.288  23.668  0.00  0.00    -0.041 C 
ATOM     52  H13 E4Q d   1      12.113   1.287  22.569  0.00  0.00     0.036 H 
ATOM     53  H14 E4Q d   1      12.743   2.053  24.067  0.00  0.00     0.036 H 
BRANCH  51  54
ATOM     54  C22 E4Q d   1      10.658   1.641  24.078  0.00  0.00     0.026 C 
ATOM     55  H15 E4Q d   1      10.407   2.642  23.698  0.00  0.00     0.075 H 
ATOM     56  H16 E4Q d   1      10.586   1.637  25.176  0.00  0.00     0.075 H 
BRANCH  54  57
ATOM     57  O   E4Q d   1       9.731   0.674  23.533  0.00  0.00    -0.350 OA
BRANCH  57  58
ATOM     58  C23 E4Q d   1       8.387   0.843  23.748  0.00  0.00     0.079 A 
ATOM     59  C24 E4Q d   1       7.810   1.912  24.409  0.00  0.00    -0.050 A 
ATOM     60  C25 E4Q d   1       6.437   1.935  24.624  0.00  0.00    -0.080 A 
ATOM     61  H17 E4Q d   1       8.428   2.731  24.759  0.00  0.00     0.087 H 
ATOM     62  C26 E4Q d   1       5.634   0.915  24.201  0.00  0.00    -0.072 A 
ATOM     63  H23 E4Q d   1       5.995   2.780  25.138  0.00  0.00     0.083 H 
ATOM     64  C27 E4Q d   1       6.181  -0.191  23.502  0.00  0.00    -0.023 A 
ATOM     65  H22 E4Q d   1       4.569   0.951  24.401  0.00  0.00     0.084 H 
ATOM     66  C32 E4Q d   1       5.371  -1.239  22.996  0.00  0.00    -0.072 A 
ATOM     67  C28 E4Q d   1       7.586  -0.231  23.261  0.00  0.00     0.007 A 
ATOM     68  C31 E4Q d   1       5.925  -2.259  22.272  0.00  0.00    -0.082 A 
ATOM     69  H20 E4Q d   1       4.303  -1.232  23.184  0.00  0.00     0.084 H 
ATOM     70  C30 E4Q d   1       7.287  -2.294  22.025  0.00  0.00    -0.082 A 
ATOM     71  H19 E4Q d   1       5.290  -3.049  21.887  0.00  0.00     0.083 H 
ATOM     72  C29 E4Q d   1       8.111  -1.317  22.513  0.00  0.00    -0.070 A 
ATOM     73  H18 E4Q d   1       7.705  -3.104  21.439  0.00  0.00     0.083 H 
ATOM     74  H21 E4Q d   1       9.177  -1.373  22.326  0.00  0.00     0.085 H 
ENDBRANCH  57  58
ENDBRANCH  54  57
ENDBRANCH  51  54
ENDBRANCH  48  51
ENDBRANCH   6  48
BRANCH   7  75
ATOM     75  C33 E4Q d   1      15.343   0.615  25.752  0.00  0.00     0.227 C 
ATOM     76  O1  E4Q d   1      16.364   0.548  26.425  0.00  0.00    -0.643 OA
ATOM     77  O2  E4Q d   1      15.336   1.059  24.530  0.00  0.00    -0.643 OA
ENDBRANCH   7  75
TORSDOF 15
