REMARK  7 active torsions:
REMARK  status: ('A' for Active; 'I' for Inactive)
REMARK    1  A    between atoms: C1_16  and  C4_1 
REMARK    2  A    between atoms: C3_14  and  C5_3 
REMARK    3  A    between atoms: C2_17  and  C6_4 
REMARK    4  A    between atoms: C8_7  and  C12_10 
REMARK    5  A    between atoms: C10_9  and  O2_18 
REMARK    6  A    between atoms: C12_10  and  C13_11 
REMARK    7  A    between atoms: C12_10  and  O3_19 
ROOT
ATOM      1  C6  E5Q d   1      29.614  16.187   0.377  0.00  0.00    -0.018 A 
ATOM      2  C11 E5Q d   1      28.763  16.006   1.481  0.00  0.00    -0.040 A 
ATOM      3  C7  E5Q d   1      29.231  15.748  -0.896  0.00  0.00    -0.063 A 
ATOM      4  C8  E5Q d   1      28.008  15.149  -1.096  0.00  0.00    -0.022 A 
ATOM      5  C9  E5Q d   1      27.136  15.003   0.013  0.00  0.00    -0.042 A 
ATOM      6  C10 E5Q d   1      27.518  15.441   1.297  0.00  0.00     0.067 A 
ATOM      7  H8  E5Q d   1      29.083  16.309   2.471  0.00  0.00     0.089 H 
ATOM      8  H9  E5Q d   1      29.905  15.881  -1.734  0.00  0.00     0.085 H 
ATOM      9  H10 E5Q d   1      26.162  14.548  -0.129  0.00  0.00     0.088 H 
ENDROOT
BRANCH   4  10
ATOM     10  C12 E5Q d   1      27.686  14.722  -2.520  0.00  0.00     0.087 C 
ATOM     11  H11 E5Q d   1      28.601  14.342  -2.999  0.00  0.00     0.098 H 
BRANCH  10  12
ATOM     12  C13 E5Q d   1      27.146  15.901  -3.331  0.00  0.00    -0.008 A 
ATOM     13  C14 E5Q d   1      27.626  16.108  -4.623  0.00  0.00     0.011 A 
ATOM     14  N2  E5Q d   1      27.215  17.160  -5.353  0.00  0.00    -0.272 NA
ATOM     15  H4  E5Q d   1      28.341  15.411  -5.045  0.00  0.00     0.115 H 
ATOM     16  C15 E5Q d   1      26.278  18.005  -4.939  0.00  0.00     0.002 A 
ATOM     17  C16 E5Q d   1      25.783  17.883  -3.655  0.00  0.00    -0.065 A 
ATOM     18  H14 E5Q d   1      25.907  18.780  -5.600  0.00  0.00     0.114 H 
ATOM     19  C17 E5Q d   1      26.225  16.807  -2.860  0.00  0.00    -0.071 A 
ATOM     20  H15 E5Q d   1      25.069  18.601  -3.267  0.00  0.00     0.085 H 
ATOM     21  H16 E5Q d   1      25.831  16.691  -1.857  0.00  0.00     0.084 H 
ENDBRANCH  10  12
BRANCH  10  22
ATOM     22  O3  E5Q d   1      26.730  13.720  -2.488  0.00  0.00    -0.386 OA
ATOM     23  H13 E5Q d   1      27.060  12.985  -1.985  0.00  0.00     0.210 HD
ENDBRANCH  10  22
ENDBRANCH   4  10
BRANCH   1  24
ATOM     24  C2  E5Q d   1      30.960  16.790   0.512  0.00  0.00     0.032 A 
ATOM     25  C3  E5Q d   1      31.306  17.952   1.186  0.00  0.00     0.071 A 
ATOM     26  N1  E5Q d   1      32.657  18.124   1.005  0.00  0.00    -0.133 NA
ATOM     27  O1  E5Q d   1      33.105  17.121   0.226  0.00  0.00    -0.217 OA
ATOM     28  C1  E5Q d   1      32.149  16.320  -0.052  0.00  0.00     0.088 A 
BRANCH  25  29
ATOM     29  C5  E5Q d   1      30.419  18.868   1.989  0.00  0.00    -0.033 C 
ATOM     30  H5  E5Q d   1      29.386  18.492   1.965  0.00  0.00     0.035 H 
ATOM     31  H6  E5Q d   1      30.451  19.880   1.558  0.00  0.00     0.035 H 
ATOM     32  H7  E5Q d   1      30.773  18.901   3.030  0.00  0.00     0.035 H 
ENDBRANCH  25  29
BRANCH  28  33
ATOM     33  C4  E5Q d   1      32.500  15.144  -0.933  0.00  0.00    -0.028 C 
ATOM     34  H1  E5Q d   1      31.602  14.531  -1.101  0.00  0.00     0.036 H 
ATOM     35  H2  E5Q d   1      33.273  14.535  -0.441  0.00  0.00     0.036 H 
ATOM     36  H3  E5Q d   1      32.880  15.510  -1.898  0.00  0.00     0.036 H 
ENDBRANCH  28  33
ENDBRANCH   1  24
BRANCH   6  37
ATOM     37  O2  E5Q d   1      26.670  15.335   2.380  0.00  0.00    -0.361 OA
ATOM     38  H12 E5Q d   1      26.450  14.421   2.520  0.00  0.00     0.217 HD
ENDBRANCH   6  37
TORSDOF 7
