REMARK  5 active torsions:
REMARK  status: ('A' for Active; 'I' for Inactive)
REMARK    1  A    between atoms: C1_1  and  N1_2 
REMARK    2  A    between atoms: C9_17  and  O2_6 
REMARK    3  A    between atoms: C10_18  and  O3_9 
REMARK    4  A    between atoms: C11_19  and  C12_20 
REMARK    5  A    between atoms: C12_20  and  O4_21 
ROOT
ATOM      1  N1  MOL d   1     -24.315  96.824  51.703  0.00  0.00    -0.309 N 
ATOM      2  C2  MOL d   1     -24.422  96.905  50.388  0.00  0.00     0.150 A 
ATOM      3  N2  MOL d   1     -25.501  97.222  49.632  0.00  0.00    -0.225 NA
ATOM      4  C3  MOL d   1     -25.328  97.329  48.299  0.00  0.00     0.069 A 
ATOM      5  N3  MOL d   1     -24.094  97.026  47.703  0.00  0.00    -0.317 N 
ATOM      6  C4  MOL d   1     -23.004  96.666  48.449  0.00  0.00     0.262 A 
ATOM      7  N4  MOL d   1     -19.772  95.673  50.963  0.00  0.00    -0.191 NA
ATOM      8  C5  MOL d   1     -23.127  96.624  49.854  0.00  0.00     0.100 A 
ATOM      9  O5  MOL d   1     -21.947  96.370  47.821  0.00  0.00    -0.267 OA
ATOM     10  C6  MOL d   1     -22.238  96.349  50.977  0.00  0.00     0.079 A 
ATOM     11  C7  MOL d   1     -23.054  96.506  52.088  0.00  0.00     0.005 A 
ATOM     12  C8  MOL d   1     -20.893  95.983  50.961  0.00  0.00     0.102 C 
ATOM     13  H3  MOL d   1     -26.159  97.656  47.675  0.00  0.00     0.143 H 
ATOM     14  H4  MOL d   1     -24.009  97.074  46.708  0.00  0.00     0.170 HD
ATOM     15  H6  MOL d   1     -22.729  96.391  53.121  0.00  0.00     0.114 H 
ENDROOT
BRANCH   1  16
ATOM     16  C1  MOL d   1     -25.465  97.038  52.660  0.00  0.00     0.138 C 
ATOM     17  O1  MOL d   1     -24.982  97.599  53.861  0.00  0.00    -0.353 OA
ATOM     18  C11 MOL d   1     -25.250  96.721  54.946  0.00  0.00     0.088 C 
ATOM     19  C10 MOL d   1     -25.391  95.367  54.219  0.00  0.00     0.091 C 
ATOM     20  H9  MOL d   1     -26.186  96.985  55.461  0.00  0.00     0.090 H 
ATOM     21  C9  MOL d   1     -26.121  95.756  53.041  0.00  0.00     0.105 C 
ATOM     22  H8  MOL d   1     -24.410  94.938  53.965  0.00  0.00     0.091 H 
ATOM     23  H7  MOL d   1     -26.002  95.004  52.247  0.00  0.00     0.093 H 
ATOM     24  H1  MOL d   1     -26.201  97.709  52.194  0.00  0.00     0.122 H 
BRANCH  18  25
ATOM     25  C12 MOL d   1     -24.055  96.782  55.980  0.00  0.00     0.043 C 
ATOM     26  H10 MOL d   1     -24.317  96.197  56.874  0.00  0.00     0.078 H 
ATOM     27  H11 MOL d   1     -23.875  97.829  56.266  0.00  0.00     0.078 H 
BRANCH  25  28
ATOM     28  O4  MOL d   1     -22.905  96.258  55.411  0.00  0.00    -0.398 OA
ATOM     29  H12 MOL d   1     -23.059  95.353  55.165  0.00  0.00     0.209 HD
ENDBRANCH  25  28
ENDBRANCH  18  25
BRANCH  19  30
ATOM     30  O3  MOL d   1     -26.151  94.415  55.025  0.00  0.00    -0.390 OA
ATOM     31  H5  MOL d   1     -25.645  94.177  55.793  0.00  0.00     0.210 HD
ENDBRANCH  19  30
BRANCH  21  32
ATOM     32  O2  MOL d   1     -27.466  95.939  53.284  0.00  0.00    -0.388 OA
ATOM     33  H2  MOL d   1     -27.886  96.274  52.500  0.00  0.00     0.210 HD
ENDBRANCH  21  32
ENDBRANCH   1  16
TORSDOF 5
