REMARK  13 active torsions:
REMARK  status: ('A' for Active; 'I' for Inactive)
REMARK    1  A    between atoms: C4_4  and  O4_5 
REMARK    2  A    between atoms: O4_5  and  C21_30 
REMARK    3  A    between atoms: C8_10  and  O8_11 
REMARK    4  A    between atoms: C10_13  and  O10_14 
REMARK    5  A    between atoms: O10_14  and  C1'_31 
REMARK    6  A    between atoms: C12_16  and  O12_17 
REMARK    7  A    between atoms: C12_16  and  C13_18 
REMARK    8  A    between atoms: C13_18  and  C14_20 
REMARK    9  A    between atoms: C14_20  and  O14_21 
REMARK   10  A    between atoms: C17_24  and  O17_25 
REMARK   11  A    between atoms: C3'_33  and  N3'_34 
REMARK   12  A    between atoms: C4'_35  and  O4'_36 
REMARK   13  A    between atoms: C5'_37  and  C6'_39 
ROOT
ATOM      1  C1  DM2 d   1     -22.212   6.957   2.175  0.00  0.00    -0.068 A 
ATOM      2  C2  DM2 d   1     -22.456   8.191   2.759  0.00  0.00    -0.079 A 
ATOM      3  C3  DM2 d   1     -21.409   9.058   2.992  0.00  0.00    -0.050 A 
ATOM      4  C4  DM2 d   1     -20.105   8.698   2.642  0.00  0.00     0.083 A 
ATOM      5  C5  DM2 d   1     -19.829   7.454   2.049  0.00  0.00     0.062 A 
ATOM      6  C6  DM2 d   1     -18.466   7.052   1.672  0.00  0.00     0.200 A 
ATOM      7  O6  DM2 d   1     -17.500   7.778   1.854  0.00  0.00    -0.286 OA
ATOM      8  C7  DM2 d   1     -18.296   5.724   1.057  0.00  0.00     0.066 A 
ATOM      9  C8  DM2 d   1     -17.026   5.296   0.682  0.00  0.00     0.090 A 
ATOM     10  C9  DM2 d   1     -16.825   4.040   0.095  0.00  0.00     0.014 A 
ATOM     11  C10 DM2 d   1     -15.425   3.660  -0.278  0.00  0.00     0.073 C 
ATOM     12  C11 DM2 d   1     -15.415   2.474  -1.259  0.00  0.00    -0.001 C 
ATOM     13  C12 DM2 d   1     -16.308   1.380  -0.661  0.00  0.00     0.127 C 
ATOM     14  C15 DM2 d   1     -17.761   1.846  -0.745  0.00  0.00    -0.002 C 
ATOM     15  C16 DM2 d   1     -17.896   3.193  -0.127  0.00  0.00    -0.009 A 
ATOM     16  C17 DM2 d   1     -19.173   3.624   0.251  0.00  0.00     0.088 A 
ATOM     17  C18 DM2 d   1     -19.378   4.870   0.834  0.00  0.00     0.066 A 
ATOM     18  C19 DM2 d   1     -20.732   5.273   1.211  0.00  0.00     0.197 A 
ATOM     19  O19 DM2 d   1     -21.686   4.528   1.018  0.00  0.00    -0.286 OA
ATOM     20  C20 DM2 d   1     -20.920   6.597   1.827  0.00  0.00     0.032 A 
ATOM     21  H1  DM2 d   1     -23.033   6.273   1.991  0.00  0.00     0.085 H 
ATOM     22  H2  DM2 d   1     -23.466   8.473   3.031  0.00  0.00     0.083 H 
ATOM     23  H3  DM2 d   1     -21.599  10.023   3.449  0.00  0.00     0.087 H 
ATOM     24  H5  DM2 d   1     -14.930   4.515  -0.763  0.00  0.00     0.091 H 
ATOM     25  H6  DM2 d   1     -14.389   2.097  -1.383  0.00  0.00     0.042 H 
ATOM     26  H7  DM2 d   1     -15.810   2.790  -2.236  0.00  0.00     0.042 H 
ATOM     27  H12 DM2 d   1     -18.405   1.133  -0.209  0.00  0.00     0.045 H 
ATOM     28  H13 DM2 d   1     -18.068   1.896  -1.800  0.00  0.00     0.045 H 
ENDROOT
BRANCH  11  29
ATOM     29  O10 DM2 d   1     -14.757   3.358   0.925  0.00  0.00    -0.351 OA
BRANCH  29  30
ATOM     30  C1' DM2 d   1     -13.597   4.141   1.105  0.00  0.00     0.134 C 
ATOM     31  C2' DM2 d   1     -13.077   3.954   2.535  0.00  0.00     0.010 C 
ATOM     32  C3' DM2 d   1     -12.703   2.484   2.758  0.00  0.00     0.131 C 
ATOM     33  H19 DM2 d   1     -13.860   4.245   3.250  0.00  0.00     0.043 H 
ATOM     34  H20 DM2 d   1     -12.189   4.585   2.687  0.00  0.00     0.043 H 
ATOM     35  C4' DM2 d   1     -11.730   2.032   1.628  0.00  0.00     0.087 C 
ATOM     36  H21 DM2 d   1     -13.613   1.867   2.729  0.00  0.00     0.088 H 
ATOM     37  C5' DM2 d   1     -12.429   2.294   0.279  0.00  0.00     0.065 C 
ATOM     38  H25 DM2 d   1     -11.494   0.962   1.726  0.00  0.00     0.090 H 
ATOM     39  O5' DM2 d   1     -12.688   3.670   0.147  0.00  0.00    -0.354 OA
ATOM     40  H27 DM2 d   1     -13.377   1.737   0.263  0.00  0.00     0.086 H 
ATOM     41  H18 DM2 d   1     -13.814   5.205   0.932  0.00  0.00     0.129 H 
BRANCH  32  42
ATOM     42  N3' DM2 d   1     -12.049   2.319   4.052  0.00  0.00    -0.072 N 
ATOM     43  H22 DM2 d   1     -11.809   1.349   4.186  0.00  0.00     0.274 HD
ATOM     44  H23 DM2 d   1     -12.675   2.614   4.785  0.00  0.00     0.274 HD
ATOM     45  H24 DM2 d   1     -11.212   2.879   4.079  0.00  0.00     0.274 HD
ENDBRANCH  32  42
BRANCH  35  46
ATOM     46  O4' DM2 d   1     -10.568   2.785   1.746  0.00  0.00    -0.391 OA
ATOM     47  H26 DM2 d   1     -10.778   3.707   1.653  0.00  0.00     0.210 HD
ENDBRANCH  35  46
BRANCH  37  48
ATOM     48  C6' DM2 d   1     -11.588   1.870  -0.915  0.00  0.00    -0.050 C 
ATOM     49  H28 DM2 d   1     -12.138   2.081  -1.844  0.00  0.00     0.031 H 
ATOM     50  H29 DM2 d   1     -11.377   0.792  -0.851  0.00  0.00     0.031 H 
ATOM     51  H30 DM2 d   1     -10.641   2.430  -0.914  0.00  0.00     0.031 H 
ENDBRANCH  37  48
ENDBRANCH  29  30
ENDBRANCH  11  29
BRANCH   9  52
ATOM     52  O8  DM2 d   1     -15.958   6.114   0.890  0.00  0.00    -0.359 OA
ATOM     53  H4  DM2 d   1     -15.880   6.301   1.818  0.00  0.00     0.217 HD
ENDBRANCH   9  52
BRANCH  13  54
ATOM     54  O12 DM2 d   1     -15.890   1.206   0.660  0.00  0.00    -0.382 OA
ATOM     55  H8  DM2 d   1     -15.991   2.024   1.133  0.00  0.00     0.211 HD
ENDBRANCH  13  54
BRANCH  13  56
ATOM     56  C13 DM2 d   1     -16.125   0.081  -1.460  0.00  0.00     0.184 C 
ATOM     57  O13 DM2 d   1     -16.498  -0.021  -2.607  0.00  0.00    -0.292 OA
BRANCH  56  58
ATOM     58  C14 DM2 d   1     -15.451  -1.064  -0.734  0.00  0.00     0.074 C 
ATOM     59  H9  DM2 d   1     -15.922  -2.022  -1.000  0.00  0.00     0.086 H 
ATOM     60  H10 DM2 d   1     -15.507  -0.918   0.355  0.00  0.00     0.086 H 
BRANCH  58  61
ATOM     61  O14 DM2 d   1     -14.125  -1.032  -1.166  0.00  0.00    -0.393 OA
ATOM     62  H11 DM2 d   1     -13.639  -1.732  -0.745  0.00  0.00     0.209 HD
ENDBRANCH  58  61
ENDBRANCH  56  58
ENDBRANCH  13  56
BRANCH  16  63
ATOM     63  O17 DM2 d   1     -20.229   2.790   0.034  0.00  0.00    -0.359 OA
ATOM     64  H14 DM2 d   1     -21.027   3.207   0.336  0.00  0.00     0.217 HD
ENDBRANCH  16  63
BRANCH   4  65
ATOM     65  O4  DM2 d   1     -19.050   9.537   2.862  0.00  0.00    -0.355 OA
BRANCH  65  66
ATOM     66  C21 DM2 d   1     -19.382  10.903   2.712  0.00  0.00     0.010 C 
ATOM     67  H15 DM2 d   1     -18.491  11.520   2.902  0.00  0.00     0.066 H 
ATOM     68  H16 DM2 d   1     -20.172  11.169   3.429  0.00  0.00     0.066 H 
ATOM     69  H17 DM2 d   1     -19.741  11.083   1.688  0.00  0.00     0.066 H 
ENDBRANCH  65  66
ENDBRANCH   4  65
TORSDOF 13
