REMARK  6 active torsions:
REMARK  status: ('A' for Active; 'I' for Inactive)
REMARK    1  A    between atoms: O1_29  and  C1_1 
REMARK    2  A    between atoms: C9_25  and  C10_2 
REMARK       I    between atoms: C10_2  and  N1_26 
REMARK    3  A    between atoms: C5_21  and  C11_3 
REMARK    4  A    between atoms: N3_28  and  C12_4 
REMARK    5  A    between atoms: C2_12  and  O1_29 
REMARK    6  A    between atoms: C8_24  and  C7_23 
ROOT
ATOM      1  C11 E6Z d   1     -21.162 116.284 348.979  0.00  0.00     0.070 C 
ATOM      2  C19 E6Z d   1     -20.035 117.148 346.561  0.00  0.00     0.245 C 
ATOM      3  C20 E6Z d   1     -19.481 115.880 347.181  0.00  0.00     0.037 C 
ATOM      4  C21 E6Z d   1     -18.860 114.861 346.203  0.00  0.00    -0.038 C 
ATOM      5  C22 E6Z d   1     -19.851 113.919 345.608  0.00  0.00    -0.106 C 
ATOM      6  C23 E6Z d   1     -21.101 113.829 346.011  0.00  0.00    -0.106 C 
ATOM      7  C24 E6Z d   1     -21.634 114.527 347.220  0.00  0.00    -0.041 C 
ATOM      8  C25 E6Z d   1     -20.562 115.216 348.062  0.00  0.00     0.006 C 
ATOM      9  N2  E6Z d   1     -21.361 117.495 348.584  0.00  0.00    -0.173 NA
ATOM     10  N3  E6Z d   1     -21.001 117.839 347.312  0.00  0.00    -0.233 N 
ATOM     11  O3  E6Z d   1     -19.615 117.595 345.499  0.00  0.00    -0.271 OA
ATOM     12  H17 E6Z d   1     -18.665 116.195 347.848  0.00  0.00     0.056 H 
ATOM     13  H18 E6Z d   1     -18.106 114.273 346.747  0.00  0.00     0.040 H 
ATOM     14  H19 E6Z d   1     -18.374 115.415 345.386  0.00  0.00     0.040 H 
ATOM     15  H20 E6Z d   1     -19.523 113.271 344.797  0.00  0.00     0.076 H 
ATOM     16  H21 E6Z d   1     -21.785 113.211 345.431  0.00  0.00     0.076 H 
ATOM     17  H22 E6Z d   1     -22.145 113.785 347.851  0.00  0.00     0.040 H 
ATOM     18  H23 E6Z d   1     -22.357 115.288 346.890  0.00  0.00     0.040 H 
ATOM     19  H24 E6Z d   1     -20.080 114.450 348.687  0.00  0.00     0.051 H 
ENDROOT
BRANCH   1  20
ATOM     20  C5  E6Z d   1     -21.489 115.979 350.401  0.00  0.00    -0.008 A 
ATOM     21  C4  E6Z d   1     -21.488 114.688 350.925  0.00  0.00    -0.068 A 
ATOM     22  C3  E6Z d   1     -21.778 114.466 352.262  0.00  0.00    -0.049 A 
ATOM     23  H26 E6Z d   1     -21.258 113.848 350.280  0.00  0.00     0.085 H 
ATOM     24  C2  E6Z d   1     -22.092 115.530 353.109  0.00  0.00     0.086 A 
ATOM     25  H25 E6Z d   1     -21.761 113.456 352.654  0.00  0.00     0.087 H 
ATOM     26  C7  E6Z d   1     -22.106 116.849 352.586  0.00  0.00     0.052 A 
ATOM     27  C6  E6Z d   1     -21.795 117.057 351.243  0.00  0.00    -0.050 A 
ATOM     28  H27 E6Z d   1     -21.790 118.065 350.845  0.00  0.00     0.087 H 
BRANCH  24  29
ATOM     29  O1  E6Z d   1     -22.399 115.392 354.444  0.00  0.00    -0.354 OA
BRANCH  29  30
ATOM     30  C1  E6Z d   1     -22.557 114.089 355.010  0.00  0.00     0.010 C 
ATOM     31  H1  E6Z d   1     -22.798 114.180 356.079  0.00  0.00     0.066 H 
ATOM     32  H2  E6Z d   1     -21.622 113.522 354.892  0.00  0.00     0.066 H 
ATOM     33  H3  E6Z d   1     -23.373 113.561 354.494  0.00  0.00     0.066 H 
ENDBRANCH  29  30
ENDBRANCH  24  29
BRANCH  26  34
ATOM     34  C8  E6Z d   1     -22.403 117.982 353.415  0.00  0.00    -0.054 C 
ATOM     35  C9  E6Z d   1     -22.522 118.965 354.085  0.00  0.00    -0.000 C 
BRANCH  35  36
ATOM     36  C10 E6Z d   1     -22.588 120.031 355.032  0.00  0.00     0.294 C 
ATOM     37  N1  E6Z d   1     -22.137 121.187 354.540  0.00  0.00    -0.359 N 
ATOM     38  H28 E6Z d   1     -22.134 122.007 355.113  0.00  0.00     0.160 HD
ATOM     39  H29 E6Z d   1     -21.802 121.233 353.599  0.00  0.00     0.160 HD
ATOM     40  O2  E6Z d   1     -22.998 119.868 356.185  0.00  0.00    -0.258 OA
ENDBRANCH  35  36
ENDBRANCH  26  34
ENDBRANCH   1  20
BRANCH  10  41
ATOM     41  C12 E6Z d   1     -21.668 119.072 346.809  0.00  0.00     0.038 C 
ATOM     42  C13 E6Z d   1     -21.022 120.302 347.463  0.00  0.00    -0.044 C 
ATOM     43  C14 E6Z d   1     -21.351 121.684 346.902  0.00  0.00    -0.063 C 
ATOM     44  H5  E6Z d   1     -19.932 120.173 347.390  0.00  0.00     0.036 H 
ATOM     45  H6  E6Z d   1     -21.322 120.302 348.521  0.00  0.00     0.036 H 
ATOM     46  C15 E6Z d   1     -22.808 121.996 346.826  0.00  0.00    -0.065 C 
ATOM     47  H7  E6Z d   1     -20.933 121.750 345.887  0.00  0.00     0.033 H 
ATOM     48  H8  E6Z d   1     -20.872 122.438 347.545  0.00  0.00     0.033 H 
ATOM     49  C16 E6Z d   1     -23.507 121.234 345.732  0.00  0.00    -0.065 C 
ATOM     50  H9  E6Z d   1     -22.928 123.073 346.637  0.00  0.00     0.033 H 
ATOM     51  H10 E6Z d   1     -23.274 121.738 347.788  0.00  0.00     0.033 H 
ATOM     52  C17 E6Z d   1     -24.076 119.903 346.171  0.00  0.00    -0.063 C 
ATOM     53  H11 E6Z d   1     -22.785 121.051 344.923  0.00  0.00     0.033 H 
ATOM     54  H12 E6Z d   1     -24.333 121.854 345.353  0.00  0.00     0.033 H 
ATOM     55  C18 E6Z d   1     -23.193 118.997 347.032  0.00  0.00    -0.044 C 
ATOM     56  H13 E6Z d   1     -24.334 119.341 345.262  0.00  0.00     0.033 H 
ATOM     57  H14 E6Z d   1     -24.991 120.111 346.745  0.00  0.00     0.033 H 
ATOM     58  H15 E6Z d   1     -23.386 119.252 348.084  0.00  0.00     0.036 H 
ATOM     59  H16 E6Z d   1     -23.503 117.959 346.844  0.00  0.00     0.036 H 
ATOM     60  H4  E6Z d   1     -21.495 119.139 345.725  0.00  0.00     0.076 H 
ENDBRANCH  10  41
TORSDOF 6
