REMARK  5 active torsions:
REMARK  status: ('A' for Active; 'I' for Inactive)
REMARK    1  A    between atoms: C13_4  and  C4_12 
REMARK       I    between atoms: N15_22  and  C13_4 
REMARK    2  A    between atoms: C16_5  and  N15_22 
REMARK    3  A    between atoms: C20_9  and  C22_11 
REMARK    4  A    between atoms: C22_11  and  N23_23 
REMARK    5  A    between atoms: C8_16  and  C10_18 
REMARK       I    between atoms: C10_18  and  N11_19 
ROOT
ATOM      1  C13 E7E d   1       4.180   8.083   1.663  0.00  0.00     0.257 C 
ATOM      2  O14 E7E d   1       5.400   8.108   1.757  0.00  0.00    -0.267 OA
ATOM      3  N15 E7E d   1       3.479   6.919   1.548  0.00  0.00    -0.323 N 
ATOM      4  H14 E7E d   1       2.487   7.017   1.472  0.00  0.00     0.169 HD
ENDROOT
BRANCH   1   5
ATOM      5  C4  E7E d   1       3.446   9.421   1.713  0.00  0.00     0.044 A 
ATOM      6  C1  E7E d   1       2.073   9.551   2.051  0.00  0.00    -0.067 A 
ATOM      7  C2  E7E d   1       1.425  10.808   2.111  0.00  0.00    -0.080 A 
ATOM      8  H1  E7E d   1       1.501   8.657   2.271  0.00  0.00     0.085 H 
ATOM      9  C3  E7E d   1       2.125  12.002   1.854  0.00  0.00    -0.056 A 
ATOM     10  H2  E7E d   1       0.371  10.852   2.359  0.00  0.00     0.083 H 
ATOM     11  C6  E7E d   1       3.488  11.876   1.532  0.00  0.00     0.044 A 
ATOM     12  H3  E7E d   1       1.638  12.969   1.902  0.00  0.00     0.086 H 
ATOM     13  C5  E7E d   1       4.122  10.635   1.472  0.00  0.00     0.009 A 
ATOM     14  N7  E7E d   1       4.384  12.846   1.273  0.00  0.00    -0.351 N 
ATOM     15  C9  E7E d   1       5.534  11.021   1.105  0.00  0.00    -0.039 A 
ATOM     16  C8  E7E d   1       5.575  12.361   1.010  0.00  0.00     0.102 A 
ATOM     17  H11 E7E d   1       6.367  10.338   0.946  0.00  0.00     0.088 H 
ATOM     18  H10 E7E d   1       4.161  13.852   1.280  0.00  0.00     0.166 HD
BRANCH  16  19
ATOM     19  C10 E7E d   1       6.792  13.150   0.696  0.00  0.00     0.266 C 
ATOM     20  N11 E7E d   1       6.769  14.496   0.616  0.00  0.00    -0.365 N 
ATOM     21  H12 E7E d   1       7.607  14.999   0.402  0.00  0.00     0.159 HD
ATOM     22  H13 E7E d   1       5.914  14.992   0.770  0.00  0.00     0.159 HD
ATOM     23  O12 E7E d   1       7.844  12.543   0.535  0.00  0.00    -0.266 OA
ENDBRANCH  16  19
ENDBRANCH   1   5
BRANCH   3  24
ATOM     24  C16 E7E d   1       3.973   5.578   1.522  0.00  0.00     0.035 A 
ATOM     25  C17 E7E d   1       3.064   4.587   1.138  0.00  0.00    -0.050 A 
ATOM     26  C20 E7E d   1       3.420   3.227   1.092  0.00  0.00    -0.031 A 
ATOM     27  H4  E7E d   1       2.055   4.876   0.868  0.00  0.00     0.087 H 
ATOM     28  C18 E7E d   1       4.721   2.857   1.463  0.00  0.00    -0.075 A 
ATOM     29  C19 E7E d   1       5.657   3.825   1.854  0.00  0.00    -0.080 A 
ATOM     30  H5  E7E d   1       5.006   1.811   1.447  0.00  0.00     0.084 H 
ATOM     31  C21 E7E d   1       5.285   5.184   1.885  0.00  0.00    -0.057 A 
ATOM     32  H6  E7E d   1       6.662   3.529   2.131  0.00  0.00     0.083 H 
ATOM     33  H7  E7E d   1       6.007   5.933   2.189  0.00  0.00     0.086 H 
BRANCH  26  34
ATOM     34  C22 E7E d   1       2.339   2.208   0.699  0.00  0.00     0.103 C 
ATOM     35  H8  E7E d   1       2.268   2.178  -0.398  0.00  0.00     0.082 H 
ATOM     36  H9  E7E d   1       1.377   2.536   1.120  0.00  0.00     0.082 H 
BRANCH  34  37
ATOM     37  N23 E7E d   1       2.627   0.848   1.189  0.00  0.00    -0.075 N 
ATOM     38  H15 E7E d   1       1.888   0.225   0.903  0.00  0.00     0.274 HD
ATOM     39  H16 E7E d   1       2.687   0.859   2.195  0.00  0.00     0.274 HD
ATOM     40  H17 E7E d   1       3.503   0.530   0.804  0.00  0.00     0.274 HD
ENDBRANCH  34  37
ENDBRANCH  26  34
ENDBRANCH   3  24
TORSDOF 5
