REMARK  9 active torsions:
REMARK  status: ('A' for Active; 'I' for Inactive)
REMARK    1  A    between atoms: N1_1  and  C3_10 
REMARK    2  A    between atoms: C19_12  and  N1_1 
REMARK    3  A    between atoms: C5_2  and  C7_3 
REMARK    4  A    between atoms: C3_10  and  C5_2 
REMARK    5  A    between atoms: C5_2  and  C11_11 
REMARK    6  A    between atoms: C3_10  and  C15_4 
REMARK    7  A    between atoms: N25_20  and  C27_21 
REMARK    8  A    between atoms: C30_25  and  C37_26 
REMARK    9  A    between atoms: C37_26  and  N40_27 
ROOT
ATOM      1  C21 E88 d   1       4.196  10.643   1.938  0.00  0.00     0.090 A 
ATOM      2  C22 E88 d   1       3.562   9.381   2.023  0.00  0.00     0.040 A 
ATOM      3  C19 E88 d   1       6.229   9.658   1.499  0.00  0.00     0.725 A 
ATOM      4  N24 E88 d   1       5.682   8.385   1.521  0.00  0.00    -0.044 NA
ATOM      5  C23 E88 d   1       4.342   8.249   1.775  0.00  0.00     0.160 A 
ATOM      6  C43 E88 d   1       2.158   9.329   2.268  0.00  0.00    -0.067 C 
ATOM      7  C45 E88 d   1       1.487  10.531   2.532  0.00  0.00    -0.082 C 
ATOM      8  C47 E88 d   1       2.083  11.786   2.334  0.00  0.00    -0.081 C 
ATOM      9  C49 E88 d   1       3.468  11.860   2.050  0.00  0.00    -0.054 C 
ATOM     10  N20 E88 d   1       5.508  10.735   1.735  0.00  0.00    -0.062 NA
ATOM     11  N25 E88 d   1       3.797   7.040   1.720  0.00  0.00    -0.340 N 
ATOM     12  H11 E88 d   1       1.624   8.386   2.251  0.00  0.00     0.085 H 
ATOM     13  H12 E88 d   1       0.469  10.490   2.903  0.00  0.00     0.083 H 
ATOM     14  H13 E88 d   1       1.488  12.690   2.398  0.00  0.00     0.083 H 
ATOM     15  H14 E88 d   1       3.960  12.817   1.921  0.00  0.00     0.087 H 
ATOM     16  H15 E88 d   1       2.769   7.064   1.772  0.00  0.00     0.167 HD
ENDROOT
BRANCH  11  17
ATOM     17  C27 E88 d   1       4.320   5.700   1.604  0.00  0.00     0.034 C 
ATOM     18  C28 E88 d   1       3.476   4.753   1.150  0.00  0.00    -0.050 C 
ATOM     19  C30 E88 d   1       3.932   3.404   0.974  0.00  0.00    -0.031 C 
ATOM     20  H6  E88 d   1       2.449   5.011   0.917  0.00  0.00     0.087 H 
ATOM     21  C31 E88 d   1       5.209   3.069   1.438  0.00  0.00    -0.075 C 
ATOM     22  C33 E88 d   1       6.074   4.067   1.833  0.00  0.00    -0.080 C 
ATOM     23  H18 E88 d   1       5.516   2.031   1.486  0.00  0.00     0.084 H 
ATOM     24  C35 E88 d   1       5.632   5.378   1.949  0.00  0.00    -0.057 C 
ATOM     25  H17 E88 d   1       7.107   3.826   2.055  0.00  0.00     0.083 H 
ATOM     26  H16 E88 d   1       6.305   6.149   2.307  0.00  0.00     0.086 H 
BRANCH  19  27
ATOM     27  C37 E88 d   1       2.886   2.422   0.519  0.00  0.00     0.103 C 
ATOM     28  H19 E88 d   1       2.940   2.419  -0.580  0.00  0.00     0.082 H 
ATOM     29  H20 E88 d   1       1.922   2.846   0.838  0.00  0.00     0.082 H 
BRANCH  27  30
ATOM     30  N40 E88 d   1       2.847   0.979   0.926  0.00  0.00    -0.075 N 
ATOM     31  H21 E88 d   1       2.055   0.529   0.493  0.00  0.00     0.274 HD
ATOM     32  H22 E88 d   1       2.763   0.915   1.929  0.00  0.00     0.274 HD
ATOM     33  H23 E88 d   1       3.696   0.523   0.630  0.00  0.00     0.274 HD
ENDBRANCH  27  30
ENDBRANCH  19  27
ENDBRANCH  11  17
BRANCH   3  34
ATOM     34  N1  E88 d   1       7.551   9.765   1.326  0.00  0.00    -0.207 N 
ATOM     35  H1  E88 d   1       7.925  10.708   1.146  0.00  0.00     0.178 HD
BRANCH  34  36
ATOM     36  C3  E88 d   1       8.517   8.661   1.369  0.00  0.00     0.113 C 
ATOM     37  H7  E88 d   1       8.206   7.910   0.628  0.00  0.00     0.091 H 
BRANCH  36  38
ATOM     38  C5  E88 d   1       9.925   9.158   0.973  0.00  0.00    -0.031 C 
ATOM     39  H2  E88 d   1      10.605   8.294   0.952  0.00  0.00     0.042 H 
BRANCH  38  40
ATOM     40  C7  E88 d   1       9.887   9.762  -0.436  0.00  0.00    -0.071 C 
ATOM     41  H3  E88 d   1      10.892  10.114  -0.711  0.00  0.00     0.028 H 
ATOM     42  H4  E88 d   1       9.185  10.609  -0.453  0.00  0.00     0.028 H 
ATOM     43  H5  E88 d   1       9.557   8.997  -1.154  0.00  0.00     0.028 H 
ENDBRANCH  38  40
BRANCH  38  44
ATOM     44  C11 E88 d   1      10.450  10.146   2.029  0.00  0.00    -0.071 C 
ATOM     45  H8  E88 d   1      11.452  10.494   1.739  0.00  0.00     0.028 H 
ATOM     46  H9  E88 d   1      10.505   9.644   3.006  0.00  0.00     0.028 H 
ATOM     47  H10 E88 d   1       9.768  11.007   2.097  0.00  0.00     0.028 H 
ENDBRANCH  38  44
ENDBRANCH  36  38
BRANCH  36  48
ATOM     48  C15 E88 d   1       8.519   7.985   2.741  0.00  0.00     0.197 C 
ATOM     49  O17 E88 d   1       8.249   8.715   3.705  0.00  0.00    -0.646 OA
ATOM     50  O16 E88 d   1       8.787   6.754   2.754  0.00  0.00    -0.646 OA
ENDBRANCH  36  48
ENDBRANCH  34  36
ENDBRANCH   3  34
TORSDOF 9
