REMARK  7 active torsions:
REMARK  status: ('A' for Active; 'I' for Inactive)
REMARK    1  A    between atoms: N1_1  and  C3_11 
REMARK    2  A    between atoms: C23_12  and  N1_1 
REMARK    3  A    between atoms: C5_2  and  C19_8 
REMARK    4  A    between atoms: C27_14  and  N29_21 
REMARK    5  A    between atoms: N29_21  and  C31_22 
REMARK    6  A    between atoms: C34_26  and  C41_28 
REMARK    7  A    between atoms: C41_28  and  N44_29 
ROOT
ATOM      1  C26 E7W d   1       3.191   9.247   1.809  0.00  0.00     0.040 A 
ATOM      2  C23 E7W d   1       5.762   9.469   1.233  0.00  0.00     0.725 C 
ATOM      3  N28 E7W d   1       5.173   8.265   1.222  0.00  0.00    -0.044 NA
ATOM      4  C27 E7W d   1       3.945   8.021   1.525  0.00  0.00     0.160 C 
ATOM      5  C47 E7W d   1       1.838   9.161   2.109  0.00  0.00    -0.067 A 
ATOM      6  C49 E7W d   1       1.099  10.375   2.290  0.00  0.00    -0.082 A 
ATOM      7  C51 E7W d   1       1.691  11.629   2.164  0.00  0.00    -0.081 A 
ATOM      8  C53 E7W d   1       3.009  11.734   1.845  0.00  0.00    -0.054 A 
ATOM      9  C25 E7W d   1       3.809  10.525   1.742  0.00  0.00     0.090 A 
ATOM     10  N24 E7W d   1       5.062  10.668   1.348  0.00  0.00    -0.062 NA
ATOM     11  H12 E7W d   1       1.352   8.197   2.204  0.00  0.00     0.085 H 
ATOM     12  H13 E7W d   1       0.044  10.315   2.533  0.00  0.00     0.083 H 
ATOM     13  H14 E7W d   1       1.100  12.524   2.321  0.00  0.00     0.083 H 
ATOM     14  H15 E7W d   1       3.456  12.706   1.670  0.00  0.00     0.087 H 
ENDROOT
BRANCH   2  15
ATOM     15  N1  E7W d   1       7.009   9.701   0.885  0.00  0.00    -0.217 N 
ATOM     16  H1  E7W d   1       7.401  10.634   1.077  0.00  0.00     0.178 HD
BRANCH  15  17
ATOM     17  C3  E7W d   1       7.852   8.731   0.255  0.00  0.00     0.039 C 
ATOM     18  C5  E7W d   1       8.991   8.517   1.211  0.00  0.00     0.050 C 
ATOM     19  C7  E7W d   1       9.840   9.785   1.325  0.00  0.00    -0.051 C 
ATOM     20  H2  E7W d   1       9.628   7.735   0.772  0.00  0.00     0.059 H 
ATOM     21  C10 E7W d   1      10.533  10.099   0.014  0.00  0.00    -0.064 C 
ATOM     22  H3  E7W d   1      10.600   9.639   2.107  0.00  0.00     0.034 H 
ATOM     23  H4  E7W d   1       9.190  10.629   1.599  0.00  0.00     0.034 H 
ATOM     24  C13 E7W d   1       9.425  10.540  -0.814  0.00  0.00    -0.063 C 
ATOM     25  H5  E7W d   1      11.016   9.205  -0.407  0.00  0.00     0.033 H 
ATOM     26  H6  E7W d   1      11.281  10.896   0.138  0.00  0.00     0.033 H 
ATOM     27  C16 E7W d   1       8.423   9.466  -1.030  0.00  0.00    -0.045 C 
ATOM     28  H7  E7W d   1       9.818  10.859  -1.791  0.00  0.00     0.033 H 
ATOM     29  H8  E7W d   1       8.931  11.391  -0.321  0.00  0.00     0.033 H 
ATOM     30  H9  E7W d   1       8.891   8.701  -1.667  0.00  0.00     0.036 H 
ATOM     31  H10 E7W d   1       7.570   9.913  -1.561  0.00  0.00     0.036 H 
ATOM     32  H11 E7W d   1       7.327   7.796   0.009  0.00  0.00     0.074 H 
BRANCH  18  33
ATOM     33  C19 E7W d   1       8.581   8.025   2.556  0.00  0.00     0.179 C 
ATOM     34  O21 E7W d   1       8.353   6.739   2.551  0.00  0.00    -0.648 OA
ATOM     35  O20 E7W d   1       8.577   8.817   3.516  0.00  0.00    -0.648 OA
ENDBRANCH  18  33
ENDBRANCH  15  17
ENDBRANCH   2  15
BRANCH   4  36
ATOM     36  N29 E7W d   1       3.408   6.753   1.647  0.00  0.00    -0.340 N 
ATOM     37  H16 E7W d   1       2.405   6.752   1.883  0.00  0.00     0.167 HD
BRANCH  36  38
ATOM     38  C31 E7W d   1       3.932   5.518   1.519  0.00  0.00     0.034 C 
ATOM     39  C39 E7W d   1       5.277   5.244   1.701  0.00  0.00    -0.057 C 
ATOM     40  C37 E7W d   1       5.812   3.939   1.551  0.00  0.00    -0.080 C 
ATOM     41  H17 E7W d   1       5.945   6.055   1.968  0.00  0.00     0.086 H 
ATOM     42  C35 E7W d   1       5.019   2.905   1.163  0.00  0.00    -0.075 C 
ATOM     43  H18 E7W d   1       6.864   3.764   1.748  0.00  0.00     0.083 H 
ATOM     44  C34 E7W d   1       3.731   3.193   0.838  0.00  0.00    -0.031 C 
ATOM     45  H19 E7W d   1       5.399   1.891   1.115  0.00  0.00     0.084 H 
ATOM     46  C32 E7W d   1       3.237   4.471   1.084  0.00  0.00    -0.050 C 
ATOM     47  H20 E7W d   1       2.180   4.628   0.903  0.00  0.00     0.087 H 
BRANCH  44  48
ATOM     48  C41 E7W d   1       2.881   2.048   0.322  0.00  0.00     0.103 C 
ATOM     49  H21 E7W d   1       3.526   1.336  -0.214  0.00  0.00     0.082 H 
ATOM     50  H22 E7W d   1       2.122   2.447  -0.367  0.00  0.00     0.082 H 
BRANCH  48  51
ATOM     51  N44 E7W d   1       2.236   1.379   1.376  0.00  0.00    -0.075 N 
ATOM     52  H23 E7W d   1       1.680   0.625   1.005  0.00  0.00     0.274 HD
ATOM     53  H24 E7W d   1       1.640   2.025   1.869  0.00  0.00     0.274 HD
ATOM     54  H25 E7W d   1       2.926   1.007   2.010  0.00  0.00     0.274 HD
ENDBRANCH  48  51
ENDBRANCH  44  48
ENDBRANCH  36  38
ENDBRANCH   4  36
TORSDOF 7
