REMARK  8 active torsions:
REMARK  status: ('A' for Active; 'I' for Inactive)
REMARK    1  A    between atoms: C4_2  and  N1_1 
REMARK    2  A    between atoms: C7_3  and  C4_2 
REMARK    3  A    between atoms: C17_8  and  C10_5 
REMARK    4  A    between atoms: N27_17  and  C20_9 
REMARK    5  A    between atoms: C29_12  and  C31_13 
REMARK       I    between atoms: C29_12  and  N27_17 
REMARK    6  A    between atoms: C31_13  and  C34_14 
REMARK    7  A    between atoms: C34_14  and  C40_15 
REMARK    8  A    between atoms: C34_14  and  C36_16 
ROOT
ATOM      1  C17 E8B d   1       5.617  51.781  73.556  0.00  0.00    -0.024 A 
ATOM      2  C20 E8B d   1       3.836  53.435  73.503  0.00  0.00     0.035 A 
ATOM      3  C21 E8B d   1       3.478  53.118  74.781  0.00  0.00    -0.057 A 
ATOM      4  C18 E8B d   1       4.932  52.794  72.922  0.00  0.00    -0.046 A 
ATOM      5  C23 E8B d   1       4.151  52.099  75.458  0.00  0.00    -0.080 A 
ATOM      6  C25 E8B d   1       5.224  51.434  74.868  0.00  0.00    -0.072 A 
ATOM      7  H9  E8B d   1       2.673  53.656  75.269  0.00  0.00     0.086 H 
ATOM      8  H20 E8B d   1       5.256  53.105  71.935  0.00  0.00     0.088 H 
ATOM      9  H21 E8B d   1       3.834  51.821  76.457  0.00  0.00     0.083 H 
ATOM     10  H22 E8B d   1       5.752  50.658  75.410  0.00  0.00     0.084 H 
ENDROOT
BRANCH   1  11
ATOM     11  C10 E8B d   1       6.800  51.146  72.902  0.00  0.00    -0.025 A 
ATOM     12  C8  E8B d   1       7.169  49.814  73.216  0.00  0.00    -0.065 A 
ATOM     13  C7  E8B d   1       8.292  49.238  72.649  0.00  0.00    -0.032 A 
ATOM     14  H6  E8B d   1       6.564  49.240  73.909  0.00  0.00     0.085 H 
ATOM     15  C15 E8B d   1       9.081  50.005  71.815  0.00  0.00    -0.075 A 
ATOM     16  C13 E8B d   1       8.761  51.346  71.572  0.00  0.00    -0.082 A 
ATOM     17  H8  E8B d   1       9.954  49.566  71.345  0.00  0.00     0.084 H 
ATOM     18  C11 E8B d   1       7.623  51.941  72.077  0.00  0.00    -0.072 A 
ATOM     19  H7  E8B d   1       9.433  51.940  70.963  0.00  0.00     0.083 H 
ATOM     20  H23 E8B d   1       7.373  52.971  71.850  0.00  0.00     0.084 H 
BRANCH  13  21
ATOM     21  C4  E8B d   1       8.563  47.794  72.979  0.00  0.00     0.103 C 
ATOM     22  H4  E8B d   1       8.493  47.677  74.070  0.00  0.00     0.082 H 
ATOM     23  H5  E8B d   1       7.786  47.184  72.495  0.00  0.00     0.082 H 
BRANCH  21  24
ATOM     24  N1  E8B d   1       9.865  47.285  72.554  0.00  0.00    -0.075 N 
ATOM     25  H1  E8B d   1       9.950  46.316  72.819  0.00  0.00     0.274 HD
ATOM     26  H2  E8B d   1      10.596  47.820  72.997  0.00  0.00     0.274 HD
ATOM     27  H3  E8B d   1       9.948  47.368  71.553  0.00  0.00     0.274 HD
ENDBRANCH  21  24
ENDBRANCH  13  21
ENDBRANCH   1  11
BRANCH   2  28
ATOM     28  N27 E8B d   1       3.236  54.512  72.844  0.00  0.00    -0.327 N 
ATOM     29  C29 E8B d   1       3.040  54.699  71.620  0.00  0.00     0.222 C 
ATOM     30  O30 E8B d   1       3.244  53.848  70.769  0.00  0.00    -0.273 OA
ATOM     31  H19 E8B d   1       2.913  55.246  73.441  0.00  0.00     0.169 HD
BRANCH  29  32
ATOM     32  C31 E8B d   1       2.477  56.076  71.270  0.00  0.00     0.012 C 
ATOM     33  H10 E8B d   1       1.971  56.481  72.159  0.00  0.00     0.047 H 
ATOM     34  H11 E8B d   1       1.748  55.956  70.455  0.00  0.00     0.047 H 
BRANCH  32  35
ATOM     35  C34 E8B d   1       3.566  57.101  70.812  0.00  0.00    -0.053 C 
ATOM     36  H12 E8B d   1       3.010  58.005  70.525  0.00  0.00     0.039 H 
BRANCH  35  37
ATOM     37  C40 E8B d   1       4.348  56.662  69.559  0.00  0.00    -0.073 C 
ATOM     38  H13 E8B d   1       5.091  57.432  69.302  0.00  0.00     0.028 H 
ATOM     39  H14 E8B d   1       3.650  56.531  68.719  0.00  0.00     0.028 H 
ATOM     40  H15 E8B d   1       4.861  55.710  69.762  0.00  0.00     0.028 H 
ENDBRANCH  35  37
BRANCH  35  41
ATOM     41  C36 E8B d   1       4.545  57.538  71.921  0.00  0.00    -0.073 C 
ATOM     42  H16 E8B d   1       3.977  57.849  72.810  0.00  0.00     0.028 H 
ATOM     43  H17 E8B d   1       5.154  58.381  71.562  0.00  0.00     0.028 H 
ATOM     44  H18 E8B d   1       5.203  56.696  72.182  0.00  0.00     0.028 H 
ENDBRANCH  35  41
ENDBRANCH  32  35
ENDBRANCH  29  32
ENDBRANCH   2  28
TORSDOF 8
