REMARK  6 active torsions:
REMARK  status: ('A' for Active; 'I' for Inactive)
REMARK    1  A    between atoms: C6_3  and  C7_4 
REMARK    2  A    between atoms: C13_12  and  C3_6 
REMARK    3  A    between atoms: C10_8  and  C24_17 
REMARK    4  A    between atoms: C13_12  and  C14_13 
REMARK    5  A    between atoms: C13_12  and  C20_16 
REMARK       I    between atoms: C20_16  and  N22_19 
REMARK    6  A    between atoms: N22_19  and  O23_20 
ROOT
ATOM      1  C4  EBE d   1      -8.159  -2.856  11.672  0.00  0.00    -0.075 A 
ATOM      2  C5  EBE d   1      -7.373  -2.172  12.592  0.00  0.00    -0.072 A 
ATOM      3  C6  EBE d   1      -7.451  -2.423  13.973  0.00  0.00    -0.023 A 
ATOM      4  C3  EBE d   1      -9.063  -3.825  12.087  0.00  0.00    -0.040 A 
ATOM      5  C2  EBE d   1      -9.154  -4.090  13.454  0.00  0.00    -0.075 A 
ATOM      6  C1  EBE d   1      -8.366  -3.403  14.375  0.00  0.00    -0.072 A 
ATOM      7  H1  EBE d   1      -8.065  -2.630  10.616  0.00  0.00     0.084 H 
ATOM      8  H2  EBE d   1      -6.678  -1.421  12.233  0.00  0.00     0.084 H 
ATOM      9  H4  EBE d   1      -9.850  -4.843  13.805  0.00  0.00     0.084 H 
ATOM     10  H5  EBE d   1      -8.464  -3.633  15.430  0.00  0.00     0.084 H 
ENDROOT
BRANCH   4  11
ATOM     11  C13 EBE d   1      -9.884  -4.550  11.073  0.00  0.00     0.079 C 
ATOM     12  H8  EBE d   1      -9.862  -3.958  10.146  0.00  0.00     0.070 H 
BRANCH  11  13
ATOM     13  C14 EBE d   1      -9.367  -5.918  10.749  0.00  0.00    -0.002 A 
ATOM     14  C19 EBE d   1      -8.335  -6.562  11.453  0.00  0.00    -0.073 A 
ATOM     15  C18 EBE d   1      -7.926  -7.844  11.100  0.00  0.00    -0.082 A 
ATOM     16  H6  EBE d   1      -7.852  -6.054  12.280  0.00  0.00     0.084 H 
ATOM     17  C17 EBE d   1      -8.532  -8.503  10.040  0.00  0.00    -0.080 A 
ATOM     18  H9  EBE d   1      -7.131  -8.330  11.655  0.00  0.00     0.083 H 
ATOM     19  C16 EBE d   1      -9.562  -7.883   9.345  0.00  0.00    -0.045 A 
ATOM     20  H15 EBE d   1      -8.203  -9.496   9.756  0.00  0.00     0.083 H 
ATOM     21  C15 EBE d   1      -9.973  -6.602   9.690  0.00  0.00     0.123 A 
ATOM     22  H16 EBE d   1     -10.049  -8.402   8.527  0.00  0.00     0.088 H 
ATOM     23  F25 EBE d   1     -10.983  -6.039   8.988  0.00  0.00    -0.206 F 
ENDBRANCH  11  13
BRANCH  11  24
ATOM     24  C20 EBE d   1     -11.320  -4.653  11.537  0.00  0.00     0.254 C 
ATOM     25  O21 EBE d   1     -11.738  -5.672  12.071  0.00  0.00    -0.270 OA
ATOM     26  N22 EBE d   1     -12.110  -3.598  11.332  0.00  0.00    -0.237 N 
ATOM     27  H13 EBE d   1     -11.746  -2.783  10.882  0.00  0.00     0.197 HD
BRANCH  26  28
ATOM     28  O23 EBE d   1     -13.442  -3.629  11.744  0.00  0.00    -0.287 OA
ATOM     29  H14 EBE d   1     -13.860  -2.805  11.524  0.00  0.00     0.244 HD
ENDBRANCH  26  28
ENDBRANCH  11  24
ENDBRANCH   4  11
BRANCH   3  30
ATOM     30  C7  EBE d   1      -6.589  -1.674  14.969  0.00  0.00     0.009 A 
ATOM     31  C8  EBE d   1      -5.530  -0.835  14.565  0.00  0.00     0.016 A 
ATOM     32  N9  EBE d   1      -4.776  -0.180  15.468  0.00  0.00    -0.245 NA
ATOM     33  H3  EBE d   1      -5.319  -0.715  13.508  0.00  0.00     0.116 H 
ATOM     34  C10 EBE d   1      -5.002  -0.306  16.791  0.00  0.00     0.121 A 
ATOM     35  N11 EBE d   1      -6.012  -1.095  17.221  0.00  0.00    -0.245 NA
ATOM     36  C12 EBE d   1      -6.794  -1.768  16.359  0.00  0.00     0.016 A 
ATOM     37  H7  EBE d   1      -7.594  -2.392  16.740  0.00  0.00     0.116 H 
BRANCH  34  38
ATOM     38  C24 EBE d   1      -4.152   0.445  17.783  0.00  0.00    -0.020 C 
ATOM     39  H10 EBE d   1      -3.389   1.027  17.245  0.00  0.00     0.037 H 
ATOM     40  H11 EBE d   1      -3.659  -0.270  18.459  0.00  0.00     0.037 H 
ATOM     41  H12 EBE d   1      -4.787   1.126  18.369  0.00  0.00     0.037 H 
ENDBRANCH  34  38
ENDBRANCH   3  30
TORSDOF 6
