REMARK  4 active torsions:
REMARK  status: ('A' for Active; 'I' for Inactive)
REMARK    1  A    between atoms: C3_2  and  C16_13 
REMARK    2  A    between atoms: C12_7  and  O4_27 
REMARK    3  A    between atoms: C9_16  and  C13_9 
REMARK       I    between atoms: N3_23  and  C9_16 
REMARK    4  A    between atoms: N2_22  and  N3_23 
ROOT
ATOM      1  C2  EC8 d   1      19.918  29.669  62.819  0.00  0.00     0.133 A 
ATOM      2  C3  EC8 d   1      19.160  30.672  63.371  0.00  0.00     0.088 A 
ATOM      3  C4  EC8 d   1      19.753  31.830  63.876  0.00  0.00    -0.037 A 
ATOM      4  C5  EC8 d   1      21.133  31.950  63.818  0.00  0.00     0.065 A 
ATOM      5  C1  EC8 d   1      21.294  29.786  62.747  0.00  0.00    -0.015 A 
ATOM      6  C6  EC8 d   1      23.129  33.267  64.309  0.00  0.00     0.316 A 
ATOM      7  C7  EC8 d   1      23.959  32.147  63.699  0.00  0.00     0.335 A 
ATOM      8  C8  EC8 d   1      21.900  30.921  63.237  0.00  0.00     0.090 A 
ATOM      9  F1  EC8 d   1      19.378  28.565  62.295  0.00  0.00    -0.205 F 
ATOM     10  N1  EC8 d   1      21.823  33.049  64.329  0.00  0.00    -0.317 N 
ATOM     11  N2  EC8 d   1      23.269  31.057  63.218  0.00  0.00    -0.211 N 
ATOM     12  O1  EC8 d   1      23.685  34.281  64.768  0.00  0.00    -0.262 OA
ATOM     13  O2  EC8 d   1      25.169  32.284  63.588  0.00  0.00    -0.260 OA
ATOM     14  H1  EC8 d   1      19.147  32.620  64.305  0.00  0.00     0.088 H 
ATOM     15  H6  EC8 d   1      21.889  28.993  62.309  0.00  0.00     0.092 H 
ATOM     16  H7  EC8 d   1      21.265  33.757  64.762  0.00  0.00     0.169 HD
ENDROOT
BRANCH  11  17
ATOM     17  N3  EC8 d   1      24.050  30.032  62.602  0.00  0.00    -0.256 N 
ATOM     18  C9  EC8 d   1      24.773  29.281  63.440  0.00  0.00     0.273 C 
ATOM     19  O3  EC8 d   1      24.765  29.403  64.679  0.00  0.00    -0.266 OA
ATOM     20  H8  EC8 d   1      24.056  29.886  61.613  0.00  0.00     0.191 HD
BRANCH  18  21
ATOM     21  C13 EC8 d   1      25.600  28.207  62.794  0.00  0.00     0.066 A 
ATOM     22  C12 EC8 d   1      26.532  27.536  63.565  0.00  0.00     0.081 A 
ATOM     23  C11 EC8 d   1      27.295  26.523  62.991  0.00  0.00    -0.050 A 
ATOM     24  C10 EC8 d   1      27.121  26.169  61.656  0.00  0.00    -0.080 A 
ATOM     25  H3  EC8 d   1      28.034  26.004  63.591  0.00  0.00     0.087 H 
ATOM     26  C15 EC8 d   1      26.176  26.831  60.872  0.00  0.00    -0.082 A 
ATOM     27  H2  EC8 d   1      27.722  25.377  61.224  0.00  0.00     0.083 H 
ATOM     28  C14 EC8 d   1      25.385  27.842  61.456  0.00  0.00    -0.065 A 
ATOM     29  H4  EC8 d   1      26.051  26.572  59.827  0.00  0.00     0.083 H 
ATOM     30  H5  EC8 d   1      24.614  28.335  60.874  0.00  0.00     0.085 H 
BRANCH  22  31
ATOM     31  O4  EC8 d   1      26.737  27.842  64.885  0.00  0.00    -0.360 OA
ATOM     32  H9  EC8 d   1      25.929  27.714  65.368  0.00  0.00     0.217 HD
ENDBRANCH  22  31
ENDBRANCH  18  21
ENDBRANCH  11  17
BRANCH   2  33
ATOM     33  C16 EC8 d   1      17.664  30.463  63.432  0.00  0.00     0.420 C 
ATOM     34  F2  EC8 d   1      17.377  29.447  64.234  0.00  0.00    -0.166 F 
ATOM     35  F3  EC8 d   1      17.080  31.550  63.873  0.00  0.00    -0.166 F 
ATOM     36  F4  EC8 d   1      17.149  30.187  62.261  0.00  0.00    -0.166 F 
ENDBRANCH   2  33
TORSDOF 4
