REMARK  12 active torsions:
REMARK  status: ('A' for Active; 'I' for Inactive)
REMARK    1  A    between atoms: PB_1  and  O3A_5 
REMARK    2  A    between atoms: O3A_5  and  PA_6 
REMARK    3  A    between atoms: PA_6  and  O5'_9 
REMARK    4  A    between atoms: O5'_9  and  C5'_10 
REMARK    5  A    between atoms: C5'_10  and  C4'_11 
REMARK    6  A    between atoms: C3'_13  and  O3'_14 
REMARK    7  A    between atoms: O3'_14  and  PC_29 
REMARK    8  A    between atoms: C2'_15  and  O2'_16 
REMARK    9  A    between atoms: C1'_17  and  N9_18 
REMARK   10  A    between atoms: C2_25  and  N2_26 
REMARK   11  A    between atoms: PC_29  and  O3C_32 
REMARK   12  A    between atoms: O3C_32  and  PD_33 
ROOT
ATOM      1  C4' G4P d   1     -46.861 -33.687 145.325  0.00  0.00     0.090 C 
ATOM      2  O4' G4P d   1     -47.323 -33.759 143.950  0.00  0.00    -0.353 OA
ATOM      3  C3' G4P d   1     -47.577 -32.533 145.925  0.00  0.00     0.106 C 
ATOM      4  C2' G4P d   1     -48.734 -32.286 145.035  0.00  0.00     0.106 C 
ATOM      5  C1' G4P d   1     -48.246 -32.660 143.691  0.00  0.00     0.139 C 
ATOM      6  H3  G4P d   1     -45.776 -33.510 145.348  0.00  0.00     0.090 H 
ATOM      7  H4  G4P d   1     -47.893 -32.731 146.960  0.00  0.00     0.092 H 
ATOM      8  H5  G4P d   1     -49.596 -32.901 145.333  0.00  0.00     0.093 H 
ATOM      9  H7  G4P d   1     -47.719 -31.808 143.238  0.00  0.00     0.122 H 
ENDROOT
BRANCH   5  10
ATOM     10  N9  G4P d   1     -49.262 -33.094 142.792  0.00  0.00    -0.295 N 
ATOM     11  C8  G4P d   1     -50.077 -33.962 143.128  0.00  0.00     0.071 A 
ATOM     12  N7  G4P d   1     -50.931 -34.200 142.075  0.00  0.00    -0.234 NA
ATOM     13  H8  G4P d   1     -50.113 -34.456 144.098  0.00  0.00     0.144 H 
ATOM     14  C5  G4P d   1     -50.441 -33.283 140.999  0.00  0.00     0.171 A 
ATOM     15  C6  G4P d   1     -50.748 -32.942 139.678  0.00  0.00     0.292 A 
ATOM     16  C4  G4P d   1     -49.310 -32.602 141.633  0.00  0.00     0.161 A 
ATOM     17  O6  G4P d   1     -51.670 -33.491 139.096  0.00  0.00    -0.265 OA
ATOM     18  N1  G4P d   1     -50.024 -32.004 139.036  0.00  0.00    -0.154 N 
ATOM     19  C2  G4P d   1     -48.996 -31.400 139.659  0.00  0.00     0.680 A 
ATOM     20  H9  G4P d   1     -50.252 -31.756 138.094  0.00  0.00     0.187 HD
ATOM     21  N3  G4P d   1     -48.646 -31.691 140.907  0.00  0.00    -0.174 N 
ATOM     22  H12 G4P d   1     -47.843 -31.203 141.328  0.00  0.00     0.186 HD
BRANCH  19  23
ATOM     23  N2  G4P d   1     -48.248 -30.425 138.959  0.00  0.00    -0.234 N 
ATOM     24  H10 G4P d   1     -47.458 -29.953 139.421  0.00  0.00     0.174 HD
ATOM     25  H11 G4P d   1     -48.493 -30.187 137.987  0.00  0.00     0.174 HD
ENDBRANCH  19  23
ENDBRANCH   5  10
BRANCH   4  26
ATOM     26  O2' G4P d   1     -49.096 -30.911 145.034  0.00  0.00    -0.388 OA
ATOM     27  H6  G4P d   1     -48.361 -30.392 144.729  0.00  0.00     0.210 HD
ENDBRANCH   4  26
BRANCH   1  28
ATOM     28  C5' G4P d   1     -47.165 -34.963 146.074  0.00  0.00     0.058 C 
ATOM     29  H1  G4P d   1     -46.726 -35.822 145.545  0.00  0.00     0.079 H 
ATOM     30  H2  G4P d   1     -46.750 -34.908 147.091  0.00  0.00     0.079 H 
BRANCH  28  31
ATOM     31  O5' G4P d   1     -48.587 -35.103 146.135  0.00  0.00    -0.287 OA
BRANCH  31  32
ATOM     32  PA  G4P d   1     -49.206 -35.990 147.310  0.00  0.00     0.418 P 
ATOM     33  O1A G4P d   1     -50.688 -35.822 147.246  0.00  0.00    -0.624 OA
ATOM     34  O2A G4P d   1     -48.824 -35.426 148.636  0.00  0.00    -0.624 OA
BRANCH  32  35
ATOM     35  O3A G4P d   1     -48.686 -37.481 147.041  0.00  0.00    -0.173 OA
BRANCH  35  36
ATOM     36  PB  G4P d   1     -48.880 -38.789 147.950  0.00  0.00     0.431 P 
ATOM     37  O1B G4P d   1     -47.619 -39.079 148.864  0.00  0.00    -0.616 OA
ATOM     38  O2B G4P d   1     -50.102 -38.647 148.754  0.00  0.00    -0.616 OA
ATOM     39  O3B G4P d   1     -49.097 -39.923 147.009  0.00  0.00    -0.616 OA
ENDBRANCH  35  36
ENDBRANCH  32  35
ENDBRANCH  31  32
ENDBRANCH  28  31
ENDBRANCH   1  28
BRANCH   3  40
ATOM     40  O3' G4P d   1     -46.680 -31.404 145.853  0.00  0.00    -0.279 OA
BRANCH  40  41
ATOM     41  PC  G4P d   1     -45.728 -30.983 147.088  0.00  0.00     0.419 P 
ATOM     42  O1C G4P d   1     -44.392 -31.653 147.058  0.00  0.00    -0.624 OA
ATOM     43  O2C G4P d   1     -46.275 -31.414 148.385  0.00  0.00    -0.624 OA
BRANCH  41  44
ATOM     44  O3C G4P d   1     -45.592 -29.359 147.024  0.00  0.00    -0.173 OA
BRANCH  44  45
ATOM     45  PD  G4P d   1     -45.857 -28.552 145.646  0.00  0.00     0.431 P 
ATOM     46  O1D G4P d   1     -47.398 -28.668 145.217  0.00  0.00    -0.616 OA
ATOM     47  O2D G4P d   1     -44.960 -29.045 144.561  0.00  0.00    -0.616 OA
ATOM     48  O3D G4P d   1     -45.434 -27.139 145.772  0.00  0.00    -0.616 OA
ENDBRANCH  44  45
ENDBRANCH  41  44
ENDBRANCH  40  41
ENDBRANCH   3  40
TORSDOF 12
