REMARK  3 active torsions:
REMARK  status: ('A' for Active; 'I' for Inactive)
REMARK    1  A    between atoms: C4_1  and  C1_7 
REMARK    2  A    between atoms: C3_12  and  C5_2 
REMARK    3  A    between atoms: C2_11  and  C7_3 
ROOT
ATOM      1  C4  EH2 d   1      -1.630 -19.062  17.761  0.00  0.00     0.051 A 
ATOM      2  C7  EH2 d   1      -2.503 -18.466  16.813  0.00  0.00    -0.019 A 
ATOM      3  C13 EH2 d   1      -0.392 -18.464  18.018  0.00  0.00    -0.066 A 
ATOM      4  C15 EH2 d   1      -0.023 -17.295  17.366  0.00  0.00    -0.082 A 
ATOM      5  C14 EH2 d   1      -2.090 -17.301  16.148  0.00  0.00    -0.072 A 
ATOM      6  C16 EH2 d   1      -0.859 -16.729  16.424  0.00  0.00    -0.082 A 
ATOM      7  H3  EH2 d   1       0.285 -18.917  18.733  0.00  0.00     0.085 H 
ATOM      8  H4  EH2 d   1       0.926 -16.825  17.598  0.00  0.00     0.083 H 
ATOM      9  H6  EH2 d   1      -2.741 -16.844  15.411  0.00  0.00     0.084 H 
ATOM     10  H7  EH2 d   1      -0.550 -15.833  15.898  0.00  0.00     0.083 H 
ENDROOT
BRANCH   2  11
ATOM     11  C2  EH2 d   1      -3.809 -19.075  16.517  0.00  0.00    -0.071 C 
ATOM     12  C5  EH2 d   1      -5.006 -18.490  16.520  0.00  0.00    -0.066 C 
ATOM     13  H1  EH2 d   1      -5.028 -17.418  16.710  0.00  0.00     0.085 H 
ATOM     14  H8  EH2 d   1      -3.796 -20.134  16.264  0.00  0.00     0.084 H 
BRANCH  12  15
ATOM     15  C3  EH2 d   1      -6.280 -19.139  16.295  0.00  0.00     0.004 A 
ATOM     16  C9  EH2 d   1      -7.521 -18.514  16.296  0.00  0.00    -0.066 A 
ATOM     17  C11 EH2 d   1      -8.598 -19.439  16.070  0.00  0.00    -0.075 A 
ATOM     18  H9  EH2 d   1      -7.662 -17.445  16.450  0.00  0.00     0.085 H 
ATOM     19  C8  EH2 d   1      -8.157 -20.707  15.909  0.00  0.00    -0.044 A 
ATOM     20  H5  EH2 d   1      -9.648 -19.152  16.033  0.00  0.00     0.084 H 
ATOM     21  S6  EH2 d   1      -6.438 -20.832  16.002  0.00  0.00    -0.102 SA
ATOM     22  H2  EH2 d   1      -8.815 -21.558  15.739  0.00  0.00     0.095 H 
ENDBRANCH  12  15
ENDBRANCH   2  11
BRANCH   1  23
ATOM     23  C1  EH2 d   1      -1.978 -20.292  18.570  0.00  0.00     0.210 C 
ATOM     24  O10 EH2 d   1      -3.071 -20.311  19.178  0.00  0.00    -0.644 OA
ATOM     25  O12 EH2 d   1      -1.145 -21.228  18.612  0.00  0.00    -0.644 OA
ENDBRANCH   1  23
TORSDOF 3
