REMARK  4 active torsions:
REMARK  status: ('A' for Active; 'I' for Inactive)
REMARK    1  A    between atoms: C5_1  and  C13_5 
REMARK    2  A    between atoms: C8_2  and  C14_12 
REMARK    3  A    between atoms: C3_16  and  C11_10 
REMARK    4  A    between atoms: C1_11  and  C2_13 
ROOT
ATOM      1  C10 EHQ d   1      -3.235   6.935 -17.922  0.00  0.00     0.009 A 
ATOM      2  N9  EHQ d   1      -3.780   5.771 -18.215  0.00  0.00    -0.288 N 
ATOM      3  C1  EHQ d   1      -4.065   7.068 -20.004  0.00  0.00     0.104 A 
ATOM      4  N7  EHQ d   1      -4.279   5.828 -19.508  0.00  0.00    -0.174 NA
ATOM      5  C3  EHQ d   1      -3.385   7.792 -19.028  0.00  0.00     0.023 A 
ATOM      6  H1  EHQ d   1      -2.750   7.191 -16.981  0.00  0.00     0.115 H 
ATOM      7  H7  EHQ d   1      -3.827   4.955 -17.588  0.00  0.00     0.188 HD
ENDROOT
BRANCH   3   8
ATOM      8  C2  EHQ d   1      -4.489   7.483 -21.355  0.00  0.00     0.053 A 
ATOM      9  C5  EHQ d   1      -5.737   7.350 -21.915  0.00  0.00     0.089 A 
ATOM     10  O6  EHQ d   1      -5.636   7.819 -23.154  0.00  0.00    -0.217 OA
ATOM     11  N4  EHQ d   1      -4.502   8.210 -23.398  0.00  0.00    -0.132 NA
ATOM     12  C8  EHQ d   1      -3.704   8.065 -22.383  0.00  0.00     0.073 A 
BRANCH   9  13
ATOM     13  C13 EHQ d   1      -6.978   6.747 -21.293  0.00  0.00    -0.028 C 
ATOM     14  H2  EHQ d   1      -7.809   6.796 -22.012  0.00  0.00     0.036 H 
ATOM     15  H3  EHQ d   1      -7.244   7.309 -20.386  0.00  0.00     0.036 H 
ATOM     16  H4  EHQ d   1      -6.783   5.697 -21.030  0.00  0.00     0.036 H 
ENDBRANCH   9  13
BRANCH  12  17
ATOM     17  C14 EHQ d   1      -2.241   8.422 -22.311  0.00  0.00    -0.033 C 
ATOM     18  H9  EHQ d   1      -1.922   8.857 -23.270  0.00  0.00     0.035 H 
ATOM     19  H10 EHQ d   1      -1.652   7.516 -22.105  0.00  0.00     0.035 H 
ATOM     20  H11 EHQ d   1      -2.081   9.154 -21.506  0.00  0.00     0.035 H 
ENDBRANCH  12  17
ENDBRANCH   3   8
BRANCH   5  21
ATOM     21  C11 EHQ d   1      -2.893   9.185 -19.122  0.00  0.00    -0.019 A 
ATOM     22  C17 EHQ d   1      -1.567   9.470 -18.765  0.00  0.00    -0.055 A 
ATOM     23  C15 EHQ d   1      -1.087  10.752 -18.955  0.00  0.00     0.003 A 
ATOM     24  H6  EHQ d   1      -0.930   8.699 -18.348  0.00  0.00     0.087 H 
ATOM     25  N12 EHQ d   1      -1.874  11.720 -19.416  0.00  0.00    -0.273 NA
ATOM     26  H5  EHQ d   1      -0.051  10.972 -18.724  0.00  0.00     0.114 H 
ATOM     27  C16 EHQ d   1      -3.138  11.494 -19.760  0.00  0.00     0.003 A 
ATOM     28  C18 EHQ d   1      -3.676  10.221 -19.650  0.00  0.00    -0.055 A 
ATOM     29  H12 EHQ d   1      -3.751  12.309 -20.128  0.00  0.00     0.114 H 
ATOM     30  H8  EHQ d   1      -4.694  10.028 -19.970  0.00  0.00     0.087 H 
ENDBRANCH   5  21
TORSDOF 4
