REMARK  3 active torsions:
REMARK  status: ('A' for Active; 'I' for Inactive)
REMARK    1  A    between atoms: C9_15  and  C4_2 
REMARK    2  A    between atoms: C5_3  and  C13_6 
REMARK    3  A    between atoms: N2_10  and  C7_5 
ROOT
ATOM      1  N1  EHE d   1      -4.300   7.612 -20.691  0.00  0.00    -0.168 NA
ATOM      2  C4  EHE d   1      -3.699   7.795 -19.534  0.00  0.00     0.093 A 
ATOM      3  C5  EHE d   1      -3.886   6.875 -18.466  0.00  0.00    -0.025 A 
ATOM      4  C6  EHE d   1      -4.697   5.788 -18.696  0.00  0.00    -0.008 A 
ATOM      5  N2  EHE d   1      -5.064   6.590 -20.934  0.00  0.00    -0.229 N 
ATOM      6  O8  EHE d   1      -6.019   4.682 -20.202  0.00  0.00    -0.267 OA
ATOM      7  C3  EHE d   1      -5.293   5.651 -19.980  0.00  0.00     0.264 A 
ATOM      8  H1  EHE d   1      -4.878   5.051 -17.915  0.00  0.00     0.093 H 
ENDROOT
BRANCH   5   9
ATOM      9  C7  EHE d   1      -5.684   6.467 -22.277  0.00  0.00     0.041 C 
ATOM     10  C11 EHE d   1      -6.999   7.269 -22.309  0.00  0.00    -0.021 C 
ATOM     11  C15 EHE d   1      -7.645   7.251 -23.706  0.00  0.00     0.084 C 
ATOM     12  H11 EHE d   1      -6.787   8.311 -22.028  0.00  0.00     0.038 H 
ATOM     13  H12 EHE d   1      -7.702   6.830 -21.586  0.00  0.00     0.038 H 
ATOM     14  N10 EHE d   1      -6.686   7.712 -24.726  0.00  0.00    -0.075 N 
ATOM     15  H6  EHE d   1      -8.522   7.915 -23.708  0.00  0.00     0.075 H 
ATOM     16  H7  EHE d   1      -7.962   6.225 -23.945  0.00  0.00     0.075 H 
ATOM     17  C14 EHE d   1      -5.472   6.877 -24.761  0.00  0.00     0.084 C 
ATOM     18  H14 EHE d   1      -6.421   8.662 -24.518  0.00  0.00     0.277 HD
ATOM     19  H15 EHE d   1      -7.131   7.677 -25.630  0.00  0.00     0.277 HD
ATOM     20  C12 EHE d   1      -4.739   6.920 -23.408  0.00  0.00    -0.021 C 
ATOM     21  H19 EHE d   1      -4.800   7.251 -25.547  0.00  0.00     0.075 H 
ATOM     22  H20 EHE d   1      -5.755   5.838 -24.985  0.00  0.00     0.075 H 
ATOM     23  H16 EHE d   1      -3.868   6.249 -23.445  0.00  0.00     0.038 H 
ATOM     24  H17 EHE d   1      -4.402   7.948 -23.210  0.00  0.00     0.038 H 
ATOM     25  H2  EHE d   1      -5.922   5.406 -22.445  0.00  0.00     0.076 H 
ENDBRANCH   5   9
BRANCH   2  26
ATOM     26  C9  EHE d   1      -2.847   8.996 -19.370  0.00  0.00    -0.005 A 
ATOM     27  C17 EHE d   1      -1.457   8.876 -19.272  0.00  0.00    -0.071 A 
ATOM     28  C18 EHE d   1      -0.676  10.016 -19.144  0.00  0.00    -0.082 A 
ATOM     29  H8  EHE d   1      -0.992   7.897 -19.296  0.00  0.00     0.084 H 
ATOM     30  C20 EHE d   1      -1.264  11.269 -19.118  0.00  0.00    -0.083 A 
ATOM     31  H10 EHE d   1       0.401   9.925 -19.064  0.00  0.00     0.083 H 
ATOM     32  C19 EHE d   1      -2.639  11.382 -19.199  0.00  0.00    -0.082 A 
ATOM     33  H9  EHE d   1      -0.649  12.158 -19.035  0.00  0.00     0.083 H 
ATOM     34  C16 EHE d   1      -3.432  10.255 -19.318  0.00  0.00    -0.071 A 
ATOM     35  H18 EHE d   1      -3.100  12.363 -19.169  0.00  0.00     0.083 H 
ATOM     36  H13 EHE d   1      -4.510  10.354 -19.371  0.00  0.00     0.084 H 
ENDBRANCH   2  26
BRANCH   3  37
ATOM     37  C13 EHE d   1      -3.238   7.081 -17.119  0.00  0.00    -0.049 C 
ATOM     38  H3  EHE d   1      -2.634   8.000 -17.140  0.00  0.00     0.033 H 
ATOM     39  H4  EHE d   1      -2.591   6.222 -16.888  0.00  0.00     0.033 H 
ATOM     40  H5  EHE d   1      -4.017   7.171 -16.347  0.00  0.00     0.033 H 
ENDBRANCH   3  37
TORSDOF 3
