REMARK  3 active torsions:
REMARK  status: ('A' for Active; 'I' for Inactive)
REMARK    1  A    between atoms: C8_2  and  C9_15 
REMARK    2  A    between atoms: N6_13  and  C15_6 
REMARK    3  A    between atoms: C2_10  and  C1_9 
ROOT
ATOM      1  C4  EHK d   1      -4.837   5.790 -20.530  0.00  0.00     0.242 A 
ATOM      2  C8  EHK d   1      -3.486   8.168 -19.999  0.00  0.00     0.061 A 
ATOM      3  C2  EHK d   1      -3.556   7.148 -18.947  0.00  0.00    -0.046 A 
ATOM      4  C3  EHK d   1      -4.242   6.019 -19.246  0.00  0.00     0.033 A 
ATOM      5  O5  EHK d   1      -5.423   4.758 -20.849  0.00  0.00    -0.271 OA
ATOM      6  N6  EHK d   1      -4.688   6.812 -21.449  0.00  0.00    -0.256 N 
ATOM      7  N7  EHK d   1      -4.028   7.988 -21.170  0.00  0.00    -0.295 N 
ATOM      8  H11 EHK d   1      -3.543   5.186 -19.082  0.00  0.00     0.054 H 
ATOM      9  H12 EHK d   1      -5.062   5.959 -18.515  0.00  0.00     0.054 H 
ATOM     10  H13 EHK d   1      -3.963   8.725 -21.887  0.00  0.00     0.187 HD
ENDROOT
BRANCH   6  11
ATOM     11  C15 EHK d   1      -5.301   6.761 -22.795  0.00  0.00     0.038 C 
ATOM     12  C20 EHK d   1      -6.485   7.724 -22.877  0.00  0.00    -0.022 C 
ATOM     13  C19 EHK d   1      -7.085   7.711 -24.270  0.00  0.00     0.084 C 
ATOM     14  H6  EHK d   1      -6.141   8.742 -22.641  0.00  0.00     0.038 H 
ATOM     15  H7  EHK d   1      -7.252   7.418 -22.150  0.00  0.00     0.038 H 
ATOM     16  N18 EHK d   1      -6.045   8.031 -25.289  0.00  0.00    -0.075 N 
ATOM     17  H20 EHK d   1      -7.888   8.460 -24.325  0.00  0.00     0.075 H 
ATOM     18  H21 EHK d   1      -7.499   6.713 -24.477  0.00  0.00     0.075 H 
ATOM     19  C17 EHK d   1      -4.907   7.068 -25.244  0.00  0.00     0.084 C 
ATOM     20  H18 EHK d   1      -6.465   7.997 -26.205  0.00  0.00     0.277 HD
ATOM     21  H19 EHK d   1      -5.693   8.960 -25.115  0.00  0.00     0.277 HD
ATOM     22  C16 EHK d   1      -4.262   7.072 -23.871  0.00  0.00    -0.022 C 
ATOM     23  H4  EHK d   1      -5.279   6.057 -25.466  0.00  0.00     0.075 H 
ATOM     24  H5  EHK d   1      -4.159   7.357 -25.997  0.00  0.00     0.075 H 
ATOM     25  H16 EHK d   1      -3.469   6.310 -23.841  0.00  0.00     0.038 H 
ATOM     26  H17 EHK d   1      -3.826   8.063 -23.678  0.00  0.00     0.038 H 
ATOM     27  H3  EHK d   1      -5.676   5.741 -22.965  0.00  0.00     0.076 H 
ENDBRANCH   6  11
BRANCH   2  28
ATOM     28  C9  EHK d   1      -2.823   9.480 -19.820  0.00  0.00    -0.005 A 
ATOM     29  C10 EHK d   1      -1.456   9.577 -19.582  0.00  0.00    -0.054 A 
ATOM     30  C11 EHK d   1      -0.880  10.833 -19.516  0.00  0.00     0.003 A 
ATOM     31  H1  EHK d   1      -0.854   8.685 -19.451  0.00  0.00     0.087 H 
ATOM     32  N12 EHK d   1      -1.570  11.972 -19.650  0.00  0.00    -0.273 NA
ATOM     33  H14 EHK d   1       0.189  10.898 -19.346  0.00  0.00     0.114 H 
ATOM     34  C13 EHK d   1      -2.872  11.863 -19.937  0.00  0.00     0.003 A 
ATOM     35  C14 EHK d   1      -3.539  10.655 -20.020  0.00  0.00    -0.054 A 
ATOM     36  H2  EHK d   1      -3.435  12.772 -20.114  0.00  0.00     0.114 H 
ATOM     37  H15 EHK d   1      -4.601  10.624 -20.237  0.00  0.00     0.087 H 
ENDBRANCH   2  28
BRANCH   3  38
ATOM     38  C1  EHK d   1      -2.994   7.354 -17.566  0.00  0.00    -0.052 C 
ATOM     39  H8  EHK d   1      -3.168   6.452 -16.961  0.00  0.00     0.033 H 
ATOM     40  H9  EHK d   1      -3.490   8.214 -17.093  0.00  0.00     0.033 H 
ATOM     41  H10 EHK d   1      -1.913   7.547 -17.635  0.00  0.00     0.033 H 
ENDBRANCH   3  38
TORSDOF 3
