REMARK  3 active torsions:
REMARK  status: ('A' for Active; 'I' for Inactive)
REMARK    1  A    between atoms: N1_1  and  C13_9 
REMARK    2  A    between atoms: C4_3  and  C6_5 
REMARK    3  A    between atoms: C5_4  and  C7_6 
ROOT
ATOM      1  N1  EH8 d   1      -3.439   7.217 -18.750  0.00  0.00    -0.343 N 
ATOM      2  N3  EH8 d   1      -4.560   6.205 -20.379  0.00  0.00    -0.241 NA
ATOM      3  C4  EH8 d   1      -4.169   7.456 -20.841  0.00  0.00     0.096 A 
ATOM      4  C5  EH8 d   1      -3.442   8.111 -19.869  0.00  0.00     0.075 A 
ATOM      5  C2  EH8 d   1      -4.105   6.111 -19.156  0.00  0.00     0.067 A 
ATOM      6  H8  EH8 d   1      -4.248   5.232 -18.529  0.00  0.00     0.143 H 
ENDROOT
BRANCH   3   7
ATOM      7  C6  EH8 d   1      -4.528   7.877 -22.213  0.00  0.00    -0.005 A 
ATOM      8  C8  EH8 d   1      -5.838   7.734 -22.681  0.00  0.00    -0.071 A 
ATOM      9  C9  EH8 d   1      -6.170   8.122 -23.970  0.00  0.00    -0.082 A 
ATOM     10  H1  EH8 d   1      -6.599   7.317 -22.032  0.00  0.00     0.084 H 
ATOM     11  C10 EH8 d   1      -5.206   8.655 -24.808  0.00  0.00    -0.083 A 
ATOM     12  H9  EH8 d   1      -7.189   8.008 -24.323  0.00  0.00     0.083 H 
ATOM     13  C11 EH8 d   1      -3.904   8.796 -24.356  0.00  0.00    -0.082 A 
ATOM     14  H2  EH8 d   1      -5.469   8.961 -25.814  0.00  0.00     0.083 H 
ATOM     15  C12 EH8 d   1      -3.563   8.409 -23.070  0.00  0.00    -0.071 A 
ATOM     16  H10 EH8 d   1      -3.148   9.211 -25.012  0.00  0.00     0.083 H 
ATOM     17  H11 EH8 d   1      -2.541   8.520 -22.727  0.00  0.00     0.084 H 
ENDBRANCH   3   7
BRANCH   4  18
ATOM     18  C7  EH8 d   1      -2.836   9.460 -19.850  0.00  0.00    -0.004 A 
ATOM     19  C14 EH8 d   1      -3.573  10.579 -20.250  0.00  0.00    -0.054 A 
ATOM     20  C15 EH8 d   1      -2.967  11.820 -20.220  0.00  0.00     0.003 A 
ATOM     21  H12 EH8 d   1      -4.601  10.475 -20.578  0.00  0.00     0.087 H 
ATOM     22  N16 EH8 d   1      -1.712  12.021 -19.800  0.00  0.00    -0.273 NA
ATOM     23  H6  EH8 d   1      -3.539  12.678 -20.555  0.00  0.00     0.114 H 
ATOM     24  C17 EH8 d   1      -1.008  10.940 -19.437  0.00  0.00     0.003 A 
ATOM     25  C18 EH8 d   1      -1.522   9.654 -19.439  0.00  0.00    -0.054 A 
ATOM     26  H7  EH8 d   1       0.021  11.080 -19.125  0.00  0.00     0.114 H 
ATOM     27  H13 EH8 d   1      -0.911   8.815 -19.126  0.00  0.00     0.087 H 
ENDBRANCH   4  18
BRANCH   1  28
ATOM     28  C13 EH8 d   1      -2.839   7.427 -17.435  0.00  0.00    -0.013 C 
ATOM     29  H3  EH8 d   1      -3.018   6.543 -16.805  0.00  0.00     0.057 H 
ATOM     30  H4  EH8 d   1      -3.292   8.311 -16.962  0.00  0.00     0.057 H 
ATOM     31  H5  EH8 d   1      -1.756   7.585 -17.547  0.00  0.00     0.057 H 
ENDBRANCH   1  28
TORSDOF 3
