REMARK  5 active torsions:
REMARK  status: ('A' for Active; 'I' for Inactive)
REMARK    1  A    between atoms: C6_4  and  C7_5 
REMARK    2  A    between atoms: C8_6  and  C13_8 
REMARK    3  A    between atoms: C17_9  and  C19_19 
REMARK    4  A    between atoms: N11_13  and  C12_14 
REMARK    5  A    between atoms: C14_15  and  C18_18 
ROOT
ATOM      1  C7  EHT d   1      -3.359   8.046 -19.835  0.00  0.00     0.075 A 
ATOM      2  C8  EHT d   1      -4.000   7.354 -20.853  0.00  0.00     0.100 A 
ATOM      3  C10 EHT d   1      -3.940   6.020 -19.173  0.00  0.00     0.067 A 
ATOM      4  N9  EHT d   1      -4.349   6.083 -20.420  0.00  0.00    -0.241 NA
ATOM      5  N11 EHT d   1      -3.279   7.125 -18.763  0.00  0.00    -0.343 N 
ATOM      6  H3  EHT d   1      -4.117   5.159 -18.531  0.00  0.00     0.143 H 
ENDROOT
BRANCH   2   7
ATOM      7  C13 EHT d   1      -4.375   7.802 -22.177  0.00  0.00     0.053 A 
ATOM      8  C17 EHT d   1      -3.558   8.415 -23.184  0.00  0.00     0.073 A 
ATOM      9  N16 EHT d   1      -4.254   8.690 -24.250  0.00  0.00    -0.132 NA
ATOM     10  O15 EHT d   1      -5.573   8.243 -23.988  0.00  0.00    -0.217 OA
ATOM     11  C14 EHT d   1      -5.625   7.746 -22.738  0.00  0.00     0.089 A 
BRANCH   8  12
ATOM     12  C19 EHT d   1      -2.103   8.750 -23.156  0.00  0.00    -0.033 C 
ATOM     13  H12 EHT d   1      -1.815   9.215 -24.110  0.00  0.00     0.035 H 
ATOM     14  H13 EHT d   1      -1.518   7.831 -23.005  0.00  0.00     0.035 H 
ATOM     15  H14 EHT d   1      -1.904   9.451 -22.332  0.00  0.00     0.035 H 
ENDBRANCH   8  12
BRANCH  11  16
ATOM     16  C18 EHT d   1      -6.946   7.238 -22.292  0.00  0.00    -0.028 C 
ATOM     17  H9  EHT d   1      -7.689   7.403 -23.086  0.00  0.00     0.036 H 
ATOM     18  H10 EHT d   1      -7.256   7.772 -21.382  0.00  0.00     0.036 H 
ATOM     19  H11 EHT d   1      -6.872   6.162 -22.078  0.00  0.00     0.036 H 
ENDBRANCH  11  16
ENDBRANCH   2   7
BRANCH   1  20
ATOM     20  C6  EHT d   1      -2.775   9.404 -19.802  0.00  0.00    -0.004 A 
ATOM     21  C5  EHT d   1      -1.437   9.601 -19.476  0.00  0.00    -0.054 A 
ATOM     22  C4  EHT d   1      -0.931  10.889 -19.483  0.00  0.00     0.003 A 
ATOM     23  H2  EHT d   1      -0.802   8.760 -19.221  0.00  0.00     0.087 H 
ATOM     24  N3  EHT d   1      -1.654  11.967 -19.812  0.00  0.00    -0.273 NA
ATOM     25  H1  EHT d   1       0.107  11.033 -19.207  0.00  0.00     0.114 H 
ATOM     26  C2  EHT d   1      -2.936  11.762 -20.149  0.00  0.00     0.003 A 
ATOM     27  C1  EHT d   1      -3.534  10.515 -20.164  0.00  0.00    -0.054 A 
ATOM     28  H5  EHT d   1      -3.537  12.621 -20.425  0.00  0.00     0.114 H 
ATOM     29  H4  EHT d   1      -4.573  10.404 -20.452  0.00  0.00     0.087 H 
ENDBRANCH   1  20
BRANCH   5  30
ATOM     30  C12 EHT d   1      -2.720   7.346 -17.433  0.00  0.00    -0.013 C 
ATOM     31  H6  EHT d   1      -2.241   8.336 -17.396  0.00  0.00     0.057 H 
ATOM     32  H7  EHT d   1      -1.973   6.569 -17.216  0.00  0.00     0.057 H 
ATOM     33  H8  EHT d   1      -3.525   7.300 -16.685  0.00  0.00     0.057 H 
ENDBRANCH   5  30
TORSDOF 5
