REMARK  7 active torsions:
REMARK  status: ('A' for Active; 'I' for Inactive)
REMARK    1  A    between atoms: N1_1  and  C6_3 
REMARK    2  A    between atoms: C2_17  and  C7_4 
REMARK    3  A    between atoms: C3_18  and  C8_5 
REMARK    4  A    between atoms: C18_15  and  C20_10 
REMARK    5  A    between atoms: C16_14  and  C21_11 
REMARK    6  A    between atoms: C21_11  and  N22_21 
REMARK    7  A    between atoms: C14_13  and  C19_16 
ROOT
ATOM      1  C8  EHH d   1      -4.430   7.731 -22.219  0.00  0.00     0.007 A 
ATOM      2  C15 EHH d   1      -3.829   8.507 -24.422  0.00  0.00    -0.069 A 
ATOM      3  C17 EHH d   1      -6.122   8.143 -23.886  0.00  0.00    -0.069 A 
ATOM      4  C14 EHH d   1      -3.433   8.110 -23.149  0.00  0.00    -0.048 A 
ATOM      5  C16 EHH d   1      -5.159   8.523 -24.813  0.00  0.00    -0.032 A 
ATOM      6  C18 EHH d   1      -5.791   7.734 -22.596  0.00  0.00    -0.048 A 
ATOM      7  H7  EHH d   1      -3.071   8.815 -25.133  0.00  0.00     0.085 H 
ATOM      8  H8  EHH d   1      -7.166   8.166 -24.176  0.00  0.00     0.085 H 
ENDROOT
BRANCH   1   9
ATOM      9  C3  EHH d   1      -4.043   7.265 -20.860  0.00  0.00     0.097 A 
ATOM     10  C2  EHH d   1      -3.430   7.926 -19.813  0.00  0.00     0.075 A 
ATOM     11  N1  EHH d   1      -3.333   6.970 -18.778  0.00  0.00    -0.343 N 
ATOM     12  C5  EHH d   1      -3.935   5.852 -19.244  0.00  0.00     0.067 A 
ATOM     13  N4  EHH d   1      -4.338   5.959 -20.488  0.00  0.00    -0.241 NA
ATOM     14  H1  EHH d   1      -4.072   4.952 -18.646  0.00  0.00     0.143 H 
BRANCH  10  15
ATOM     15  C7  EHH d   1      -2.888   9.300 -19.723  0.00  0.00    -0.004 A 
ATOM     16  C13 EHH d   1      -1.562   9.528 -19.365  0.00  0.00    -0.054 A 
ATOM     17  C12 EHH d   1      -1.096  10.829 -19.335  0.00  0.00     0.003 A 
ATOM     18  H6  EHH d   1      -0.907   8.701 -19.115  0.00  0.00     0.087 H 
ATOM     19  N11 EHH d   1      -1.845  11.893 -19.652  0.00  0.00    -0.273 NA
ATOM     20  H14 EHH d   1      -0.067  10.997 -19.038  0.00  0.00     0.114 H 
ATOM     21  C10 EHH d   1      -3.114  11.659 -20.014  0.00  0.00     0.003 A 
ATOM     22  C9  EHH d   1      -3.667  10.394 -20.089  0.00  0.00    -0.054 A 
ATOM     23  H5  EHH d   1      -3.741  12.508 -20.262  0.00  0.00     0.114 H 
ATOM     24  H18 EHH d   1      -4.688  10.257 -20.427  0.00  0.00     0.087 H 
ENDBRANCH  10  15
BRANCH  11  25
ATOM     25  C6  EHH d   1      -2.785   7.151 -17.435  0.00  0.00    -0.013 C 
ATOM     26  H2  EHH d   1      -2.861   6.206 -16.878  0.00  0.00     0.057 H 
ATOM     27  H3  EHH d   1      -3.353   7.933 -16.910  0.00  0.00     0.057 H 
ATOM     28  H4  EHH d   1      -1.729   7.451 -17.507  0.00  0.00     0.057 H 
ENDBRANCH  11  25
ENDBRANCH   1   9
BRANCH   4  29
ATOM     29  C19 EHH d   1      -1.963   8.140 -22.823  0.00  0.00    -0.050 C 
ATOM     30  H15 EHH d   1      -1.810   7.801 -21.788  0.00  0.00     0.033 H 
ATOM     31  H16 EHH d   1      -1.584   9.167 -22.932  0.00  0.00     0.033 H 
ATOM     32  H17 EHH d   1      -1.421   7.474 -23.511  0.00  0.00     0.033 H 
ENDBRANCH   4  29
BRANCH   6  33
ATOM     33  C20 EHH d   1      -6.906   7.354 -21.655  0.00  0.00    -0.050 C 
ATOM     34  H9  EHH d   1      -6.482   7.057 -20.685  0.00  0.00     0.033 H 
ATOM     35  H10 EHH d   1      -7.474   6.513 -22.080  0.00  0.00     0.033 H 
ATOM     36  H11 EHH d   1      -7.576   8.215 -21.514  0.00  0.00     0.033 H 
ENDBRANCH   6  33
BRANCH   5  37
ATOM     37  C21 EHH d   1      -5.543   8.932 -26.208  0.00  0.00     0.103 C 
ATOM     38  H12 EHH d   1      -4.814   9.670 -26.574  0.00  0.00     0.082 H 
ATOM     39  H13 EHH d   1      -6.544   9.387 -26.181  0.00  0.00     0.082 H 
BRANCH  37  40
ATOM     40  N22 EHH d   1      -5.567   7.779 -27.144  0.00  0.00    -0.075 N 
ATOM     41  H19 EHH d   1      -5.828   8.098 -28.064  0.00  0.00     0.274 HD
ATOM     42  H20 EHH d   1      -6.237   7.098 -26.822  0.00  0.00     0.274 HD
ATOM     43  H21 EHH d   1      -4.652   7.358 -27.182  0.00  0.00     0.274 HD
ENDBRANCH  37  40
ENDBRANCH   5  37
TORSDOF 7
