REMARK  5 active torsions:
REMARK  status: ('A' for Active; 'I' for Inactive)
REMARK    1  A    between atoms: C11_10  and  C10_5 
REMARK    2  A    between atoms: C12_11  and  C17_6 
REMARK    3  A    between atoms: C21_7  and  C23_16 
REMARK    4  A    between atoms: C18_14  and  C22_8 
REMARK    5  A    between atoms: N15_21  and  C16_13 
ROOT
ATOM      1  C11 EHW d   1      -3.358   7.904 -19.619  0.00  0.00     0.076 A 
ATOM      2  C12 EHW d   1      -4.101   7.205 -20.551  0.00  0.00     0.100 A 
ATOM      3  C14 EHW d   1      -3.978   5.943 -18.831  0.00  0.00     0.067 A 
ATOM      4  N13 EHW d   1      -4.465   5.965 -20.051  0.00  0.00    -0.241 NA
ATOM      5  N15 EHW d   1      -3.274   7.058 -18.508  0.00  0.00    -0.343 N 
ATOM      6  H7  EHW d   1      -4.125   5.110 -18.145  0.00  0.00     0.143 H 
ENDROOT
BRANCH   1   7
ATOM      7  C10 EHW d   1      -2.800   9.273 -19.658  0.00  0.00     0.007 A 
ATOM      8  C5  EHW d   1      -1.391   9.514 -19.625  0.00  0.00     0.005 A 
ATOM      9  C4  EHW d   1      -0.398   8.500 -19.629  0.00  0.00    -0.067 A 
ATOM     10  C6  EHW d   1      -0.972  10.872 -19.673  0.00  0.00     0.070 A 
ATOM     11  C1  EHW d   1       0.929   8.815 -19.610  0.00  0.00    -0.045 A 
ATOM     12  H1  EHW d   1      -0.699   7.459 -19.647  0.00  0.00     0.085 H 
ATOM     13  C2  EHW d   1       1.301  10.143 -19.598  0.00  0.00     0.118 A 
ATOM     14  H6  EHW d   1       1.680   8.033 -19.604  0.00  0.00     0.088 H 
ATOM     15  C3  EHW d   1       0.411  11.171 -19.637  0.00  0.00    -0.017 A 
ATOM     16  F24 EHW d   1       2.630  10.426 -19.521  0.00  0.00    -0.206 F 
ATOM     17  H14 EHW d   1       0.754  12.199 -19.640  0.00  0.00     0.091 H 
ATOM     18  N7  EHW d   1      -1.859  11.924 -19.680  0.00  0.00    -0.260 NA
ATOM     19  C8  EHW d   1      -3.150  11.630 -19.724  0.00  0.00     0.004 A 
ATOM     20  C9  EHW d   1      -3.666  10.342 -19.725  0.00  0.00    -0.053 A 
ATOM     21  H2  EHW d   1      -3.853  12.454 -19.762  0.00  0.00     0.114 H 
ATOM     22  H15 EHW d   1      -4.736  10.179 -19.778  0.00  0.00     0.087 H 
ENDBRANCH   1   7
BRANCH   2  23
ATOM     23  C17 EHW d   1      -4.516   7.583 -21.911  0.00  0.00     0.053 A 
ATOM     24  C21 EHW d   1      -3.702   8.060 -22.986  0.00  0.00     0.073 A 
ATOM     25  N20 EHW d   1      -4.420   8.313 -24.042  0.00  0.00    -0.132 NA
ATOM     26  O19 EHW d   1      -5.761   7.970 -23.699  0.00  0.00    -0.217 OA
ATOM     27  C18 EHW d   1      -5.786   7.546 -22.422  0.00  0.00     0.089 A 
BRANCH  24  28
ATOM     28  C23 EHW d   1      -2.232   8.325 -23.013  0.00  0.00    -0.033 C 
ATOM     29  H11 EHW d   1      -1.943   8.686 -24.011  0.00  0.00     0.035 H 
ATOM     30  H12 EHW d   1      -1.688   7.396 -22.788  0.00  0.00     0.035 H 
ATOM     31  H13 EHW d   1      -1.983   9.088 -22.261  0.00  0.00     0.035 H 
ENDBRANCH  24  28
BRANCH  27  32
ATOM     32  C22 EHW d   1      -7.110   7.140 -21.888  0.00  0.00    -0.028 C 
ATOM     33  H3  EHW d   1      -7.877   7.279 -22.664  0.00  0.00     0.036 H 
ATOM     34  H4  EHW d   1      -7.358   7.759 -21.013  0.00  0.00     0.036 H 
ATOM     35  H5  EHW d   1      -7.077   6.081 -21.591  0.00  0.00     0.036 H 
ENDBRANCH  27  32
ENDBRANCH   2  23
BRANCH   5  36
ATOM     36  C16 EHW d   1      -2.655   7.328 -17.214  0.00  0.00    -0.013 C 
ATOM     37  H8  EHW d   1      -2.153   8.306 -17.245  0.00  0.00     0.057 H 
ATOM     38  H9  EHW d   1      -1.917   6.544 -16.990  0.00  0.00     0.057 H 
ATOM     39  H10 EHW d   1      -3.429   7.337 -16.432  0.00  0.00     0.057 H 
ENDBRANCH   5  36
TORSDOF 5
