REMARK  7 active torsions:
REMARK  status: ('A' for Active; 'I' for Inactive)
REMARK    1  A    between atoms: N9_17  and  C1'_2 
REMARK    2  A    between atoms: C18_8  and  P2_5 
REMARK    3  A    between atoms: S1_9  and  C18_8 
REMARK    4  A    between atoms: C17_10  and  S1_9 
REMARK    5  A    between atoms: C5_11  and  C17_10 
REMARK    6  A    between atoms: CAB_24  and  P_25 
REMARK    7  A    between atoms: CAB_24  and  C2_29 
ROOT
ATOM      1  C2' EJ8 d   1      -5.136  27.293  28.264  0.00  0.00     0.003 C 
ATOM      2  C1' EJ8 d   1      -3.641  27.690  28.044  0.00  0.00     0.116 C 
ATOM      3  O4' EJ8 d   1      -2.977  27.563  29.269  0.00  0.00    -0.356 OA
ATOM      4  C3' EJ8 d   1      -5.167  26.800  29.695  0.00  0.00     0.074 C 
ATOM      5  O3' EJ8 d   1      -4.956  25.383  29.628  0.00  0.00    -0.332 OA
ATOM      6  C4' EJ8 d   1      -3.972  27.518  30.314  0.00  0.00     0.087 C 
ATOM      7  C5' EJ8 d   1      -3.341  26.820  31.455  0.00  0.00     0.050 C 
ATOM      8  O7  EJ8 d   1      -3.270  25.340  31.229  0.00  0.00    -0.338 OA
ATOM      9  CAB EJ8 d   1      -4.485  24.724  30.827  0.00  0.00     0.312 C 
ATOM     10  H1  EJ8 d   1      -5.437  26.497  27.568  0.00  0.00     0.043 H 
ATOM     11  H2  EJ8 d   1      -5.796  28.163  28.134  0.00  0.00     0.043 H 
ATOM     12  H3  EJ8 d   1      -3.598  28.754  27.767  0.00  0.00     0.118 H 
ATOM     13  H10 EJ8 d   1      -6.106  27.040  30.215  0.00  0.00     0.087 H 
ATOM     14  H11 EJ8 d   1      -4.272  28.529  30.626  0.00  0.00     0.090 H 
ATOM     15  H12 EJ8 d   1      -3.932  27.014  32.362  0.00  0.00     0.078 H 
ATOM     16  H13 EJ8 d   1      -2.321  27.209  31.591  0.00  0.00     0.078 H 
ENDROOT
BRANCH   2  17
ATOM     17  N9  EJ8 d   1      -3.090  26.909  26.859  0.00  0.00    -0.282 N 
ATOM     18  C4  EJ8 d   1      -3.755  25.721  26.313  0.00  0.00    -0.001 A 
ATOM     19  C5  EJ8 d   1      -3.269  25.032  25.222  0.00  0.00     0.035 A 
ATOM     20  H8  EJ8 d   1      -4.669  25.369  26.788  0.00  0.00     0.113 H 
ATOM     21  C6  EJ8 d   1      -2.142  25.528  24.615  0.00  0.00     0.257 A 
ATOM     22  O6  EJ8 d   1      -1.670  24.993  23.617  0.00  0.00    -0.267 OA
ATOM     23  N1  EJ8 d   1      -1.533  26.663  25.134  0.00  0.00    -0.275 N 
ATOM     24  C8  EJ8 d   1      -1.978  27.355  26.275  0.00  0.00     0.331 A 
ATOM     25  H9  EJ8 d   1      -0.722  27.012  24.664  0.00  0.00     0.173 HD
ATOM     26  O2  EJ8 d   1      -1.360  28.362  26.705  0.00  0.00    -0.246 OA
BRANCH  19  27
ATOM     27  C17 EJ8 d   1      -3.934  23.899  24.718  0.00  0.00     0.008 C 
ATOM     28  H6  EJ8 d   1      -4.952  23.859  25.134  0.00  0.00     0.056 H 
ATOM     29  H7  EJ8 d   1      -3.989  23.967  23.622  0.00  0.00     0.056 H 
BRANCH  27  30
ATOM     30  S1  EJ8 d   1      -3.027  22.379  25.187  0.00  0.00    -0.151 SA
BRANCH  30  31
ATOM     31  C18 EJ8 d   1      -4.345  21.139  24.807  0.00  0.00     0.080 C 
ATOM     32  H4  EJ8 d   1      -4.449  20.495  25.692  0.00  0.00     0.070 H 
ATOM     33  H5  EJ8 d   1      -5.279  21.697  24.648  0.00  0.00     0.070 H 
BRANCH  31  34
ATOM     34  P2  EJ8 d   1      -4.118  20.029  23.349  0.00  0.00     0.269 P 
ATOM     35  O9  EJ8 d   1      -5.439  20.138  22.740  0.00  0.00    -0.639 OA
ATOM     36  O10 EJ8 d   1      -2.966  20.641  22.682  0.00  0.00    -0.639 OA
ATOM     37  O11 EJ8 d   1      -3.910  18.769  24.140  0.00  0.00    -0.639 OA
ENDBRANCH  31  34
ENDBRANCH  30  31
ENDBRANCH  27  30
ENDBRANCH  19  27
ENDBRANCH   2  17
BRANCH   9  38
ATOM     38  P   EJ8 d   1      -5.745  24.759  32.211  0.00  0.00     0.330 P 
ATOM     39  OP1 EJ8 d   1      -6.202  26.147  32.530  0.00  0.00    -0.636 OA
ATOM     40  OP2 EJ8 d   1      -6.831  23.852  31.842  0.00  0.00    -0.636 OA
ATOM     41  OP3 EJ8 d   1      -4.915  24.107  33.356  0.00  0.00    -0.636 OA
ENDBRANCH   9  38
BRANCH   9  42
ATOM     42  C2  EJ8 d   1      -4.229  23.353  30.433  0.00  0.00     0.018 A 
ATOM     43  CAA EJ8 d   1      -4.940  22.753  29.388  0.00  0.00    -0.071 A 
ATOM     44  C9  EJ8 d   1      -4.722  21.426  29.047  0.00  0.00    -0.082 A 
ATOM     45  H14 EJ8 d   1      -5.671  23.333  28.837  0.00  0.00     0.084 H 
ATOM     46  C10 EJ8 d   1      -3.781  20.699  29.716  0.00  0.00    -0.083 A 
ATOM     47  H15 EJ8 d   1      -5.298  20.968  28.251  0.00  0.00     0.083 H 
ATOM     48  C11 EJ8 d   1      -3.018  21.266  30.733  0.00  0.00    -0.082 A 
ATOM     49  H16 EJ8 d   1      -3.624  19.660  29.451  0.00  0.00     0.083 H 
ATOM     50  C12 EJ8 d   1      -3.273  22.595  31.085  0.00  0.00    -0.071 A 
ATOM     51  H17 EJ8 d   1      -2.248  20.694  31.238  0.00  0.00     0.083 H 
ATOM     52  H18 EJ8 d   1      -2.705  23.044  31.892  0.00  0.00     0.084 H 
ENDBRANCH   9  42
TORSDOF 7
