REMARK  6 active torsions:
REMARK  status: ('A' for Active; 'I' for Inactive)
REMARK    1  A    between atoms: P_2  and  CAB_5 
REMARK    2  A    between atoms: CAB_5  and  C2_6 
REMARK    3  A    between atoms: C1'_19  and  N9_20 
REMARK    4  A    between atoms: C5_27  and  C17_28 
REMARK    5  A    between atoms: C18_29  and  C19_30 
REMARK    6  A    between atoms: C19_30  and  P2_31 
ROOT
ATOM      1  CAB O84 d   1      -4.561  24.828  30.704  0.00  0.00     0.312 C 
ATOM      2  O3' O84 d   1      -5.018  25.468  29.495  0.00  0.00    -0.332 OA
ATOM      3  O7  O84 d   1      -3.362  25.417  31.068  0.00  0.00    -0.338 OA
ATOM      4  C5' O84 d   1      -3.242  26.806  31.294  0.00  0.00     0.050 C 
ATOM      5  C4' O84 d   1      -3.948  27.554  30.170  0.00  0.00     0.087 C 
ATOM      6  O4' O84 d   1      -2.978  27.587  29.110  0.00  0.00    -0.356 OA
ATOM      7  C3' O84 d   1      -5.166  26.896  29.539  0.00  0.00     0.074 C 
ATOM      8  C2' O84 d   1      -5.137  27.376  28.096  0.00  0.00     0.003 C 
ATOM      9  C1' O84 d   1      -3.623  27.718  27.899  0.00  0.00     0.116 C 
ATOM     10  H6  O84 d   1      -2.179  27.086  31.312  0.00  0.00     0.078 H 
ATOM     11  H7  O84 d   1      -3.706  27.064  32.257  0.00  0.00     0.078 H 
ATOM     12  H8  O84 d   1      -4.218  28.562  30.517  0.00  0.00     0.090 H 
ATOM     13  H9  O84 d   1      -6.093  27.181  30.058  0.00  0.00     0.087 H 
ATOM     14  H10 O84 d   1      -5.769  28.265  27.958  0.00  0.00     0.043 H 
ATOM     15  H11 O84 d   1      -5.461  26.584  27.405  0.00  0.00     0.043 H 
ATOM     16  H12 O84 d   1      -3.544  28.768  27.580  0.00  0.00     0.118 H 
ENDROOT
BRANCH   9  17
ATOM     17  N9  O84 d   1      -3.019  26.890  26.852  0.00  0.00    -0.281 N 
ATOM     18  C4  O84 d   1      -3.394  25.557  26.672  0.00  0.00     0.002 C 
ATOM     19  C5  O84 d   1      -2.976  24.803  25.645  0.00  0.00     0.048 C 
ATOM     20  H13 O84 d   1      -4.061  25.106  27.405  0.00  0.00     0.113 H 
ATOM     21  C6  O84 d   1      -2.130  25.433  24.692  0.00  0.00     0.261 C 
ATOM     22  N1  O84 d   1      -1.646  26.699  24.962  0.00  0.00    -0.275 N 
ATOM     23  O6  O84 d   1      -1.687  24.965  23.624  0.00  0.00    -0.267 OA
ATOM     24  C8  O84 d   1      -2.086  27.434  26.026  0.00  0.00     0.331 C 
ATOM     25  H14 O84 d   1      -0.951  27.090  24.359  0.00  0.00     0.173 HD
ATOM     26  O2  O84 d   1      -1.602  28.599  26.221  0.00  0.00    -0.246 OA
BRANCH  19  27
ATOM     27  C17 O84 d   1      -3.513  23.425  25.590  0.00  0.00    -0.069 C 
ATOM     28  C18 O84 d   1      -3.542  22.585  24.652  0.00  0.00    -0.090 C 
ATOM     29  H16 O84 d   1      -3.082  22.851  23.702  0.00  0.00     0.077 H 
ATOM     30  H15 O84 d   1      -3.960  23.078  26.520  0.00  0.00     0.084 H 
BRANCH  28  31
ATOM     31  C19 O84 d   1      -4.174  21.251  24.783  0.00  0.00     0.054 C 
ATOM     32  H17 O84 d   1      -5.171  21.274  24.318  0.00  0.00     0.059 H 
ATOM     33  H18 O84 d   1      -4.272  20.998  25.849  0.00  0.00     0.059 H 
BRANCH  31  34
ATOM     34  P2  O84 d   1      -3.193  20.038  23.989  0.00  0.00     0.263 P 
ATOM     35  O11 O84 d   1      -2.920  20.475  22.521  0.00  0.00    -0.639 OA
ATOM     36  O9  O84 d   1      -4.034  18.773  23.936  0.00  0.00    -0.639 OA
ATOM     37  O10 O84 d   1      -1.901  19.831  24.741  0.00  0.00    -0.639 OA
ENDBRANCH  31  34
ENDBRANCH  28  31
ENDBRANCH  19  27
ENDBRANCH   9  17
BRANCH   1  38
ATOM     38  P   O84 d   1      -5.782  24.842  32.049  0.00  0.00     0.330 P 
ATOM     39  OP2 O84 d   1      -6.211  26.205  32.409  0.00  0.00    -0.636 OA
ATOM     40  OP1 O84 d   1      -6.919  23.970  31.662  0.00  0.00    -0.636 OA
ATOM     41  OP3 O84 d   1      -5.013  24.182  33.218  0.00  0.00    -0.636 OA
ENDBRANCH   1  38
BRANCH   1  42
ATOM     42  C2  O84 d   1      -4.313  23.400  30.282  0.00  0.00     0.018 A 
ATOM     43  CAA O84 d   1      -3.343  22.683  30.952  0.00  0.00    -0.071 A 
ATOM     44  C9  O84 d   1      -3.113  21.338  30.600  0.00  0.00    -0.082 A 
ATOM     45  H1  O84 d   1      -2.764  23.149  31.741  0.00  0.00     0.084 H 
ATOM     46  C10 O84 d   1      -3.879  20.736  29.608  0.00  0.00    -0.083 A 
ATOM     47  H2  O84 d   1      -2.338  20.772  31.103  0.00  0.00     0.083 H 
ATOM     48  C11 O84 d   1      -4.815  21.468  28.901  0.00  0.00    -0.082 A 
ATOM     49  H3  O84 d   1      -3.741  19.684  29.387  0.00  0.00     0.083 H 
ATOM     50  C12 O84 d   1      -5.040  22.801  29.261  0.00  0.00    -0.071 A 
ATOM     51  H4  O84 d   1      -5.364  21.017  28.083  0.00  0.00     0.083 H 
ATOM     52  H5  O84 d   1      -5.794  23.376  28.735  0.00  0.00     0.084 H 
ENDBRANCH   1  42
TORSDOF 6
