REMARK  7 active torsions:
REMARK  status: ('A' for Active; 'I' for Inactive)
REMARK    1  A    between atoms: C4_1  and  C7_4 
REMARK    2  A    between atoms: C6_3  and  C18_17 
REMARK    3  A    between atoms: C7_4  and  N19_26 
REMARK    4  A    between atoms: C8_5  and  C1_13 
REMARK    5  A    between atoms: C14_15  and  C10_6 
REMARK    6  A    between atoms: N9_27  and  C13_7 
REMARK    7  A    between atoms: C2_18  and  C27_21 
ROOT
ATOM      1  C8  EJE d   1      -4.122   6.710 -20.263  0.00  0.00     0.097 A 
ATOM      2  C10 EJE d   1      -3.417   7.376 -19.286  0.00  0.00     0.076 A 
ATOM      3  C12 EJE d   1      -4.012   5.365 -18.583  0.00  0.00     0.067 A 
ATOM      4  N11 EJE d   1      -4.475   5.443 -19.812  0.00  0.00    -0.241 NA
ATOM      5  N9  EJE d   1      -3.346   6.474 -18.192  0.00  0.00    -0.343 N 
ATOM      6  H9  EJE d   1      -4.152   4.494 -17.945  0.00  0.00     0.143 H 
ENDROOT
BRANCH   1   7
ATOM      7  C1  EJE d   1      -4.513   7.140 -21.630  0.00  0.00     0.007 A 
ATOM      8  C6  EJE d   1      -5.875   7.350 -21.933  0.00  0.00    -0.048 A 
ATOM      9  C5  EJE d   1      -6.219   7.709 -23.233  0.00  0.00    -0.069 A 
ATOM     10  C4  EJE d   1      -5.268   7.893 -24.228  0.00  0.00    -0.032 A 
ATOM     11  H1  EJE d   1      -7.266   7.850 -23.477  0.00  0.00     0.085 H 
ATOM     12  C3  EJE d   1      -3.934   7.680 -23.906  0.00  0.00    -0.069 A 
ATOM     13  C2  EJE d   1      -3.529   7.289 -22.632  0.00  0.00    -0.048 A 
ATOM     14  H19 EJE d   1      -3.182   7.823 -24.673  0.00  0.00     0.085 H 
BRANCH   8  15
ATOM     15  C18 EJE d   1      -6.974   7.195 -20.911  0.00  0.00    -0.050 C 
ATOM     16  H11 EJE d   1      -7.945   7.410 -21.381  0.00  0.00     0.033 H 
ATOM     17  H12 EJE d   1      -6.805   7.897 -20.081  0.00  0.00     0.033 H 
ATOM     18  H13 EJE d   1      -6.973   6.165 -20.525  0.00  0.00     0.033 H 
ENDBRANCH   8  15
BRANCH  10  19
ATOM     19  C7  EJE d   1      -5.680   8.277 -25.623  0.00  0.00     0.103 C 
ATOM     20  H2  EJE d   1      -6.712   8.658 -25.593  0.00  0.00     0.082 H 
ATOM     21  H3  EJE d   1      -5.638   7.382 -26.261  0.00  0.00     0.082 H 
BRANCH  19  22
ATOM     22  N19 EJE d   1      -4.805   9.323 -26.214  0.00  0.00    -0.075 N 
ATOM     23  H20 EJE d   1      -5.124   9.542 -27.145  0.00  0.00     0.274 HD
ATOM     24  H21 EJE d   1      -3.857   8.984 -26.255  0.00  0.00     0.274 HD
ATOM     25  H22 EJE d   1      -4.840  10.153 -25.643  0.00  0.00     0.274 HD
ENDBRANCH  19  22
ENDBRANCH  10  19
BRANCH  13  26
ATOM     26  C27 EJE d   1      -2.055   7.098 -22.373  0.00  0.00    -0.050 C 
ATOM     27  H16 EJE d   1      -1.494   7.268 -23.304  0.00  0.00     0.033 H 
ATOM     28  H17 EJE d   1      -1.875   6.072 -22.018  0.00  0.00     0.033 H 
ATOM     29  H18 EJE d   1      -1.721   7.815 -21.608  0.00  0.00     0.033 H 
ENDBRANCH  13  26
ENDBRANCH   1   7
BRANCH   2  30
ATOM     30  C14 EJE d   1      -2.840   8.737 -19.263  0.00  0.00     0.007 A 
ATOM     31  C21 EJE d   1      -1.427   8.971 -19.188  0.00  0.00     0.005 A 
ATOM     32  C20 EJE d   1      -1.006  10.330 -19.144  0.00  0.00     0.070 A 
ATOM     33  C22 EJE d   1      -0.433   7.953 -19.190  0.00  0.00    -0.067 A 
ATOM     34  C25 EJE d   1       0.377  10.623 -19.086  0.00  0.00    -0.017 A 
ATOM     35  N15 EJE d   1      -1.890  11.384 -19.150  0.00  0.00    -0.260 NA
ATOM     36  C24 EJE d   1       1.267   9.595 -19.073  0.00  0.00     0.118 A 
ATOM     37  H15 EJE d   1       0.722  11.650 -19.052  0.00  0.00     0.091 H 
ATOM     38  C23 EJE d   1       0.893   8.266 -19.097  0.00  0.00    -0.045 A 
ATOM     39  F26 EJE d   1       2.594   9.879 -18.958  0.00  0.00    -0.206 F 
ATOM     40  H14 EJE d   1       1.641   7.483 -19.043  0.00  0.00     0.088 H 
ATOM     41  C17 EJE d   1      -3.182  11.094 -19.191  0.00  0.00     0.004 A 
ATOM     42  C16 EJE d   1      -3.701   9.812 -19.281  0.00  0.00    -0.053 A 
ATOM     43  H7  EJE d   1      -3.884  11.919 -19.151  0.00  0.00     0.114 H 
ATOM     44  H10 EJE d   1      -4.771   9.657 -19.364  0.00  0.00     0.087 H 
ATOM     45  H8  EJE d   1      -0.733   6.914 -19.266  0.00  0.00     0.085 H 
ENDBRANCH   2  30
BRANCH   5  46
ATOM     46  C13 EJE d   1      -2.726   6.687 -16.886  0.00  0.00    -0.013 C 
ATOM     47  H4  EJE d   1      -2.850   5.784 -16.270  0.00  0.00     0.057 H 
ATOM     48  H5  EJE d   1      -3.207   7.541 -16.387  0.00  0.00     0.057 H 
ATOM     49  H6  EJE d   1      -1.654   6.896 -17.019  0.00  0.00     0.057 H 
ENDBRANCH   5  46
TORSDOF 7
