REMARK  8 active torsions:
REMARK  status: ('A' for Active; 'I' for Inactive)
REMARK    1  A    between atoms: C4_1  and  O4_28 
REMARK    2  A    between atoms: C5_2  and  C6_3 
REMARK    3  A    between atoms: C6_3  and  O6_30 
REMARK    4  A    between atoms: C3_4  and  O3_27 
REMARK    5  A    between atoms: O1_25  and  C1_5 
REMARK    6  A    between atoms: C2_6  and  O2_26 
REMARK    7  A    between atoms: CAA_7  and  O1_25 
REMARK    8  A    between atoms: CAD_10  and  CAG_13 
ROOT
ATOM      1  CAG EJK d   1       0.501   8.060   6.055  0.00  0.00     0.058 C 
ATOM      2  CAH EJK d   1       0.148   7.443   7.257  0.00  0.00     0.170 C 
ATOM      3  CAI EJK d   1      -1.166   7.444   7.710  0.00  0.00     0.179 C 
ATOM      4  CAJ EJK d   1      -2.186   7.901   6.897  0.00  0.00     0.128 C 
ATOM      5  CAK EJK d   1      -1.877   8.400   5.646  0.00  0.00     0.179 C 
ATOM      6  CAL EJK d   1      -0.560   8.445   5.211  0.00  0.00     0.170 C 
ATOM      7  CBE EJK d   1      -3.539   7.860   7.334  0.00  0.00     0.106 C 
ATOM      8  FAH EJK d   1       1.027   7.068   8.056  0.00  0.00    -0.202 F 
ATOM      9  FAI EJK d   1      -1.464   6.956   8.933  0.00  0.00    -0.201 F 
ATOM     10  FAK EJK d   1      -2.872   8.853   4.832  0.00  0.00    -0.201 F 
ATOM     11  FAL EJK d   1      -0.370   8.945   3.972  0.00  0.00    -0.202 F 
ATOM     12  NBF EJK d   1      -4.631   7.831   7.678  0.00  0.00    -0.191 NA
ENDROOT
BRANCH   1  13
ATOM     13  CAD EJK d   1       1.803   8.018   5.531  0.00  0.00    -0.018 C 
ATOM     14  CAC EJK d   1       2.795   7.141   5.983  0.00  0.00    -0.069 C 
ATOM     15  CAB EJK d   1       4.087   7.169   5.466  0.00  0.00    -0.048 C 
ATOM     16  H9  EJK d   1       2.551   6.421   6.756  0.00  0.00     0.085 H 
ATOM     17  CAA EJK d   1       4.432   8.182   4.592  0.00  0.00     0.093 C 
ATOM     18  H8  EJK d   1       4.809   6.410   5.744  0.00  0.00     0.087 H 
ATOM     19  CAF EJK d   1       3.506   9.142   4.244  0.00  0.00     0.068 C 
ATOM     20  CAE EJK d   1       2.211   9.070   4.719  0.00  0.00    -0.048 C 
ATOM     21 CL1  EJK d   1       3.943  10.389   3.162  0.00  0.00    -0.081 Cl
ATOM     22  H10 EJK d   1       1.502   9.846   4.455  0.00  0.00     0.087 H 
BRANCH  17  23
ATOM     23  O1  EJK d   1       5.656   8.378   4.034  0.00  0.00    -0.316 OA
BRANCH  23  24
ATOM     24  C1  EJK d   1       6.719   7.463   4.286  0.00  0.00     0.164 C 
ATOM     25  C2  EJK d   1       7.932   7.901   3.481  0.00  0.00     0.110 C 
ATOM     26  C3  EJK d   1       7.550   7.913   2.016  0.00  0.00     0.092 C 
ATOM     27  H7  EJK d   1       8.235   8.913   3.789  0.00  0.00     0.094 H 
ATOM     28  C4  EJK d   1       7.131   6.514   1.619  0.00  0.00     0.090 C 
ATOM     29  H5  EJK d   1       6.710   8.605   1.859  0.00  0.00     0.091 H 
ATOM     30  C5  EJK d   1       5.945   6.130   2.482  0.00  0.00     0.089 C 
ATOM     31  H1  EJK d   1       7.961   5.807   1.765  0.00  0.00     0.091 H 
ATOM     32  O5  EJK d   1       6.287   6.148   3.883  0.00  0.00    -0.348 OA
ATOM     33  H2  EJK d   1       5.134   6.852   2.306  0.00  0.00     0.090 H 
ATOM     34  H6  EJK d   1       6.969   7.458   5.357  0.00  0.00     0.134 H 
BRANCH  25  35
ATOM     35  O2  EJK d   1       9.022   6.989   3.715  0.00  0.00    -0.388 OA
ATOM     36  H11 EJK d   1       9.778   7.265   3.211  0.00  0.00     0.210 HD
ENDBRANCH  25  35
BRANCH  26  37
ATOM     37  O3  EJK d   1       8.666   8.342   1.230  0.00  0.00    -0.390 OA
ATOM     38  H12 EJK d   1       8.922   9.217   1.496  0.00  0.00     0.210 HD
ENDBRANCH  26  37
BRANCH  28  39
ATOM     39  O4  EJK d   1       6.721   6.517   0.257  0.00  0.00    -0.390 OA
ATOM     40  H13 EJK d   1       6.457   5.640   0.005  0.00  0.00     0.210 HD
ENDBRANCH  28  39
BRANCH  30  41
ATOM     41  C6  EJK d   1       5.462   4.745   2.111  0.00  0.00     0.043 C 
ATOM     42  H3  EJK d   1       5.211   4.691   1.042  0.00  0.00     0.078 H 
ATOM     43  H4  EJK d   1       4.583   4.463   2.709  0.00  0.00     0.078 H 
BRANCH  41  44
ATOM     44  O6  EJK d   1       6.574   3.906   2.415  0.00  0.00    -0.398 OA
ATOM     45  H14 EJK d   1       6.355   3.005   2.209  0.00  0.00     0.209 HD
ENDBRANCH  41  44
ENDBRANCH  30  41
ENDBRANCH  23  24
ENDBRANCH  17  23
ENDBRANCH   1  13
TORSDOF 8
