REMARK  8 active torsions:
REMARK  status: ('A' for Active; 'I' for Inactive)
REMARK    1  A    between atoms: C3_10  and  O3_1 
REMARK    2  A    between atoms: C4_2  and  O4_4 
REMARK    3  A    between atoms: C5_3  and  C6_5 
REMARK    4  A    between atoms: C6_5  and  O6_7 
REMARK    5  A    between atoms: O1_28  and  C1_8 
REMARK    6  A    between atoms: C2_9  and  O2_29 
REMARK    7  A    between atoms: CAA_11  and  O1_28 
REMARK    8  A    between atoms: CAD_14  and  CAG_17 
ROOT
ATOM      1  C4  EJN d   1      53.341  -3.444  -4.308  0.00  0.00     0.090 C 
ATOM      2  C5  EJN d   1      54.147  -2.420  -3.513  0.00  0.00     0.089 C 
ATOM      3  O5  EJN d   1      55.278  -3.058  -2.895  0.00  0.00    -0.348 OA
ATOM      4  C1  EJN d   1      56.164  -3.682  -3.810  0.00  0.00     0.164 C 
ATOM      5  C2  EJN d   1      55.431  -4.772  -4.580  0.00  0.00     0.110 C 
ATOM      6  C3  EJN d   1      54.245  -4.156  -5.304  0.00  0.00     0.092 C 
ATOM      7  H2  EJN d   1      52.911  -4.184  -3.617  0.00  0.00     0.091 H 
ATOM      8  H3  EJN d   1      54.496  -1.640  -4.206  0.00  0.00     0.090 H 
ATOM      9  H8  EJN d   1      57.017  -4.109  -3.263  0.00  0.00     0.134 H 
ATOM     10  H9  EJN d   1      56.115  -5.217  -5.318  0.00  0.00     0.094 H 
ATOM     11  H10 EJN d   1      54.622  -3.416  -6.026  0.00  0.00     0.091 H 
ENDROOT
BRANCH   4  12
ATOM     12  O1  EJN d   1      56.617  -2.750  -4.768  0.00  0.00    -0.318 OA
BRANCH  12  13
ATOM     13  CAA EJN d   1      57.106  -1.536  -4.336  0.00  0.00     0.072 A 
ATOM     14  CAB EJN d   1      57.372  -1.276  -3.002  0.00  0.00    -0.050 A 
ATOM     15  CAC EJN d   1      57.825  -0.026  -2.624  0.00  0.00    -0.069 A 
ATOM     16  H11 EJN d   1      57.225  -2.050  -2.257  0.00  0.00     0.087 H 
ATOM     17  CAD EJN d   1      58.028   0.983  -3.562  0.00  0.00    -0.019 A 
ATOM     18  H12 EJN d   1      58.026   0.173  -1.577  0.00  0.00     0.085 H 
ATOM     19  CAE EJN d   1      57.760   0.698  -4.899  0.00  0.00    -0.069 A 
ATOM     20  CAF EJN d   1      57.304  -0.549  -5.287  0.00  0.00    -0.050 A 
ATOM     21  H13 EJN d   1      57.911   1.467  -5.648  0.00  0.00     0.085 H 
ATOM     22  H14 EJN d   1      57.102  -0.753  -6.332  0.00  0.00     0.087 H 
BRANCH  17  23
ATOM     23  CAG EJN d   1      58.522   2.327  -3.142  0.00  0.00     0.058 A 
ATOM     24  CAH EJN d   1      59.685   2.475  -2.403  0.00  0.00     0.172 A 
ATOM     25  CAI EJN d   1      60.107   3.696  -1.927  0.00  0.00     0.197 A 
ATOM     26  FAH EJN d   1      60.448   1.397  -2.147  0.00  0.00    -0.202 F 
ATOM     27  CAJ EJN d   1      59.364   4.820  -2.196  0.00  0.00     0.199 A 
ATOM     28  FAI EJN d   1      61.234   3.780  -1.202  0.00  0.00    -0.199 F 
ATOM     29  CAK EJN d   1      58.215   4.722  -2.943  0.00  0.00     0.197 A 
ATOM     30  FAJ EJN d   1      59.757   6.018  -1.719  0.00  0.00    -0.199 F 
ATOM     31  CAL EJN d   1      57.812   3.489  -3.408  0.00  0.00     0.172 A 
ATOM     32  FAK EJN d   1      57.485   5.817  -3.212  0.00  0.00    -0.199 F 
ATOM     33  FAL EJN d   1      56.690   3.427  -4.149  0.00  0.00    -0.202 F 
ENDBRANCH  17  23
ENDBRANCH  12  13
ENDBRANCH   4  12
BRANCH   5  34
ATOM     34  O2  EJN d   1      54.989  -5.788  -3.687  0.00  0.00    -0.388 OA
ATOM     35  H15 EJN d   1      54.538  -6.465  -4.178  0.00  0.00     0.210 HD
ENDBRANCH   5  34
BRANCH   2  36
ATOM     36  C6  EJN d   1      53.351  -1.772  -2.403  0.00  0.00     0.043 C 
ATOM     37  H5  EJN d   1      52.529  -1.190  -2.846  0.00  0.00     0.078 H 
ATOM     38  H6  EJN d   1      54.012  -1.100  -1.836  0.00  0.00     0.078 H 
BRANCH  36  39
ATOM     39  O6  EJN d   1      52.805  -2.738  -1.515  0.00  0.00    -0.398 OA
ATOM     40  H7  EJN d   1      52.313  -2.297  -0.833  0.00  0.00     0.209 HD
ENDBRANCH  36  39
ENDBRANCH   2  36
BRANCH   6  41
ATOM     41  O3  EJN d   1      53.521  -5.150  -6.017  0.00  0.00    -0.390 OA
ATOM     42  H1  EJN d   1      54.101  -5.582  -6.633  0.00  0.00     0.210 HD
ENDBRANCH   6  41
BRANCH   1  43
ATOM     43  O4  EJN d   1      52.290  -2.777  -4.996  0.00  0.00    -0.390 OA
ATOM     44  H4  EJN d   1      51.725  -2.344  -4.366  0.00  0.00     0.210 HD
ENDBRANCH   1  43
TORSDOF 8
