REMARK  6 active torsions:
REMARK  status: ('A' for Active; 'I' for Inactive)
REMARK    1  A    between atoms: O5'_1  and  C5'_2 
REMARK    2  A    between atoms: C5'_2  and  C4'_3 
REMARK    3  A    between atoms: C1'_5  and  N9_6 
REMARK    4  A    between atoms: C6_10  and  N6_15 
REMARK    5  A    between atoms: C2'_16  and  O2'_17 
REMARK    6  A    between atoms: C3'_18  and  O3'_19 
ROOT
ATOM      1  C4' 5ID d   1      14.667   7.991  12.092  0.00  0.00     0.088 C 
ATOM      2  O4' 5ID d   1      14.924   9.412  12.222  0.00  0.00    -0.353 OA
ATOM      3  C1' 5ID d   1      14.308   9.908  13.397  0.00  0.00     0.138 C 
ATOM      4  C2' 5ID d   1      13.789   8.698  14.183  0.00  0.00     0.105 C 
ATOM      5  C3' 5ID d   1      13.519   7.702  13.064  0.00  0.00     0.091 C 
ATOM      6  H4  5ID d   1      15.552   7.432  12.429  0.00  0.00     0.090 H 
ATOM      7  H5  5ID d   1      15.045  10.447  14.010  0.00  0.00     0.122 H 
ATOM      8  H10 5ID d   1      12.867   8.927  14.737  0.00  0.00     0.093 H 
ATOM      9  H12 5ID d   1      12.546   7.911  12.595  0.00  0.00     0.091 H 
ENDROOT
BRANCH   3  10
ATOM     10  N9  5ID d   1      13.249  10.835  13.010  0.00  0.00    -0.310 N 
ATOM     11  C8  5ID d   1      12.586  10.865  11.798  0.00  0.00     0.001 A 
ATOM     12  C7  5ID d   1      11.679  11.883  11.806  0.00  0.00     0.040 A 
ATOM     13  H6  5ID d   1      12.761  10.183  10.967  0.00  0.00     0.113 H 
ATOM     14  C5  5ID d   1      11.728  12.511  13.090  0.00  0.00     0.073 A 
ATOM     15  IAE 5ID d   1      10.479  12.520  10.195  0.00  0.00    -0.042 I 
ATOM     16  C6  5ID d   1      11.068  13.561  13.778  0.00  0.00     0.138 A 
ATOM     17  C4  5ID d   1      12.739  11.832  13.804  0.00  0.00     0.148 A 
ATOM     18  N1  5ID d   1      11.442  13.845  15.041  0.00  0.00    -0.224 NA
ATOM     19  C2  5ID d   1      12.409  13.117  15.596  0.00  0.00     0.091 A 
ATOM     20  N3  5ID d   1      13.105  12.109  15.063  0.00  0.00    -0.223 NA
ATOM     21  H7  5ID d   1      12.666  13.377  16.617  0.00  0.00     0.146 H 
BRANCH  16  22
ATOM     22  N6  5ID d   1      10.079  14.270  13.238  0.00  0.00    -0.383 N 
ATOM     23  H8  5ID d   1       9.631  15.024  13.779  0.00  0.00     0.157 HD
ATOM     24  H9  5ID d   1       9.762  14.065  12.280  0.00  0.00     0.157 HD
ENDBRANCH  16  22
ENDBRANCH   3  10
BRANCH   4  25
ATOM     25  O2' 5ID d   1      14.816   8.281  15.103  0.00  0.00    -0.388 OA
ATOM     26  H11 5ID d   1      14.510   7.531  15.599  0.00  0.00     0.210 HD
ENDBRANCH   4  25
BRANCH   1  27
ATOM     27  C5' 5ID d   1      14.423   7.606  10.652  0.00  0.00     0.043 C 
ATOM     28  H2  5ID d   1      15.242   8.017  10.043  0.00  0.00     0.078 H 
ATOM     29  H3  5ID d   1      14.431   6.508  10.584  0.00  0.00     0.078 H 
BRANCH  27  30
ATOM     30  O5' 5ID d   1      13.186   8.078  10.114  0.00  0.00    -0.398 OA
ATOM     31  H1  5ID d   1      12.465   7.723  10.621  0.00  0.00     0.209 HD
ENDBRANCH  27  30
ENDBRANCH   1  27
BRANCH   5  32
ATOM     32  O3' 5ID d   1      13.537   6.334  13.484  0.00  0.00    -0.390 OA
ATOM     33  H13 5ID d   1      14.391   6.126  13.845  0.00  0.00     0.210 HD
ENDBRANCH   5  32
TORSDOF 6
