REMARK  6 active torsions:
REMARK  status: ('A' for Active; 'I' for Inactive)
REMARK    1  A    between atoms: C_20  and  O3_1 
REMARK    2  A    between atoms: C4_2  and  N_13 
REMARK    3  A    between atoms: C8_7  and  N1_5 
REMARK    4  A    between atoms: C3_14  and  O1_15 
REMARK    5  A    between atoms: C2_16  and  O2_17 
REMARK    6  A    between atoms: C1_19  and  C_20 
ROOT
ATOM      1  C4  EKK d   1      64.174  29.647  13.110  0.00  0.00     0.138 C 
ATOM      2  C3  EKK d   1      64.665  30.865  13.892  0.00  0.00     0.105 C 
ATOM      3  C2  EKK d   1      64.920  31.863  12.760  0.00  0.00     0.091 C 
ATOM      4  O   EKK d   1      63.595  30.129  11.911  0.00  0.00    -0.353 OA
ATOM      5  C1  EKK d   1      63.780  31.556  11.805  0.00  0.00     0.088 C 
ATOM      6  H2  EKK d   1      63.420  29.115  13.709  0.00  0.00     0.122 H 
ATOM      7  H7  EKK d   1      65.589  30.654  14.450  0.00  0.00     0.093 H 
ATOM      8  H9  EKK d   1      65.894  31.673  12.285  0.00  0.00     0.091 H 
ATOM      9  H11 EKK d   1      62.877  32.084  12.146  0.00  0.00     0.090 H 
ENDROOT
BRANCH   1  10
ATOM     10  N   EKK d   1      65.239  28.717  12.756  0.00  0.00    -0.310 N 
ATOM     11  C5  EKK d   1      65.896  28.662  11.552  0.00  0.00     0.002 A 
ATOM     12  C6  EKK d   1      66.807  27.659  11.590  0.00  0.00     0.044 A 
ATOM     13  H3  EKK d   1      65.714  29.319  10.703  0.00  0.00     0.114 H 
ATOM     14  C7  EKK d   1      66.756  27.051  12.871  0.00  0.00     0.074 A 
ATOM     15 BR   EKK d   1      67.917  27.077  10.195  0.00  0.00    -0.049 Br
ATOM     16  C8  EKK d   1      67.423  26.002  13.542  0.00  0.00     0.138 A 
ATOM     17  C10 EKK d   1      65.756  27.739  13.571  0.00  0.00     0.148 A 
ATOM     18  N2  EKK d   1      67.038  25.716  14.801  0.00  0.00    -0.224 NA
ATOM     19  C9  EKK d   1      66.063  26.444  15.350  0.00  0.00     0.091 A 
ATOM     20  N3  EKK d   1      65.382  27.465  14.826  0.00  0.00    -0.223 NA
ATOM     21  H6  EKK d   1      65.786  26.168  16.361  0.00  0.00     0.146 H 
BRANCH  16  22
ATOM     22  N1  EKK d   1      68.435  25.318  13.004  0.00  0.00    -0.383 N 
ATOM     23  H4  EKK d   1      68.887  24.561  13.538  0.00  0.00     0.157 HD
ATOM     24  H5  EKK d   1      68.764  25.547  12.055  0.00  0.00     0.157 HD
ENDBRANCH  16  22
ENDBRANCH   1  10
BRANCH   2  25
ATOM     25  O1  EKK d   1      63.643  31.275  14.796  0.00  0.00    -0.388 OA
ATOM     26  H8  EKK d   1      63.941  32.032  15.286  0.00  0.00     0.210 HD
ENDBRANCH   2  25
BRANCH   3  27
ATOM     27  O2  EKK d   1      64.879  33.221  13.203  0.00  0.00    -0.390 OA
ATOM     28  H10 EKK d   1      65.545  33.357  13.867  0.00  0.00     0.210 HD
ENDBRANCH   3  27
BRANCH   5  29
ATOM     29  C   EKK d   1      64.017  31.921  10.358  0.00  0.00     0.043 C 
ATOM     30  H12 EKK d   1      63.159  31.579   9.761  0.00  0.00     0.078 H 
ATOM     31  H13 EKK d   1      64.106  33.014  10.278  0.00  0.00     0.078 H 
BRANCH  29  32
ATOM     32  O3  EKK d   1      65.199  31.326   9.845  0.00  0.00    -0.398 OA
ATOM     33  H1  EKK d   1      65.946  31.621  10.352  0.00  0.00     0.209 HD
ENDBRANCH  29  32
ENDBRANCH   5  29
TORSDOF 6
