REMARK  5 active torsions:
REMARK  status: ('A' for Active; 'I' for Inactive)
REMARK    1  A    between atoms: N2_7  and  C5_12 
REMARK    2  A    between atoms: C8_14  and  C9_15 
REMARK    3  A    between atoms: C9_15  and  O_16 
REMARK    4  A    between atoms: C7_17  and  O1_18 
REMARK    5  A    between atoms: C6_19  and  O2_20 
ROOT
ATOM      1  C5  EKH d   1      14.044   9.785  13.105  0.00  0.00     0.138 C 
ATOM      2  O3  EKH d   1      14.633   9.310  11.914  0.00  0.00    -0.353 OA
ATOM      3  C8  EKH d   1      14.456   7.886  11.799  0.00  0.00     0.088 C 
ATOM      4  C7  EKH d   1      13.303   7.579  12.740  0.00  0.00     0.091 C 
ATOM      5  C6  EKH d   1      13.555   8.559  13.870  0.00  0.00     0.105 C 
ATOM      6  H5  EKH d   1      14.791  10.316  13.713  0.00  0.00     0.122 H 
ATOM      7  H6  EKH d   1      15.355   7.362  12.155  0.00  0.00     0.090 H 
ATOM      8  H10 EKH d   1      12.332   7.781  12.263  0.00  0.00     0.091 H 
ATOM      9  H12 EKH d   1      12.635   8.753  14.441  0.00  0.00     0.093 H 
ENDROOT
BRANCH   1  10
ATOM     10  N2  EKH d   1      12.975  10.714  12.754  0.00  0.00    -0.309 N 
ATOM     11  C4  EKH d   1      12.298  10.780  11.555  0.00  0.00     0.006 A 
ATOM     12  C10 EKH d   1      11.403  11.786  11.624  0.00  0.00     0.067 A 
ATOM     13  H3  EKH d   1      12.459  10.129  10.697  0.00  0.00     0.114 H 
ATOM     14 CL   EKH d   1      10.347  12.270  10.337  0.00  0.00    -0.082 Cl
ATOM     15  C2  EKH d   1      11.466  12.394  12.902  0.00  0.00     0.079 A 
ATOM     16  C   EKH d   1      10.827  13.435  13.616  0.00  0.00     0.138 A 
ATOM     17  C3  EKH d   1      12.476  11.685  13.585  0.00  0.00     0.149 A 
ATOM     18  N3  EKH d   1       9.820  14.150  13.095  0.00  0.00    -0.383 N 
ATOM     19  N   EKH d   1      11.226  13.698  14.881  0.00  0.00    -0.224 NA
ATOM     20  H1  EKH d   1       9.381  14.900  13.648  0.00  0.00     0.157 HD
ATOM     21  H2  EKH d   1       9.485  13.949  12.142  0.00  0.00     0.157 HD
ATOM     22  C1  EKH d   1      12.197  12.946  15.406  0.00  0.00     0.091 A 
ATOM     23  N1  EKH d   1      12.858  11.929  14.842  0.00  0.00    -0.223 NA
ATOM     24  H4  EKH d   1      12.487  13.192  16.421  0.00  0.00     0.146 H 
ENDBRANCH   1  10
BRANCH   5  25
ATOM     25  O2  EKH d   1      14.611   8.173  14.754  0.00  0.00    -0.388 OA
ATOM     26  H13 EKH d   1      14.400   7.336  15.151  0.00  0.00     0.210 HD
ENDBRANCH   5  25
BRANCH   3  27
ATOM     27  C9  EKH d   1      14.246   7.513  10.362  0.00  0.00     0.043 C 
ATOM     28  H7  EKH d   1      14.221   6.416  10.286  0.00  0.00     0.078 H 
ATOM     29  H8  EKH d   1      15.089   7.903   9.773  0.00  0.00     0.078 H 
BRANCH  27  30
ATOM     30  O   EKH d   1      13.033   8.033   9.816  0.00  0.00    -0.398 OA
ATOM     31  H9  EKH d   1      12.295   7.697  10.311  0.00  0.00     0.209 HD
ENDBRANCH  27  30
ENDBRANCH   3  27
BRANCH   4  32
ATOM     32  O1  EKH d   1      13.347   6.206  13.141  0.00  0.00    -0.390 OA
ATOM     33  H11 EKH d   1      12.623   6.025  13.728  0.00  0.00     0.210 HD
ENDBRANCH   4  32
TORSDOF 5
