REMARK  6 active torsions:
REMARK  status: ('A' for Active; 'I' for Inactive)
REMARK    1  A    between atoms: C8_9  and  N1_10 
REMARK    2  A    between atoms: N_11  and  C4_12 
REMARK    3  A    between atoms: C3_13  and  O1_14 
REMARK    4  A    between atoms: C2_15  and  O2_16 
REMARK    5  A    between atoms: C1_18  and  C_19 
REMARK    6  A    between atoms: C_19  and  O3_20 
ROOT
ATOM      1  C4  FTU d   1      14.165   9.963  13.190  0.00  0.00     0.138 C 
ATOM      2  C3  FTU d   1      13.675   8.747  13.978  0.00  0.00     0.105 C 
ATOM      3  C2  FTU d   1      13.432   7.745  12.850  0.00  0.00     0.091 C 
ATOM      4  O   FTU d   1      14.783   9.466  12.018  0.00  0.00    -0.353 OA
ATOM      5  C1  FTU d   1      14.591   8.039  11.906  0.00  0.00     0.088 C 
ATOM      6  H5  FTU d   1      14.895  10.516  13.799  0.00  0.00     0.122 H 
ATOM      7  H6  FTU d   1      12.747   8.958  14.529  0.00  0.00     0.093 H 
ATOM      8  H8  FTU d   1      12.466   7.937  12.361  0.00  0.00     0.091 H 
ATOM      9  H10 FTU d   1      15.484   7.511  12.271  0.00  0.00     0.090 H 
ENDROOT
BRANCH   1  10
ATOM     10  N   FTU d   1      13.094  10.875  12.796  0.00  0.00    -0.308 N 
ATOM     11  C5  FTU d   1      12.425  10.897  11.593  0.00  0.00     0.022 A 
ATOM     12  C6  FTU d   1      11.503  11.899  11.612  0.00  0.00     0.149 A 
ATOM     13  H1  FTU d   1      12.605  10.220  10.759  0.00  0.00     0.116 H 
ATOM     14  F   FTU d   1      10.668  12.244  10.604  0.00  0.00    -0.203 F 
ATOM     15  C7  FTU d   1      11.564  12.535  12.876  0.00  0.00     0.096 A 
ATOM     16  C10 FTU d   1      12.577  11.864  13.590  0.00  0.00     0.150 A 
ATOM     17  C8  FTU d   1      10.906  13.593  13.553  0.00  0.00     0.139 A 
ATOM     18  N3  FTU d   1      12.944  12.161  14.844  0.00  0.00    -0.223 NA
ATOM     19  C9  FTU d   1      12.263  13.189  15.363  0.00  0.00     0.091 A 
ATOM     20  N2  FTU d   1      11.292  13.914  14.802  0.00  0.00    -0.224 NA
ATOM     21  H2  FTU d   1      12.536  13.471  16.373  0.00  0.00     0.146 H 
BRANCH  17  22
ATOM     22  N1  FTU d   1       9.930  14.303  12.999  0.00  0.00    -0.383 N 
ATOM     23  H3  FTU d   1       9.481  15.063  13.530  0.00  0.00     0.157 HD
ATOM     24  H4  FTU d   1       9.622  14.094  12.039  0.00  0.00     0.157 HD
ENDBRANCH  17  22
ENDBRANCH   1  10
BRANCH   2  25
ATOM     25  O1  FTU d   1      14.693   8.337  14.892  0.00  0.00    -0.388 OA
ATOM     26  H7  FTU d   1      14.391   7.582  15.383  0.00  0.00     0.210 HD
ENDBRANCH   2  25
BRANCH   3  27
ATOM     27  O2  FTU d   1      13.464   6.385  13.297  0.00  0.00    -0.390 OA
ATOM     28  H9  FTU d   1      12.790   6.253  13.953  0.00  0.00     0.210 HD
ENDBRANCH   3  27
BRANCH   5  29
ATOM     29  C   FTU d   1      14.394   7.652  10.461  0.00  0.00     0.043 C 
ATOM     30  H11 FTU d   1      14.364   6.554  10.394  0.00  0.00     0.078 H 
ATOM     31  H12 FTU d   1      15.246   8.032   9.878  0.00  0.00     0.078 H 
BRANCH  29  32
ATOM     32  O3  FTU d   1      13.189   8.174   9.897  0.00  0.00    -0.398 OA
ATOM     33  H13 FTU d   1      12.444   7.846  10.386  0.00  0.00     0.209 HD
ENDBRANCH  29  32
ENDBRANCH   5  29
TORSDOF 6
