REMARK  6 active torsions:
REMARK  status: ('A' for Active; 'I' for Inactive)
REMARK    1  A    between atoms: O5'_1  and  C5'_2 
REMARK    2  A    between atoms: C5'_2  and  C4'_3 
REMARK    3  A    between atoms: C1'_5  and  N9_6 
REMARK    4  A    between atoms: C6_10  and  N6_15 
REMARK    5  A    between atoms: C2'_16  and  O2'_17 
REMARK    6  A    between atoms: C3'_18  and  O3'_19 
ROOT
ATOM      1  C4' TBN d   1      51.078  44.397   8.002  0.00  0.00     0.088 C 
ATOM      2  O4' TBN d   1      49.641  44.220   7.956  0.00  0.00    -0.353 OA
ATOM      3  C1' TBN d   1      49.111  44.858   6.805  0.00  0.00     0.138 C 
ATOM      4  C2' TBN d   1      50.310  45.363   5.994  0.00  0.00     0.105 C 
ATOM      5  C3' TBN d   1      51.345  45.580   7.089  0.00  0.00     0.091 C 
ATOM      6  H4  TBN d   1      51.579  43.509   7.589  0.00  0.00     0.090 H 
ATOM      7  H5  TBN d   1      48.548  44.133   6.199  0.00  0.00     0.122 H 
ATOM      8  H11 TBN d   1      50.093  46.299   5.458  0.00  0.00     0.093 H 
ATOM      9  H13 TBN d   1      51.148  46.529   7.608  0.00  0.00     0.091 H 
ENDROOT
BRANCH   3  10
ATOM     10  N9  TBN d   1      48.198  45.920   7.229  0.00  0.00    -0.311 N 
ATOM     11  C8  TBN d   1      48.218  46.570   8.456  0.00  0.00    -0.015 A 
ATOM     12  C7  TBN d   1      47.253  47.519   8.497  0.00  0.00    -0.051 A 
ATOM     13  H6  TBN d   1      48.910  46.349   9.268  0.00  0.00     0.111 H 
ATOM     14  C5  TBN d   1      46.586  47.486   7.227  0.00  0.00     0.057 A 
ATOM     15  H7  TBN d   1      47.027  48.180   9.333  0.00  0.00     0.087 H 
ATOM     16  C6  TBN d   1      45.514  48.174   6.580  0.00  0.00     0.136 A 
ATOM     17  C4  TBN d   1      47.196  46.473   6.469  0.00  0.00     0.147 A 
ATOM     18  N1  TBN d   1      45.150  47.818   5.333  0.00  0.00    -0.224 NA
ATOM     19  C2  TBN d   1      45.821  46.821   4.742  0.00  0.00     0.091 A 
ATOM     20  N3  TBN d   1      46.851  46.104   5.223  0.00  0.00    -0.223 NA
ATOM     21  H8  TBN d   1      45.490  46.558   3.744  0.00  0.00     0.146 H 
BRANCH  16  22
ATOM     22  N6  TBN d   1      44.872  49.193   7.163  0.00  0.00    -0.383 N 
ATOM     23  H9  TBN d   1      44.103  49.668   6.669  0.00  0.00     0.157 HD
ATOM     24  H10 TBN d   1      45.147  49.503   8.106  0.00  0.00     0.157 HD
ENDBRANCH  16  22
ENDBRANCH   3  10
BRANCH   4  25
ATOM     25  O2' TBN d   1      50.665  44.336   5.066  0.00  0.00    -0.388 OA
ATOM     26  H12 TBN d   1      51.408  44.622   4.548  0.00  0.00     0.210 HD
ENDBRANCH   4  25
BRANCH   1  27
ATOM     27  C5' TBN d   1      51.534  44.561   9.427  0.00  0.00     0.043 C 
ATOM     28  H2  TBN d   1      51.129  43.727  10.019  0.00  0.00     0.078 H 
ATOM     29  H3  TBN d   1      52.633  44.524   9.446  0.00  0.00     0.078 H 
BRANCH  27  30
ATOM     30  O5' TBN d   1      51.117  45.780  10.026  0.00  0.00    -0.398 OA
ATOM     31  H1  TBN d   1      51.468  46.511   9.531  0.00  0.00     0.209 HD
ENDBRANCH  27  30
ENDBRANCH   1  27
BRANCH   5  32
ATOM     32  O3' TBN d   1      52.717  45.584   6.651  0.00  0.00    -0.390 OA
ATOM     33  H14 TBN d   1      52.844  46.281   6.018  0.00  0.00     0.210 HD
ENDBRANCH   5  32
TORSDOF 6
