REMARK  6 active torsions:
REMARK  status: ('A' for Active; 'I' for Inactive)
REMARK    1  A    between atoms: O5'_1  and  C5'_2 
REMARK    2  A    between atoms: C5'_2  and  C4'_3 
REMARK    3  A    between atoms: C1'_5  and  N9_6 
REMARK    4  A    between atoms: C6_10  and  N6_15 
REMARK    5  A    between atoms: C2'_16  and  O2'_17 
REMARK    6  A    between atoms: C3'_18  and  O3'_19 
ROOT
ATOM      1  C4' 5ID d   1      64.130  31.512  12.039  0.00  0.00     0.088 C 
ATOM      2  O4' 5ID d   1      63.935  30.086  12.109  0.00  0.00    -0.353 OA
ATOM      3  C1' 5ID d   1      64.554  29.559  13.267  0.00  0.00     0.138 C 
ATOM      4  C2' 5ID d   1      65.055  30.742  14.086  0.00  0.00     0.105 C 
ATOM      5  C3' 5ID d   1      65.286  31.785  12.996  0.00  0.00     0.091 C 
ATOM      6  H4  5ID d   1      63.235  32.039  12.400  0.00  0.00     0.090 H 
ATOM      7  H5  5ID d   1      63.818  28.999  13.862  0.00  0.00     0.122 H 
ATOM      8  H10 5ID d   1      65.987  30.509  14.622  0.00  0.00     0.093 H 
ATOM      9  H12 5ID d   1      66.250  31.619  12.493  0.00  0.00     0.091 H 
ENDROOT
BRANCH   3  10
ATOM     10  N9  5ID d   1      65.616  28.647  12.863  0.00  0.00    -0.310 N 
ATOM     11  C8  5ID d   1      66.267  28.630  11.650  0.00  0.00     0.001 A 
ATOM     12  C7  5ID d   1      67.205  27.637  11.660  0.00  0.00     0.040 A 
ATOM     13  H6  5ID d   1      66.066  29.301  10.816  0.00  0.00     0.113 H 
ATOM     14  C5  5ID d   1      67.165  26.999  12.930  0.00  0.00     0.073 A 
ATOM     15  IAE 5ID d   1      68.446  27.081  10.063  0.00  0.00    -0.042 I 
ATOM     16  C6  5ID d   1      67.844  25.953  13.603  0.00  0.00     0.138 A 
ATOM     17  C4  5ID d   1      66.153  27.660  13.652  0.00  0.00     0.148 A 
ATOM     18  N1  5ID d   1      67.472  25.642  14.865  0.00  0.00    -0.224 NA
ATOM     19  C2  5ID d   1      66.491  26.350  15.425  0.00  0.00     0.091 A 
ATOM     20  N3  5ID d   1      65.792  27.362  14.908  0.00  0.00    -0.223 NA
ATOM     21  H7  5ID d   1      66.225  26.065  16.437  0.00  0.00     0.146 H 
BRANCH  16  22
ATOM     22  N6  5ID d   1      68.858  25.280  13.061  0.00  0.00    -0.383 N 
ATOM     23  H8  5ID d   1      69.319  24.527  13.592  0.00  0.00     0.157 HD
ATOM     24  H9  5ID d   1      69.181  25.512  12.111  0.00  0.00     0.157 HD
ENDBRANCH  16  22
ENDBRANCH   3  10
BRANCH   4  25
ATOM     25  O2' 5ID d   1      64.051  31.130  15.012  0.00  0.00    -0.388 OA
ATOM     26  H11 5ID d   1      64.362  31.868  15.524  0.00  0.00     0.210 HD
ENDBRANCH   4  25
BRANCH   1  27
ATOM     27  C5' 5ID d   1      64.360  31.908  10.599  0.00  0.00     0.043 C 
ATOM     28  H2  5ID d   1      63.421  31.779  10.040  0.00  0.00     0.078 H 
ATOM     29  H3  5ID d   1      64.665  32.964  10.565  0.00  0.00     0.078 H 
BRANCH  27  30
ATOM     30  O5' 5ID d   1      65.374  31.114   9.987  0.00  0.00    -0.398 OA
ATOM     31  H1  5ID d   1      65.115  30.200  10.008  0.00  0.00     0.209 HD
ENDBRANCH  27  30
ENDBRANCH   1  27
BRANCH   5  32
ATOM     32  O3' 5ID d   1      65.268  33.110  13.528  0.00  0.00    -0.390 OA
ATOM     33  H13 5ID d   1      65.954  33.198  14.179  0.00  0.00     0.210 HD
ENDBRANCH   5  32
TORSDOF 6
