REMARK  8 active torsions:
REMARK  status: ('A' for Active; 'I' for Inactive)
REMARK    1  A    between atoms: C1_1  and  C2_2 
REMARK    2  A    between atoms: C_8  and  C1_1 
REMARK    3  A    between atoms: C2_2  and  S_10 
REMARK    4  A    between atoms: S2_4  and  N6_6 
REMARK    5  A    between atoms: N5_7  and  S2_4 
REMARK    6  A    between atoms: N5_7  and  C_8 
REMARK    7  A    between atoms: S_10  and  C3_11 
REMARK    8  A    between atoms: C3_11  and  C4_12 
ROOT
ATOM      1  C1  FO9 d   1      -4.301   3.264  13.735  0.00  0.00    -0.002 C 
ATOM      2  H1  FO9 d   1      -3.227   3.307  13.499  0.00  0.00     0.045 H 
ATOM      3  H2  FO9 d   1      -4.845   2.819  12.889  0.00  0.00     0.045 H 
ENDROOT
BRANCH   1   4
ATOM      4  C2  FO9 d   1      -4.806   4.680  13.941  0.00  0.00    -0.017 C 
ATOM      5  H3  FO9 d   1      -5.636   4.646  14.662  0.00  0.00     0.049 H 
ATOM      6  H4  FO9 d   1      -5.174   5.056  12.975  0.00  0.00     0.049 H 
BRANCH   4   7
ATOM      7  S   FO9 d   1      -3.558   5.853  14.568  0.00  0.00    -0.163 SA
BRANCH   7   8
ATOM      8  C3  FO9 d   1      -2.592   6.279  13.090  0.00  0.00     0.017 C 
ATOM      9  H9  FO9 d   1      -3.280   6.660  12.321  0.00  0.00     0.058 H 
ATOM     10  H10 FO9 d   1      -2.098   5.368  12.721  0.00  0.00     0.058 H 
BRANCH   8  11
ATOM     11  C4  FO9 d   1      -1.548   7.313  13.344  0.00  0.00     0.050 A 
ATOM     12  N4  FO9 d   1      -1.752   8.221  14.369  0.00  0.00    -0.257 NA
ATOM     13  C6  FO9 d   1      -0.709   9.039  14.447  0.00  0.00     0.040 A 
ATOM     14  S1  FO9 d   1       0.543   8.760  13.310  0.00  0.00    -0.092 SA
ATOM     15  H11 FO9 d   1      -0.653   9.836  15.186  0.00  0.00     0.126 H 
ATOM     16  C5  FO9 d   1      -0.382   7.454  12.675  0.00  0.00    -0.019 A 
ATOM     17  H12 FO9 d   1      -0.069   6.824  11.844  0.00  0.00     0.098 H 
ENDBRANCH   8  11
ENDBRANCH   7   8
ENDBRANCH   4   7
ENDBRANCH   1   4
BRANCH   1  18
ATOM     18  C   FO9 d   1      -4.489   2.391  14.930  0.00  0.00     0.107 C 
ATOM     19  N   FO9 d   1      -3.398   1.924  15.546  0.00  0.00    -0.287 NA
ATOM     20  H8  FO9 d   1      -3.491   1.332  16.356  0.00  0.00     0.188 HD
BRANCH  18  21
ATOM     21  N5  FO9 d   1      -5.708   2.021  15.465  0.00  0.00    -0.256 N 
ATOM     22  H7  FO9 d   1      -6.534   2.458  15.108  0.00  0.00     0.181 HD
BRANCH  21  23
ATOM     23  S2  FO9 d   1      -5.875   0.880  16.679  0.00  0.00     0.318 S 
ATOM     24  O1  FO9 d   1      -4.959   1.278  17.716  0.00  0.00    -0.183 OA
ATOM     25  O   FO9 d   1      -7.302   0.836  16.853  0.00  0.00    -0.183 OA
BRANCH  23  26
ATOM     26  N6  FO9 d   1      -5.306  -0.498  16.061  0.00  0.00    -0.311 N 
ATOM     27  H5  FO9 d   1      -4.326  -0.602  15.889  0.00  0.00     0.170 HD
ATOM     28  H6  FO9 d   1      -5.933  -1.248  15.850  0.00  0.00     0.170 HD
ENDBRANCH  23  26
ENDBRANCH  21  23
ENDBRANCH  18  21
ENDBRANCH   1  18
TORSDOF 8
