REMARK  8 active torsions:
REMARK  status: ('A' for Active; 'I' for Inactive)
REMARK    1  A    between atoms: C8_3  and  N18_18 
REMARK    2  A    between atoms: C12_6  and  C9_4 
REMARK       I    between atoms: N14_12  and  C12_6 
REMARK    3  A    between atoms: C2_7  and  S1_14 
REMARK    4  A    between atoms: S1_14  and  N5_8 
REMARK    5  A    between atoms: C15_9  and  C16_10 
REMARK    6  A    between atoms: C15_9  and  N14_12 
REMARK    7  A    between atoms: C16_10  and  O17_13 
REMARK    8  A    between atoms: N18_18  and  C19_19 
ROOT
ATOM      1  C6  EM5 d   1      25.725   4.079   9.292  0.00  0.00     0.059 A 
ATOM      2  C7  EM5 d   1      26.558   5.177   9.570  0.00  0.00    -0.034 A 
ATOM      3  C8  EM5 d   1      26.449   5.811  10.804  0.00  0.00     0.045 A 
ATOM      4  C9  EM5 d   1      25.438   5.431  11.718  0.00  0.00     0.059 A 
ATOM      5  C10 EM5 d   1      24.604   4.370  11.361  0.00  0.00    -0.041 A 
ATOM      6  C2  EM5 d   1      24.700   3.688  10.194  0.00  0.00     0.102 A 
ATOM      7 CL1  EM5 d   1      25.920   3.298   7.784  0.00  0.00    -0.083 Cl
ATOM      8  H1  EM5 d   1      27.274   5.524   8.834  0.00  0.00     0.089 H 
ATOM      9  H2  EM5 d   1      23.831   4.073  12.061  0.00  0.00     0.087 H 
ENDROOT
BRANCH   3  10
ATOM     10  N18 EM5 d   1      27.238   6.918  11.096  0.00  0.00    -0.384 N 
ATOM     11  H11 EM5 d   1      27.140   7.367  12.018  0.00  0.00     0.160 HD
BRANCH  10  12
ATOM     12  C19 EM5 d   1      28.207   7.471  10.138  0.00  0.00     0.009 C 
ATOM     13  C23 EM5 d   1      28.514   8.896  10.543  0.00  0.00    -0.046 C 
ATOM     14  C24 EM5 d   1      29.513   9.556   9.675  0.00  0.00    -0.063 C 
ATOM     15  H13 EM5 d   1      28.899   8.889  11.573  0.00  0.00     0.035 H 
ATOM     16  H14 EM5 d   1      27.581   9.477  10.504  0.00  0.00     0.035 H 
ATOM     17  C22 EM5 d   1      30.776   8.741   9.614  0.00  0.00    -0.065 C 
ATOM     18  H15 EM5 d   1      29.744  10.552  10.081  0.00  0.00     0.033 H 
ATOM     19  H16 EM5 d   1      29.100   9.660   8.661  0.00  0.00     0.033 H 
ATOM     20  C21 EM5 d   1      30.486   7.288   9.222  0.00  0.00    -0.063 C 
ATOM     21  H17 EM5 d   1      31.259   8.755  10.602  0.00  0.00     0.033 H 
ATOM     22  H18 EM5 d   1      31.452   9.184   8.868  0.00  0.00     0.033 H 
ATOM     23  C20 EM5 d   1      29.492   6.647  10.153  0.00  0.00    -0.046 C 
ATOM     24  H19 EM5 d   1      31.425   6.716   9.255  0.00  0.00     0.033 H 
ATOM     25  H20 EM5 d   1      30.080   7.269   8.200  0.00  0.00     0.033 H 
ATOM     26  H21 EM5 d   1      29.278   5.622   9.817  0.00  0.00     0.035 H 
ATOM     27  H22 EM5 d   1      29.903   6.621  11.173  0.00  0.00     0.035 H 
ATOM     28  H12 EM5 d   1      27.776   7.457   9.126  0.00  0.00     0.072 H 
ENDBRANCH  10  12
ENDBRANCH   3  10
BRANCH   4  29
ATOM     29  C12 EM5 d   1      25.330   6.090  13.017  0.00  0.00     0.254 C 
ATOM     30  O13 EM5 d   1      26.338   6.147  13.814  0.00  0.00    -0.268 OA
ATOM     31  N14 EM5 d   1      24.234   6.602  13.393  0.00  0.00    -0.355 N 
ATOM     32  H9  EM5 d   1      23.423   6.488  12.820  0.00  0.00     0.162 HD
BRANCH  31  33
ATOM     33  C15 EM5 d   1      24.123   7.345  14.625  0.00  0.00     0.015 C 
ATOM     34  H5  EM5 d   1      25.099   7.327  15.132  0.00  0.00     0.067 H 
ATOM     35  H6  EM5 d   1      23.855   8.384  14.383  0.00  0.00     0.067 H 
BRANCH  33  36
ATOM     36  C16 EM5 d   1      23.132   6.816  15.523  0.00  0.00     0.031 C 
ATOM     37  H7  EM5 d   1      22.227   6.529  14.967  0.00  0.00     0.076 H 
ATOM     38  H8  EM5 d   1      22.871   7.563  16.287  0.00  0.00     0.076 H 
BRANCH  36  39
ATOM     39  O17 EM5 d   1      23.707   5.701  16.116  0.00  0.00    -0.399 OA
ATOM     40  H10 EM5 d   1      23.934   5.069  15.445  0.00  0.00     0.209 HD
ENDBRANCH  36  39
ENDBRANCH  33  36
ENDBRANCH  31  33
ENDBRANCH   4  29
BRANCH   6  41
ATOM     41  S1  EM5 d   1      23.686   2.281   9.889  0.00  0.00     0.258 S 
ATOM     42  O4  EM5 d   1      22.966   2.527   8.649  0.00  0.00    -0.201 OA
ATOM     43  O3  EM5 d   1      24.603   1.169   9.908  0.00  0.00    -0.201 OA
BRANCH  41  44
ATOM     44  N5  EM5 d   1      22.660   2.147  11.094  0.00  0.00    -0.324 N 
ATOM     45  H3  EM5 d   1      21.994   1.401  11.103  0.00  0.00     0.169 HD
ATOM     46  H4  EM5 d   1      22.680   2.808  11.844  0.00  0.00     0.169 HD
ENDBRANCH  41  44
ENDBRANCH   6  41
TORSDOF 8
