REMARK  7 active torsions:
REMARK  status: ('A' for Active; 'I' for Inactive)
REMARK    1  A    between atoms: C4_2  and  C13_6 
REMARK    2  A    between atoms: C6_3  and  S7_16 
REMARK       I    between atoms: C13_6  and  N15_7 
REMARK    3  A    between atoms: N15_7  and  C16_8 
REMARK    4  A    between atoms: C16_8  and  C17_9 
REMARK    5  A    between atoms: C17_9  and  C18_10 
REMARK    6  A    between atoms: C18_10  and  C19_11 
REMARK    7  A    between atoms: S7_16  and  N8_19 
ROOT
ATOM      1  O14 ENN d   1      18.875  -0.817 -15.155  0.00  0.00    -0.268 OA
ATOM      2  C13 ENN d   1      19.599  -1.008 -16.157  0.00  0.00     0.253 C 
ATOM      3  N15 ENN d   1      19.998  -2.222 -16.484  0.00  0.00    -0.357 N 
ATOM      4  H3  ENN d   1      20.518  -2.377 -17.324  0.00  0.00     0.162 HD
ENDROOT
BRANCH   2   5
ATOM      5  C4  ENN d   1      19.942   0.141 -17.021  0.00  0.00     0.055 A 
ATOM      6  C5  ENN d   1      20.471   1.268 -16.398  0.00  0.00    -0.042 A 
ATOM      7  C6  ENN d   1      20.746   2.398 -17.081  0.00  0.00     0.102 A 
ATOM      8  H1  ENN d   1      20.668   1.236 -15.332  0.00  0.00     0.087 H 
ATOM      9  C1  ENN d   1      20.573   2.434 -18.476  0.00  0.00     0.059 A 
ATOM     10  C2  ENN d   1      20.077   1.325 -19.116  0.00  0.00    -0.038 A 
ATOM     11 CL2  ENN d   1      20.919   3.879 -19.374  0.00  0.00    -0.083 Cl
ATOM     12  C3  ENN d   1      19.785   0.176 -18.387  0.00  0.00     0.051 A 
ATOM     13  H2  ENN d   1      19.913   1.344 -20.187  0.00  0.00     0.088 H 
ATOM     14 CL1  ENN d   1      19.152  -1.188 -19.318  0.00  0.00    -0.083 Cl
BRANCH   7  15
ATOM     15  S7  ENN d   1      21.373   3.807 -16.118  0.00  0.00     0.258 S 
ATOM     16  O9  ENN d   1      22.582   4.275 -16.826  0.00  0.00    -0.201 OA
ATOM     17  O10 ENN d   1      20.325   4.833 -16.078  0.00  0.00    -0.201 OA
BRANCH  15  18
ATOM     18  N8  ENN d   1      21.798   3.520 -14.543  0.00  0.00    -0.324 N 
ATOM     19  H13 ENN d   1      22.148   4.266 -13.976  0.00  0.00     0.169 HD
ATOM     20  H14 ENN d   1      21.705   2.601 -14.159  0.00  0.00     0.169 HD
ENDBRANCH  15  18
ENDBRANCH   7  15
ENDBRANCH   2   5
BRANCH   3  21
ATOM     21  C16 ENN d   1      19.665  -3.348 -15.590  0.00  0.00    -0.004 C 
ATOM     22  H4  ENN d   1      18.581  -3.352 -15.401  0.00  0.00     0.064 H 
ATOM     23  H5  ENN d   1      20.203  -3.226 -14.638  0.00  0.00     0.064 H 
BRANCH  21  24
ATOM     24  C17 ENN d   1      20.063  -4.658 -16.220  0.00  0.00    -0.051 C 
ATOM     25  H6  ENN d   1      20.360  -5.370 -15.435  0.00  0.00     0.035 H 
ATOM     26  H7  ENN d   1      20.907  -4.496 -16.907  0.00  0.00     0.035 H 
BRANCH  24  27
ATOM     27  C18 ENN d   1      18.877  -5.215 -16.992  0.00  0.00    -0.067 C 
ATOM     28  H8  ENN d   1      19.235  -5.976 -17.701  0.00  0.00     0.032 H 
ATOM     29  H9  ENN d   1      18.392  -4.397 -17.545  0.00  0.00     0.032 H 
BRANCH  27  30
ATOM     30  C19 ENN d   1      17.859  -5.852 -16.050  0.00  0.00    -0.076 C 
ATOM     31  H10 ENN d   1      17.014  -6.245 -16.635  0.00  0.00     0.027 H 
ATOM     32  H11 ENN d   1      17.493  -5.096 -15.340  0.00  0.00     0.027 H 
ATOM     33  H12 ENN d   1      18.336  -6.674 -15.496  0.00  0.00     0.027 H 
ENDBRANCH  27  30
ENDBRANCH  24  27
ENDBRANCH  21  24
ENDBRANCH   3  21
TORSDOF 7
