REMARK  7 active torsions:
REMARK  status: ('A' for Active; 'I' for Inactive)
REMARK    1  A    between atoms: C4_2  and  C13_6 
REMARK    2  A    between atoms: C6_3  and  S7_16 
REMARK    3  A    between atoms: N15_7  and  C16_8 
REMARK    4  A    between atoms: C16_8  and  C17_9 
REMARK    5  A    between atoms: C17_9  and  C18_10 
REMARK    6  A    between atoms: C18_10  and  C19_11 
REMARK    7  A    between atoms: S7_16  and  N8_19 
ROOT
ATOM      1  O14 ENN d   1      -4.590   3.022  11.318  0.00  0.00    -0.172 OA
ATOM      2  C13 ENN d   1      -3.996   2.661  12.420  0.00  0.00     0.186 C 
ATOM      3  N15 ENN d   1      -2.915   1.976  12.383  0.00  0.00    -0.368 N 
ATOM      4  H3  ENN d   1      -2.582   1.596  13.246  0.00  0.00     0.161 HD
ENDROOT
BRANCH   2   5
ATOM      5  C4  ENN d   1      -4.621   2.900  13.690  0.00  0.00     0.041 A 
ATOM      6  C5  ENN d   1      -4.843   1.861  14.596  0.00  0.00    -0.043 A 
ATOM      7  C6  ENN d   1      -5.515   2.082  15.811  0.00  0.00     0.102 A 
ATOM      8  H1  ENN d   1      -4.490   0.864  14.358  0.00  0.00     0.087 H 
ATOM      9  C1  ENN d   1      -5.866   3.412  16.127  0.00  0.00     0.059 A 
ATOM     10  C2  ENN d   1      -5.631   4.462  15.252  0.00  0.00    -0.038 A 
ATOM     11 CL2  ENN d   1      -6.685   3.778  17.601  0.00  0.00    -0.083 Cl
ATOM     12  C3  ENN d   1      -5.007   4.188  14.041  0.00  0.00     0.050 A 
ATOM     13  H2  ENN d   1      -5.927   5.473  15.507  0.00  0.00     0.088 H 
ATOM     14 CL1  ENN d   1      -4.529   5.515  13.111  0.00  0.00    -0.083 Cl
BRANCH   7  15
ATOM     15  S7  ENN d   1      -5.930   0.719  16.858  0.00  0.00     0.258 S 
ATOM     16  O9  ENN d   1      -5.286   0.970  18.126  0.00  0.00    -0.201 OA
ATOM     17  O10 ENN d   1      -7.372   0.711  16.837  0.00  0.00    -0.201 OA
BRANCH  15  18
ATOM     18  N8  ENN d   1      -5.349  -0.587  16.177  0.00  0.00    -0.324 N 
ATOM     19  H13 ENN d   1      -5.476  -1.478  16.614  0.00  0.00     0.169 HD
ATOM     20  H14 ENN d   1      -4.855  -0.521  15.310  0.00  0.00     0.169 HD
ENDBRANCH  15  18
ENDBRANCH   7  15
ENDBRANCH   2   5
BRANCH   3  21
ATOM     21  C16 ENN d   1      -2.108   1.697  11.150  0.00  0.00    -0.005 C 
ATOM     22  H4  ENN d   1      -2.716   1.928  10.263  0.00  0.00     0.064 H 
ATOM     23  H5  ENN d   1      -1.829   0.633  11.137  0.00  0.00     0.064 H 
BRANCH  21  24
ATOM     24  C17 ENN d   1      -0.837   2.546  11.118  0.00  0.00    -0.051 C 
ATOM     25  H6  ENN d   1      -0.255   2.316  10.214  0.00  0.00     0.035 H 
ATOM     26  H7  ENN d   1      -0.226   2.341  12.010  0.00  0.00     0.035 H 
BRANCH  24  27
ATOM     27  C18 ENN d   1      -1.267   4.024  11.104  0.00  0.00    -0.067 C 
ATOM     28  H8  ENN d   1      -1.967   4.221  11.930  0.00  0.00     0.032 H 
ATOM     29  H9  ENN d   1      -1.751   4.267  10.147  0.00  0.00     0.032 H 
BRANCH  27  30
ATOM     30  C19 ENN d   1       0.068   4.908  11.288  0.00  0.00    -0.076 C 
ATOM     31  H10 ENN d   1      -0.196   5.976  11.284  0.00  0.00     0.027 H 
ATOM     32  H11 ENN d   1       0.763   4.699  10.462  0.00  0.00     0.027 H 
ATOM     33  H12 ENN d   1       0.548   4.653  12.244  0.00  0.00     0.027 H 
ENDBRANCH  27  30
ENDBRANCH  24  27
ENDBRANCH  21  24
ENDBRANCH   3  21
TORSDOF 7
