REMARK  9 active torsions:
REMARK  status: ('A' for Active; 'I' for Inactive)
REMARK    1  A    between atoms: C8_3  and  N18_18 
REMARK    2  A    between atoms: C12_6  and  C9_4 
REMARK       I    between atoms: N14_12  and  C12_6 
REMARK    3  A    between atoms: C2_7  and  S1_14 
REMARK    4  A    between atoms: S1_14  and  N5_8 
REMARK    5  A    between atoms: C15_9  and  C16_10 
REMARK    6  A    between atoms: C15_9  and  N14_12 
REMARK    7  A    between atoms: C16_10  and  O17_13 
REMARK    8  A    between atoms: N18_18  and  C19_19 
REMARK    9  A    between atoms: C19_19  and  C20_20 
ROOT
ATOM      1  C6  EOQ d   1      25.661   3.969   9.095  0.00  0.00     0.059 A 
ATOM      2  C7  EOQ d   1      26.600   4.973   9.329  0.00  0.00    -0.034 A 
ATOM      3  C8  EOQ d   1      26.545   5.655  10.491  0.00  0.00     0.045 A 
ATOM      4  C9  EOQ d   1      25.575   5.378  11.481  0.00  0.00     0.059 A 
ATOM      5  C10 EOQ d   1      24.590   4.381  11.261  0.00  0.00    -0.041 A 
ATOM      6  C2  EOQ d   1      24.677   3.646  10.057  0.00  0.00     0.102 A 
ATOM      7 CL1  EOQ d   1      25.863   3.168   7.603  0.00  0.00    -0.083 Cl
ATOM      8  H1  EOQ d   1      27.360   5.201   8.591  0.00  0.00     0.089 H 
ATOM      9  H2  EOQ d   1      23.805   4.191  11.984  0.00  0.00     0.087 H 
ENDROOT
BRANCH   3  10
ATOM     10  N18 EOQ d   1      27.525   6.691  10.646  0.00  0.00    -0.385 N 
ATOM     11  H11 EOQ d   1      27.634   7.180  11.546  0.00  0.00     0.160 HD
BRANCH  10  12
ATOM     12  C19 EOQ d   1      28.368   7.040   9.499  0.00  0.00     0.016 C 
ATOM     13  H12 EOQ d   1      27.743   7.094   8.596  0.00  0.00     0.071 H 
ATOM     14  H13 EOQ d   1      29.136   6.264   9.367  0.00  0.00     0.071 H 
BRANCH  12  15
ATOM     15  C20 EOQ d   1      29.036   8.358   9.710  0.00  0.00    -0.041 A 
ATOM     16  C22 EOQ d   1      28.392   9.582   9.421  0.00  0.00    -0.075 A 
ATOM     17  C25 EOQ d   1      29.091  10.784   9.670  0.00  0.00    -0.082 A 
ATOM     18  H14 EOQ d   1      27.386   9.598   9.018  0.00  0.00     0.084 H 
ATOM     19  C24 EOQ d   1      30.393  10.749  10.212  0.00  0.00    -0.083 A 
ATOM     20  H15 EOQ d   1      28.625  11.736   9.444  0.00  0.00     0.083 H 
ATOM     21  C23 EOQ d   1      31.036   9.545  10.496  0.00  0.00    -0.082 A 
ATOM     22  H16 EOQ d   1      30.907  11.682  10.413  0.00  0.00     0.083 H 
ATOM     23  C21 EOQ d   1      30.334   8.344  10.254  0.00  0.00    -0.075 A 
ATOM     24  H17 EOQ d   1      32.045   9.531  10.891  0.00  0.00     0.083 H 
ATOM     25  H18 EOQ d   1      30.802   7.396  10.491  0.00  0.00     0.084 H 
ENDBRANCH  12  15
ENDBRANCH  10  12
ENDBRANCH   3  10
BRANCH   4  26
ATOM     26  C12 EOQ d   1      25.501   6.179  12.686  0.00  0.00     0.254 C 
ATOM     27  O13 EOQ d   1      26.538   6.492  13.331  0.00  0.00    -0.268 OA
ATOM     28  N14 EOQ d   1      24.326   6.612  13.076  0.00  0.00    -0.355 N 
ATOM     29  H9  EOQ d   1      23.494   6.358  12.582  0.00  0.00     0.162 HD
BRANCH  28  30
ATOM     30  C15 EOQ d   1      24.269   7.462  14.233  0.00  0.00     0.015 C 
ATOM     31  H5  EOQ d   1      25.281   7.612  14.638  0.00  0.00     0.067 H 
ATOM     32  H6  EOQ d   1      23.834   8.435  13.962  0.00  0.00     0.067 H 
BRANCH  30  33
ATOM     33  C16 EOQ d   1      23.411   6.788  15.248  0.00  0.00     0.031 C 
ATOM     34  H7  EOQ d   1      22.532   6.338  14.764  0.00  0.00     0.076 H 
ATOM     35  H8  EOQ d   1      23.081   7.512  16.007  0.00  0.00     0.076 H 
BRANCH  33  36
ATOM     36  O17 EOQ d   1      24.201   5.789  15.842  0.00  0.00    -0.399 OA
ATOM     37  H10 EOQ d   1      24.485   5.174  15.176  0.00  0.00     0.209 HD
ENDBRANCH  33  36
ENDBRANCH  30  33
ENDBRANCH  28  30
ENDBRANCH   4  26
BRANCH   6  38
ATOM     38  S1  EOQ d   1      23.606   2.264   9.780  0.00  0.00     0.258 S 
ATOM     39  O4  EOQ d   1      22.853   2.463   8.534  0.00  0.00    -0.201 OA
ATOM     40  O3  EOQ d   1      24.510   1.085   9.804  0.00  0.00    -0.201 OA
BRANCH  38  41
ATOM     41  N5  EOQ d   1      22.568   2.141  10.986  0.00  0.00    -0.324 N 
ATOM     42  H3  EOQ d   1      21.887   1.409  10.987  0.00  0.00     0.169 HD
ATOM     43  H4  EOQ d   1      22.598   2.796  11.741  0.00  0.00     0.169 HD
ENDBRANCH  38  41
ENDBRANCH   6  38
TORSDOF 9
