REMARK  8 active torsions:
REMARK  status: ('A' for Active; 'I' for Inactive)
REMARK    1  A    between atoms: C10_3  and  S30_4 
REMARK    2  A    between atoms: S30_4  and  C31_5 
REMARK    3  A    between atoms: C31_5  and  C32_6 
REMARK    4  A    between atoms: C32_6  and  C33_7 
REMARK    5  A    between atoms: C36_10  and  C39_11 
REMARK    6  A    between atoms: C7_21  and  S37_22 
REMARK    7  A    between atoms: S37_22  and  N40_24 
REMARK    8  A    between atoms: N16_26  and  C18_27 
ROOT
ATOM      1  F15 ER5 d   1      17.220 -24.149 -52.782  0.00  0.00    -0.202 F 
ATOM      2  C9  ER5 d   1      18.146 -23.484 -53.463  0.00  0.00     0.164 A 
ATOM      3  C10 ER5 d   1      19.451 -23.274 -52.819  0.00  0.00     0.083 A 
ATOM      4  C11 ER5 d   1      20.503 -22.541 -53.518  0.00  0.00     0.176 A 
ATOM      5  F14 ER5 d   1      21.697 -22.365 -52.942  0.00  0.00    -0.201 F 
ATOM      6  C12 ER5 d   1      20.235 -21.993 -54.845  0.00  0.00     0.181 A 
ATOM      7  F13 ER5 d   1      21.247 -21.346 -55.404  0.00  0.00    -0.201 F 
ATOM      8  C8  ER5 d   1      17.851 -22.922 -54.799  0.00  0.00     0.095 A 
ATOM      9  C7  ER5 d   1      18.926 -22.173 -55.527  0.00  0.00     0.150 A 
ATOM     10  N16 ER5 d   1      16.699 -23.210 -55.432  0.00  0.00    -0.381 N 
ATOM     11  H11 ER5 d   1      16.247 -22.483 -56.005  0.00  0.00     0.160 HD
ENDROOT
BRANCH  10  12
ATOM     12  C18 ER5 d   1      16.068 -24.534 -55.329  0.00  0.00     0.010 C 
ATOM     13  C19 ER5 d   1      14.530 -24.475 -55.341  0.00  0.00    -0.046 C 
ATOM     14  C20 ER5 d   1      13.689 -24.879 -56.554  0.00  0.00    -0.063 C 
ATOM     15  H13 ER5 d   1      14.265 -23.430 -55.124  0.00  0.00     0.035 H 
ATOM     16  H14 ER5 d   1      14.196 -25.118 -54.513  0.00  0.00     0.035 H 
ATOM     17  C21 ER5 d   1      13.049 -26.266 -56.470  0.00  0.00    -0.065 C 
ATOM     18  H15 ER5 d   1      14.339 -24.857 -57.441  0.00  0.00     0.033 H 
ATOM     19  H16 ER5 d   1      12.883 -24.139 -56.671  0.00  0.00     0.033 H 
ATOM     20  C22 ER5 d   1      13.935 -27.420 -56.929  0.00  0.00    -0.065 C 
ATOM     21  H17 ER5 d   1      12.145 -26.262 -57.096  0.00  0.00     0.033 H 
ATOM     22  H18 ER5 d   1      12.769 -26.448 -55.422  0.00  0.00     0.033 H 
ATOM     23  C23 ER5 d   1      14.238 -27.368 -58.421  0.00  0.00    -0.065 C 
ATOM     24  H19 ER5 d   1      13.423 -28.368 -56.706  0.00  0.00     0.033 H 
ATOM     25  H20 ER5 d   1      14.884 -27.377 -56.375  0.00  0.00     0.033 H 
ATOM     26  C24 ER5 d   1      15.284 -28.418 -58.797  0.00  0.00    -0.065 C 
ATOM     27  H21 ER5 d   1      14.621 -26.369 -58.677  0.00  0.00     0.033 H 
ATOM     28  H22 ER5 d   1      13.313 -27.562 -58.984  0.00  0.00     0.033 H 
ATOM     29  C25 ER5 d   1      16.715 -27.897 -58.756  0.00  0.00    -0.065 C 
ATOM     30  H23 ER5 d   1      15.072 -28.770 -59.817  0.00  0.00     0.033 H 
ATOM     31  H24 ER5 d   1      15.200 -29.259 -58.093  0.00  0.00     0.033 H 
ATOM     32  C26 ER5 d   1      17.489 -28.332 -57.514  0.00  0.00    -0.065 C 
ATOM     33  H25 ER5 d   1      16.686 -26.798 -58.780  0.00  0.00     0.033 H 
ATOM     34  H26 ER5 d   1      17.246 -28.269 -59.645  0.00  0.00     0.033 H 
ATOM     35  C27 ER5 d   1      18.359 -27.204 -56.969  0.00  0.00    -0.065 C 
ATOM     36  H27 ER5 d   1      18.133 -29.185 -57.776  0.00  0.00     0.033 H 
ATOM     37  H28 ER5 d   1      16.773 -28.638 -56.737  0.00  0.00     0.033 H 
ATOM     38  C28 ER5 d   1      17.626 -26.434 -55.876  0.00  0.00    -0.063 C 
ATOM     39  H29 ER5 d   1      18.611 -26.515 -57.788  0.00  0.00     0.033 H 
ATOM     40  H30 ER5 d   1      19.283 -27.631 -56.552  0.00  0.00     0.033 H 
ATOM     41  C29 ER5 d   1      16.738 -25.343 -56.451  0.00  0.00    -0.046 C 
ATOM     42  H31 ER5 d   1      18.368 -25.973 -55.207  0.00  0.00     0.033 H 
ATOM     43  H32 ER5 d   1      17.002 -27.136 -55.304  0.00  0.00     0.033 H 
ATOM     44  H33 ER5 d   1      17.350 -24.667 -57.066  0.00  0.00     0.035 H 
ATOM     45  H34 ER5 d   1      15.960 -25.804 -57.077  0.00  0.00     0.035 H 
ATOM     46  H12 ER5 d   1      16.351 -24.987 -54.367  0.00  0.00     0.072 H 
ENDBRANCH  10  12
BRANCH   9  47
ATOM     47  S37 ER5 d   1      18.759 -21.535 -57.011  0.00  0.00     0.262 S 
ATOM     48  O38 ER5 d   1      17.405 -21.505 -57.484  0.00  0.00    -0.201 OA
ATOM     49  O39 ER5 d   1      19.537 -22.337 -57.934  0.00  0.00    -0.201 OA
BRANCH  47  50
ATOM     50  N40 ER5 d   1      19.303 -20.026 -56.978  0.00  0.00    -0.324 N 
ATOM     51  H9  ER5 d   1      19.281 -19.468 -57.808  0.00  0.00     0.169 HD
ATOM     52  H10 ER5 d   1      19.664 -19.643 -56.128  0.00  0.00     0.169 HD
ENDBRANCH  47  50
ENDBRANCH   9  47
BRANCH   3  53
ATOM     53  S30 ER5 d   1      19.815 -23.921 -51.312  0.00  0.00    -0.123 SA
BRANCH  53  54
ATOM     54  C31 ER5 d   1      20.794 -25.373 -51.720  0.00  0.00    -0.015 C 
ATOM     55  H1  ER5 d   1      21.167 -25.786 -50.771  0.00  0.00     0.049 H 
ATOM     56  H2  ER5 d   1      21.642 -25.028 -52.329  0.00  0.00     0.049 H 
BRANCH  54  57
ATOM     57  C32 ER5 d   1      20.128 -26.542 -52.492  0.00  0.00    -0.033 C 
ATOM     58  H3  ER5 d   1      20.909 -27.199 -52.903  0.00  0.00     0.041 H 
ATOM     59  H4  ER5 d   1      19.520 -26.136 -53.314  0.00  0.00     0.041 H 
BRANCH  57  60
ATOM     60  C33 ER5 d   1      19.243 -27.339 -51.560  0.00  0.00    -0.057 A 
ATOM     61  C34 ER5 d   1      19.823 -28.132 -50.568  0.00  0.00    -0.076 A 
ATOM     62  C35 ER5 d   1      19.003 -28.836 -49.679  0.00  0.00    -0.066 A 
ATOM     63  H5  ER5 d   1      20.902 -28.202 -50.487  0.00  0.00     0.084 H 
ATOM     64  C36 ER5 d   1      17.602 -28.762 -49.792  0.00  0.00     0.040 A 
ATOM     65  H6  ER5 d   1      19.449 -29.442 -48.899  0.00  0.00     0.085 H 
ATOM     66  C37 ER5 d   1      17.021 -27.953 -50.785  0.00  0.00    -0.066 A 
ATOM     67  C38 ER5 d   1      17.842 -27.250 -51.666  0.00  0.00    -0.076 A 
ATOM     68  H7  ER5 d   1      15.943 -27.877 -50.865  0.00  0.00     0.085 H 
ATOM     69  H8  ER5 d   1      17.399 -26.631 -52.438  0.00  0.00     0.084 H 
BRANCH  64  70
ATOM     70  C39 ER5 d   1      16.738 -29.491 -48.801  0.00  0.00     0.209 C 
ATOM     71  O40 ER5 d   1      15.524 -29.281 -48.724  0.00  0.00    -0.644 OA
ATOM     72  O41 ER5 d   1      17.319 -30.298 -47.920  0.00  0.00    -0.644 OA
ENDBRANCH  64  70
ENDBRANCH  57  60
ENDBRANCH  54  57
ENDBRANCH  53  54
ENDBRANCH   3  53
TORSDOF 8
