REMARK  6 active torsions:
REMARK  status: ('A' for Active; 'I' for Inactive)
REMARK    1  A    between atoms: C16_18  and  C17_13 
REMARK    2  A    between atoms: C17_13  and  N2_21 
REMARK    3  A    between atoms: N2_21  and  C18_14 
REMARK    4  A    between atoms: C15_17  and  C16_18 
REMARK    5  A    between atoms: C15_17  and  N1_20 
REMARK    6  A    between atoms: N2_21  and  C19_19 
ROOT
ATOM      1  C1  CXX d   1     -46.046  13.558  -5.770  0.00  0.00    -0.035 A 
ATOM      2  C2  CXX d   1     -45.849  14.008  -7.072  0.00  0.00     0.036 A 
ATOM      3  C3  CXX d   1     -46.453  13.339  -8.126  0.00  0.00    -0.061 A 
ATOM      4  C4  CXX d   1     -47.250  12.232  -7.861  0.00  0.00    -0.073 A 
ATOM      5  C5  CXX d   1     -48.336  10.551  -6.410  0.00  0.00    -0.035 C 
ATOM      6  C6  CXX d   1     -48.129   9.771  -5.119  0.00  0.00    -0.035 C 
ATOM      7  C8  CXX d   1     -50.637  10.892  -2.499  0.00  0.00    -0.082 A 
ATOM      8  C9  CXX d   1     -50.023  12.051  -2.035  0.00  0.00    -0.081 A 
ATOM      9  C10 CXX d   1     -48.805  12.451  -2.576  0.00  0.00    -0.057 A 
ATOM     10  C11 CXX d   1     -48.202  11.698  -3.582  0.00  0.00     0.041 A 
ATOM     11  C13 CXX d   1     -47.447  11.772  -6.559  0.00  0.00    -0.031 A 
ATOM     12  C14 CXX d   1     -46.843  12.448  -5.495  0.00  0.00     0.042 A 
ATOM     13  C7  CXX d   1     -50.031  10.139  -3.500  0.00  0.00    -0.075 A 
ATOM     14  C12 CXX d   1     -48.813  10.550  -4.030  0.00  0.00    -0.031 A 
ATOM     15  N1  CXX d   1     -46.972  12.086  -4.139  0.00  0.00    -0.346 N 
ATOM     16 CL2  CXX d   1     -44.817  15.446  -7.389  0.00  0.00    -0.084 Cl
ATOM     17  H1  CXX d   1     -45.569  14.083  -4.950  0.00  0.00     0.089 H 
ATOM     18  H2  CXX d   1     -46.305  13.676  -9.146  0.00  0.00     0.086 H 
ATOM     19  H3  CXX d   1     -47.729  11.714  -8.684  0.00  0.00     0.084 H 
ATOM     20  H4  CXX d   1     -49.384  10.883  -6.446  0.00  0.00     0.040 H 
ATOM     21  H5  CXX d   1     -48.136   9.876  -7.255  0.00  0.00     0.040 H 
ATOM     22  H6  CXX d   1     -47.055   9.677  -4.901  0.00  0.00     0.040 H 
ATOM     23  H7  CXX d   1     -48.575   8.769  -5.206  0.00  0.00     0.040 H 
ATOM     24  H8  CXX d   1     -51.586  10.576  -2.081  0.00  0.00     0.083 H 
ATOM     25  H9  CXX d   1     -50.492  12.640  -1.255  0.00  0.00     0.083 H 
ATOM     26  H10 CXX d   1     -48.323  13.352  -2.214  0.00  0.00     0.086 H 
ATOM     27  H16 CXX d   1     -50.507   9.236  -3.865  0.00  0.00     0.084 H 
ENDROOT
BRANCH  15  28
ATOM     28  C15 CXX d   1     -45.791  12.173  -3.288  0.00  0.00     0.002 C 
ATOM     29  H17 CXX d   1     -44.886  12.257  -3.908  0.00  0.00     0.065 H 
ATOM     30  H18 CXX d   1     -45.867  13.050  -2.629  0.00  0.00     0.065 H 
BRANCH  28  31
ATOM     31  C16 CXX d   1     -45.734  10.897  -2.453  0.00  0.00    -0.027 C 
ATOM     32  H19 CXX d   1     -46.748  10.481  -2.356  0.00  0.00     0.037 H 
ATOM     33  H20 CXX d   1     -45.083  10.164  -2.953  0.00  0.00     0.037 H 
BRANCH  31  34
ATOM     34  C17 CXX d   1     -45.179  11.201  -1.067  0.00  0.00     0.084 C 
ATOM     35  H11 CXX d   1     -45.981  11.610  -0.435  0.00  0.00     0.076 H 
ATOM     36  H12 CXX d   1     -44.368  11.939  -1.153  0.00  0.00     0.076 H 
BRANCH  34  37
ATOM     37  N2  CXX d   1     -44.656   9.973  -0.454  0.00  0.00    -0.079 N 
ATOM     38  H24 CXX d   1     -45.304   9.216  -0.605  0.00  0.00     0.278 HD
BRANCH  37  39
ATOM     39  C18 CXX d   1     -44.484  10.195   0.989  0.00  0.00     0.066 C 
ATOM     40  H13 CXX d   1     -44.092   9.280   1.457  0.00  0.00     0.068 H 
ATOM     41  H14 CXX d   1     -45.455  10.450   1.439  0.00  0.00     0.068 H 
ATOM     42  H15 CXX d   1     -43.776  11.021   1.151  0.00  0.00     0.068 H 
ENDBRANCH  37  39
BRANCH  37  43
ATOM     43  C19 CXX d   1     -43.359   9.639  -1.061  0.00  0.00     0.066 C 
ATOM     44  H21 CXX d   1     -43.491   9.473  -2.140  0.00  0.00     0.068 H 
ATOM     45  H22 CXX d   1     -42.961   8.725  -0.596  0.00  0.00     0.068 H 
ATOM     46  H23 CXX d   1     -42.655  10.469  -0.901  0.00  0.00     0.068 H 
ENDBRANCH  37  43
ENDBRANCH  34  37
ENDBRANCH  31  34
ENDBRANCH  28  31
ENDBRANCH  15  28
TORSDOF 6
