REMARK  8 active torsions:
REMARK  status: ('A' for Active; 'I' for Inactive)
REMARK    1  A    between atoms: C10_3  and  S16_4 
REMARK    2  A    between atoms: S16_4  and  C17_5 
REMARK    3  A    between atoms: C17_5  and  C18_6 
REMARK    4  A    between atoms: C18_6  and  C19_7 
REMARK    5  A    between atoms: C22_10  and  C25_11 
REMARK    6  A    between atoms: C7_18  and  S4_19 
REMARK    7  A    between atoms: S4_19  and  N1_21 
REMARK    8  A    between atoms: N58_26  and  C28_27 
ROOT
ATOM      1  F14 ETK d   1       8.843 -29.840 -59.944  0.00  0.00    -0.201 F 
ATOM      2  C11 ETK d   1       9.597 -28.901 -59.355  0.00  0.00     0.176 A 
ATOM      3  C10 ETK d   1      10.807 -28.396 -59.972  0.00  0.00     0.083 A 
ATOM      4  C12 ETK d   1       9.185 -28.396 -58.039  0.00  0.00     0.181 A 
ATOM      5  F13 ETK d   1       8.079 -28.901 -57.525  0.00  0.00    -0.201 F 
ATOM      6  C7  ETK d   1       9.908 -27.348 -57.297  0.00  0.00     0.150 A 
ATOM      7  C8  ETK d   1      11.142 -26.824 -57.940  0.00  0.00     0.095 A 
ATOM      8  C9  ETK d   1      11.580 -27.364 -59.266  0.00  0.00     0.164 A 
ATOM      9  F15 ETK d   1      12.670 -26.891 -59.858  0.00  0.00    -0.202 F 
ATOM     10  N58 ETK d   1      11.917 -25.986 -57.230  0.00  0.00    -0.381 N 
ATOM     11  H11 ETK d   1      11.466 -25.199 -56.742  0.00  0.00     0.160 HD
ENDROOT
BRANCH   6  12
ATOM     12  S4  ETK d   1       9.274 -26.893 -55.847  0.00  0.00     0.262 S 
ATOM     13  O5  ETK d   1       9.562 -27.917 -54.858  0.00  0.00    -0.201 OA
ATOM     14  O6  ETK d   1       9.872 -25.649 -55.458  0.00  0.00    -0.201 OA
BRANCH  12  15
ATOM     15  N1  ETK d   1       7.704 -26.733 -56.045  0.00  0.00    -0.324 N 
ATOM     16  H9  ETK d   1       7.128 -26.459 -55.275  0.00  0.00     0.169 HD
ATOM     17  H10 ETK d   1       7.293 -26.906 -56.940  0.00  0.00     0.169 HD
ENDBRANCH  12  15
ENDBRANCH   6  12
BRANCH  10  18
ATOM     18  C28 ETK d   1      13.365 -26.133 -57.115  0.00  0.00     0.010 C 
ATOM     19  C35 ETK d   1      13.592 -27.438 -56.327  0.00  0.00    -0.046 C 
ATOM     20  C34 ETK d   1      15.009 -28.010 -56.358  0.00  0.00    -0.063 C 
ATOM     21  H13 ETK d   1      12.914 -28.200 -56.738  0.00  0.00     0.035 H 
ATOM     22  H14 ETK d   1      13.332 -27.244 -55.276  0.00  0.00     0.035 H 
ATOM     23  C33 ETK d   1      15.809 -27.822 -55.068  0.00  0.00    -0.065 C 
ATOM     24  H15 ETK d   1      15.558 -27.518 -57.175  0.00  0.00     0.033 H 
ATOM     25  H16 ETK d   1      14.938 -29.089 -56.561  0.00  0.00     0.033 H 
ATOM     26  C32 ETK d   1      15.550 -26.526 -54.277  0.00  0.00    -0.065 C 
ATOM     27  H17 ETK d   1      16.877 -27.844 -55.331  0.00  0.00     0.033 H 
ATOM     28  H18 ETK d   1      15.577 -28.669 -54.406  0.00  0.00     0.033 H 
ATOM     29  C31 ETK d   1      16.031 -25.248 -54.955  0.00  0.00    -0.065 C 
ATOM     30  H19 ETK d   1      16.062 -26.611 -53.307  0.00  0.00     0.033 H 
ATOM     31  H20 ETK d   1      14.466 -26.438 -54.113  0.00  0.00     0.033 H 
ATOM     32  C30 ETK d   1      15.452 -24.854 -56.321  0.00  0.00    -0.063 C 
ATOM     33  H21 ETK d   1      17.119 -25.344 -55.084  0.00  0.00     0.033 H 
ATOM     34  H22 ETK d   1      15.816 -24.419 -54.265  0.00  0.00     0.033 H 
ATOM     35  C29 ETK d   1      13.925 -24.934 -56.370  0.00  0.00    -0.046 C 
ATOM     36  H23 ETK d   1      15.863 -25.531 -57.084  0.00  0.00     0.033 H 
ATOM     37  H24 ETK d   1      15.756 -23.821 -56.546  0.00  0.00     0.033 H 
ATOM     38  H25 ETK d   1      13.553 -24.971 -55.336  0.00  0.00     0.035 H 
ATOM     39  H26 ETK d   1      13.552 -24.023 -56.861  0.00  0.00     0.035 H 
ATOM     40  H12 ETK d   1      13.831 -26.202 -58.109  0.00  0.00     0.072 H 
ENDBRANCH  10  18
BRANCH   3  41
ATOM     41  S16 ETK d   1      11.267 -29.021 -61.480  0.00  0.00    -0.123 SA
BRANCH  41  42
ATOM     42  C17 ETK d   1      12.007 -30.588 -61.003  0.00  0.00    -0.015 C 
ATOM     43  H1  ETK d   1      12.169 -31.178 -61.917  0.00  0.00     0.049 H 
ATOM     44  H2  ETK d   1      11.296 -31.113 -60.348  0.00  0.00     0.049 H 
BRANCH  42  45
ATOM     45  C18 ETK d   1      13.352 -30.487 -60.259  0.00  0.00    -0.033 C 
ATOM     46  H3  ETK d   1      13.593 -31.457 -59.800  0.00  0.00     0.041 H 
ATOM     47  H4  ETK d   1      13.283 -29.718 -59.476  0.00  0.00     0.041 H 
BRANCH  45  48
ATOM     48  C19 ETK d   1      14.427 -30.113 -61.240  0.00  0.00    -0.057 A 
ATOM     49  C24 ETK d   1      14.748 -31.037 -62.242  0.00  0.00    -0.076 A 
ATOM     50  C23 ETK d   1      15.719 -30.716 -63.178  0.00  0.00    -0.066 A 
ATOM     51  H5  ETK d   1      14.242 -31.995 -62.285  0.00  0.00     0.084 H 
ATOM     52  C22 ETK d   1      16.373 -29.481 -63.139  0.00  0.00     0.040 A 
ATOM     53  H6  ETK d   1      15.975 -31.432 -63.950  0.00  0.00     0.085 H 
ATOM     54  C21 ETK d   1      16.052 -28.548 -62.136  0.00  0.00    -0.066 A 
ATOM     55  C20 ETK d   1      15.079 -28.871 -61.182  0.00  0.00    -0.076 A 
ATOM     56  H7  ETK d   1      16.553 -27.588 -62.102  0.00  0.00     0.085 H 
ATOM     57  H8  ETK d   1      14.830 -28.163 -60.400  0.00  0.00     0.084 H 
BRANCH  52  58
ATOM     58  C25 ETK d   1      17.396 -29.184 -64.207  0.00  0.00     0.209 C 
ATOM     59  O27 ETK d   1      17.857 -28.034 -64.342  0.00  0.00    -0.644 OA
ATOM     60  O26 ETK d   1      17.712 -30.089 -64.996  0.00  0.00    -0.644 OA
ENDBRANCH  52  58
ENDBRANCH  45  48
ENDBRANCH  42  45
ENDBRANCH  41  42
ENDBRANCH   3  41
TORSDOF 8
