REMARK  2 active torsions:
REMARK  status: ('A' for Active; 'I' for Inactive)
REMARK    1  A    between atoms: CE1_8  and  SD_1 
REMARK    2  A    between atoms: CZ_3  and  CG_2 
ROOT
ATOM      1  CZ  JKE d   1      97.714  28.730  43.280  0.00  0.00     0.057 A 
ATOM      2  CD1 JKE d   1      99.289  27.308  42.048  0.00  0.00    -0.066 A 
ATOM      3  CD2 JKE d   1      99.720  29.637  42.217  0.00  0.00    -0.082 A 
ATOM      4  CE1 JKE d   1      98.114  27.461  42.808  0.00  0.00     0.014 A 
ATOM      5  CE2 JKE d   1      98.544  29.807  42.956  0.00  0.00    -0.065 A 
ATOM      6  CG1 JKE d   1     100.109  28.383  41.751  0.00  0.00    -0.082 A 
ATOM      7  H2  JKE d   1      99.559  26.323  41.686  0.00  0.00     0.085 H 
ATOM      8  H3  JKE d   1     100.341  30.499  42.003  0.00  0.00     0.083 H 
ATOM      9  H4  JKE d   1      98.269  30.802  43.287  0.00  0.00     0.085 H 
ATOM     10  H5  JKE d   1     101.020  28.254  41.177  0.00  0.00     0.083 H 
ENDROOT
BRANCH   1  11
ATOM     11  CG  JKE d   1      96.422  29.036  44.100  0.00  0.00     0.210 C 
ATOM     12  OD1 JKE d   1      95.916  30.171  43.969  0.00  0.00    -0.644 OA
ATOM     13  OD2 JKE d   1      95.797  28.264  44.892  0.00  0.00    -0.644 OA
ENDBRANCH   1  11
BRANCH   4  14
ATOM     14  SD  JKE d   1      97.141  25.949  43.151  0.00  0.00    -0.142 SA
ATOM     15  H1  JKE d   1      97.596  25.155  42.728  0.00  0.00     0.107 HD
ENDBRANCH   4  14
TORSDOF 2
