REMARK  18 active torsions:
REMARK  status: ('A' for Active; 'I' for Inactive)
REMARK    1  A    between atoms: C5_2  and  C4_1 
REMARK    2  A    between atoms: C4_1  and  C3_14 
REMARK    3  A    between atoms: C6_3  and  C5_2 
REMARK    4  A    between atoms: C7_4  and  C6_3 
REMARK    5  A    between atoms: C8_5  and  C7_4 
REMARK    6  A    between atoms: C9_15  and  C8_5 
REMARK    7  A    between atoms: C10_6  and  C9_15 
REMARK    8  A    between atoms: C11_16  and  C10_6 
REMARK    9  A    between atoms: C12_17  and  C13_7 
REMARK   10  A    between atoms: C13_7  and  C14_18 
REMARK   11  A    between atoms: C14_18  and  C15_8 
REMARK   12  A    between atoms: C15_8  and  C16_19 
REMARK   13  A    between atoms: C16_19  and  C17_9 
REMARK   14  A    between atoms: C17_9  and  C18_20 
REMARK   15  A    between atoms: C2_13  and  C1_11 
REMARK   16  A    between atoms: C3_14  and  C2_13 
REMARK   17  A    between atoms: C11_16  and  C12_17 
REMARK   18  A    between atoms: C18_20  and  C19_21 
ROOT
ATOM      1  C10 EW8 d   1      17.267  48.543  56.984  0.00  0.00    -0.065 C 
ATOM      2  H11 EW8 d   1      17.876  49.225  56.372  0.00  0.00     0.033 H 
ATOM      3  H12 EW8 d   1      17.267  48.888  58.028  0.00  0.00     0.033 H 
ENDROOT
BRANCH   1   4
ATOM      4  C9  EW8 d   1      17.893  47.116  56.924  0.00  0.00    -0.065 C 
ATOM      5  H23 EW8 d   1      17.738  46.626  57.897  0.00  0.00     0.033 H 
ATOM      6  H24 EW8 d   1      17.379  46.542  56.139  0.00  0.00     0.033 H 
BRANCH   4   7
ATOM      7  C8  EW8 d   1      19.408  47.122  56.614  0.00  0.00    -0.065 C 
ATOM      8  H9  EW8 d   1      19.627  46.295  55.923  0.00  0.00     0.033 H 
ATOM      9  H10 EW8 d   1      19.663  48.078  56.134  0.00  0.00     0.033 H 
BRANCH   7  10
ATOM     10  C7  EW8 d   1      20.285  46.956  57.869  0.00  0.00    -0.065 C 
ATOM     11  H7  EW8 d   1      19.637  46.970  58.758  0.00  0.00     0.033 H 
ATOM     12  H8  EW8 d   1      20.807  45.989  57.811  0.00  0.00     0.033 H 
BRANCH  10  13
ATOM     13  C6  EW8 d   1      21.328  48.073  58.001  0.00  0.00    -0.065 C 
ATOM     14  H5  EW8 d   1      20.835  49.041  57.828  0.00  0.00     0.033 H 
ATOM     15  H6  EW8 d   1      21.745  48.051  59.019  0.00  0.00     0.033 H 
BRANCH  13  16
ATOM     16  C5  EW8 d   1      22.470  47.912  56.995  0.00  0.00    -0.065 C 
ATOM     17  H3  EW8 d   1      23.010  46.980  57.218  0.00  0.00     0.033 H 
ATOM     18  H4  EW8 d   1      22.044  47.855  55.982  0.00  0.00     0.033 H 
BRANCH  16  19
ATOM     19  C4  EW8 d   1      23.461  49.081  57.049  0.00  0.00    -0.065 C 
ATOM     20  H1  EW8 d   1      24.395  48.735  57.515  0.00  0.00     0.033 H 
ATOM     21  H2  EW8 d   1      23.026  49.889  57.656  0.00  0.00     0.033 H 
BRANCH  19  22
ATOM     22  C3  EW8 d   1      23.775  49.624  55.653  0.00  0.00    -0.056 C 
ATOM     23  H21 EW8 d   1      23.806  50.723  55.698  0.00  0.00     0.033 H 
ATOM     24  H22 EW8 d   1      22.980  49.308  54.962  0.00  0.00     0.033 H 
BRANCH  22  25
ATOM     25  C2  EW8 d   1      25.120  49.112  55.127  0.00  0.00     0.016 C 
ATOM     26  H19 EW8 d   1      25.878  49.196  55.920  0.00  0.00     0.049 H 
ATOM     27  H20 EW8 d   1      25.017  48.059  54.827  0.00  0.00     0.049 H 
BRANCH  25  28
ATOM     28  C1  EW8 d   1      25.568  49.965  53.887  0.00  0.00     0.172 C 
ATOM     29  O1  EW8 d   1      24.814  49.947  52.882  0.00  0.00    -0.648 OA
ATOM     30  O2  EW8 d   1      26.632  50.613  53.989  0.00  0.00    -0.648 OA
ENDBRANCH  25  28
ENDBRANCH  22  25
ENDBRANCH  19  22
ENDBRANCH  16  19
ENDBRANCH  13  16
ENDBRANCH  10  13
ENDBRANCH   7  10
ENDBRANCH   4   7
ENDBRANCH   1   4
BRANCH   1  31
ATOM     31  C11 EW8 d   1      15.819  48.556  56.455  0.00  0.00    -0.065 C 
ATOM     32  H25 EW8 d   1      15.226  47.849  57.054  0.00  0.00     0.033 H 
ATOM     33  H26 EW8 d   1      15.832  48.226  55.406  0.00  0.00     0.033 H 
BRANCH  31  34
ATOM     34  C12 EW8 d   1      15.131  49.943  56.519  0.00  0.00    -0.065 C 
ATOM     35  H27 EW8 d   1      15.134  50.303  57.559  0.00  0.00     0.033 H 
ATOM     36  H28 EW8 d   1      15.683  50.652  55.884  0.00  0.00     0.033 H 
BRANCH  34  37
ATOM     37  C13 EW8 d   1      13.703  49.839  56.029  0.00  0.00    -0.065 C 
ATOM     38  H13 EW8 d   1      13.084  49.467  56.859  0.00  0.00     0.033 H 
ATOM     39  H14 EW8 d   1      13.679  49.116  55.200  0.00  0.00     0.033 H 
BRANCH  37  40
ATOM     40  C14 EW8 d   1      13.096  51.138  55.537  0.00  0.00    -0.065 C 
ATOM     41  H29 EW8 d   1      13.039  51.106  54.439  0.00  0.00     0.033 H 
ATOM     42  H30 EW8 d   1      13.747  51.969  55.846  0.00  0.00     0.033 H 
BRANCH  40  43
ATOM     43  C15 EW8 d   1      11.733  51.377  56.076  0.00  0.00    -0.065 C 
ATOM     44  H15 EW8 d   1      11.831  51.911  57.032  0.00  0.00     0.033 H 
ATOM     45  H16 EW8 d   1      11.255  50.401  56.248  0.00  0.00     0.033 H 
BRANCH  43  46
ATOM     46  C16 EW8 d   1      10.836  52.188  55.172  0.00  0.00    -0.065 C 
ATOM     47  H31 EW8 d   1      11.422  53.013  54.741  0.00  0.00     0.033 H 
ATOM     48  H32 EW8 d   1      10.010  52.599  55.771  0.00  0.00     0.033 H 
BRANCH  46  49
ATOM     49  C17 EW8 d   1      10.256  51.369  54.048  0.00  0.00    -0.065 C 
ATOM     50  H17 EW8 d   1      10.164  50.322  54.373  0.00  0.00     0.033 H 
ATOM     51  H18 EW8 d   1      10.925  51.425  53.177  0.00  0.00     0.033 H 
BRANCH  49  52
ATOM     52  C18 EW8 d   1       8.888  51.891  53.659  0.00  0.00    -0.069 C 
ATOM     53  H33 EW8 d   1       8.898  52.990  53.710  0.00  0.00     0.032 H 
ATOM     54  H34 EW8 d   1       8.143  51.498  54.366  0.00  0.00     0.032 H 
BRANCH  52  55
ATOM     55  C19 EW8 d   1       8.501  51.466  52.247  0.00  0.00    -0.077 C 
ATOM     56  H35 EW8 d   1       7.505  51.864  52.004  0.00  0.00     0.027 H 
ATOM     57  H36 EW8 d   1       8.482  50.368  52.187  0.00  0.00     0.027 H 
ATOM     58  H37 EW8 d   1       9.237  51.859  51.531  0.00  0.00     0.027 H 
ENDBRANCH  52  55
ENDBRANCH  49  52
ENDBRANCH  46  49
ENDBRANCH  43  46
ENDBRANCH  40  43
ENDBRANCH  37  40
ENDBRANCH  34  37
ENDBRANCH  31  34
ENDBRANCH   1  31
TORSDOF 18
