REMARK  16 active torsions:
REMARK  status: ('A' for Active; 'I' for Inactive)
REMARK    1  A    between atoms: C22_4  and  C21_2 
REMARK    2  A    between atoms: C23_5  and  C22_4 
REMARK    3  A    between atoms: C24_6  and  C23_5 
REMARK    4  A    between atoms: C25_7  and  C24_6 
REMARK    5  A    between atoms: C26_8  and  C25_7 
REMARK    6  A    between atoms: C27_9  and  C26_8 
REMARK    7  A    between atoms: C28_10  and  C27_9 
REMARK    8  A    between atoms: C29_11  and  C28_10 
REMARK    9  A    between atoms: C39_19  and  C29_11 
REMARK   10  A    between atoms: C30_12  and  C31_13 
REMARK   11  A    between atoms: C30_12  and  C39_19 
REMARK   12  A    between atoms: C31_13  and  C32_14 
REMARK   13  A    between atoms: C32_14  and  C33_15 
REMARK   14  A    between atoms: C33_15  and  C34_16 
REMARK   15  A    between atoms: C34_16  and  C35_17 
REMARK   16  A    between atoms: C35_17  and  C36_18 
ROOT
ATOM      1  C29 X90 d   1      10.760  -1.959  55.938  0.00  0.00    -0.065 C 
ATOM      2  H15 X90 d   1      11.355  -1.096  56.271  0.00  0.00     0.033 H 
ATOM      3  H16 X90 d   1      10.636  -1.920  54.846  0.00  0.00     0.033 H 
ENDROOT
BRANCH   1   4
ATOM      4  C28 X90 d   1       9.386  -1.889  56.591  0.00  0.00    -0.065 C 
ATOM      5  H13 X90 d   1       8.671  -2.475  55.995  0.00  0.00     0.033 H 
ATOM      6  H14 X90 d   1       9.446  -2.306  57.607  0.00  0.00     0.033 H 
BRANCH   4   7
ATOM      7  C27 X90 d   1       8.912  -0.453  56.668  0.00  0.00    -0.065 C 
ATOM      8  H11 X90 d   1       9.727   0.178  57.051  0.00  0.00     0.033 H 
ATOM      9  H12 X90 d   1       8.624  -0.111  55.663  0.00  0.00     0.033 H 
BRANCH   7  10
ATOM     10  C26 X90 d   1       7.716  -0.344  57.596  0.00  0.00    -0.065 C 
ATOM     11  H9  X90 d   1       8.011  -0.671  58.604  0.00  0.00     0.033 H 
ATOM     12  H10 X90 d   1       7.383   0.704  57.633  0.00  0.00     0.033 H 
BRANCH  10  13
ATOM     13  C25 X90 d   1       6.570  -1.214  57.106  0.00  0.00    -0.065 C 
ATOM     14  H7  X90 d   1       6.500  -1.135  56.011  0.00  0.00     0.033 H 
ATOM     15  H8  X90 d   1       6.765  -2.260  57.387  0.00  0.00     0.033 H 
BRANCH  13  16
ATOM     16  C24 X90 d   1       5.252  -0.768  57.725  0.00  0.00    -0.065 C 
ATOM     17  H5  X90 d   1       5.397  -0.617  58.805  0.00  0.00     0.033 H 
ATOM     18  H6  X90 d   1       4.941   0.179  57.261  0.00  0.00     0.033 H 
BRANCH  16  19
ATOM     19  C23 X90 d   1       4.156  -1.809  57.512  0.00  0.00    -0.056 C 
ATOM     20  H3  X90 d   1       4.571  -2.806  57.724  0.00  0.00     0.033 H 
ATOM     21  H4  X90 d   1       3.331  -1.600  58.209  0.00  0.00     0.033 H 
BRANCH  19  22
ATOM     22  C22 X90 d   1       3.607  -1.800  56.086  0.00  0.00     0.016 C 
ATOM     23  H1  X90 d   1       4.438  -1.605  55.392  0.00  0.00     0.049 H 
ATOM     24  H2  X90 d   1       3.174  -2.788  55.871  0.00  0.00     0.049 H 
BRANCH  22  25
ATOM     25  C21 X90 d   1       2.539  -0.748  55.868  0.00  0.00     0.172 C 
ATOM     26  O19 X90 d   1       2.327  -0.378  54.689  0.00  0.00    -0.648 OA
ATOM     27  O21 X90 d   1       1.904  -0.281  56.842  0.00  0.00    -0.648 OA
ENDBRANCH  22  25
ENDBRANCH  19  22
ENDBRANCH  16  19
ENDBRANCH  13  16
ENDBRANCH  10  13
ENDBRANCH   7  10
ENDBRANCH   4   7
ENDBRANCH   1   4
BRANCH   1  28
ATOM     28  C39 X90 d   1      11.502  -3.236  56.302  0.00  0.00    -0.065 C 
ATOM     29  H32 X90 d   1      10.979  -4.099  55.864  0.00  0.00     0.033 H 
ATOM     30  H33 X90 d   1      11.531  -3.342  57.397  0.00  0.00     0.033 H 
BRANCH  28  31
ATOM     31  C30 X90 d   1      12.912  -3.182  55.768  0.00  0.00    -0.065 C 
ATOM     32  H17 X90 d   1      12.874  -2.823  54.729  0.00  0.00     0.033 H 
ATOM     33  H18 X90 d   1      13.486  -2.471  56.381  0.00  0.00     0.033 H 
BRANCH  31  34
ATOM     34  C31 X90 d   1      13.630  -4.511  55.785  0.00  0.00    -0.065 C 
ATOM     35  H19 X90 d   1      13.101  -5.240  55.154  0.00  0.00     0.033 H 
ATOM     36  H20 X90 d   1      13.698  -4.896  56.813  0.00  0.00     0.033 H 
BRANCH  34  37
ATOM     37  C32 X90 d   1      15.004  -4.243  55.235  0.00  0.00    -0.065 C 
ATOM     38  H21 X90 d   1      15.561  -3.613  55.944  0.00  0.00     0.033 H 
ATOM     39  H22 X90 d   1      14.913  -3.719  54.272  0.00  0.00     0.033 H 
BRANCH  37  40
ATOM     40  C33 X90 d   1      15.749  -5.535  55.028  0.00  0.00    -0.065 C 
ATOM     41  H23 X90 d   1      15.374  -6.030  54.120  0.00  0.00     0.033 H 
ATOM     42  H24 X90 d   1      15.588  -6.191  55.896  0.00  0.00     0.033 H 
BRANCH  40  43
ATOM     43  C34 X90 d   1      17.235  -5.259  54.874  0.00  0.00    -0.065 C 
ATOM     44  H25 X90 d   1      17.771  -5.879  55.608  0.00  0.00     0.033 H 
ATOM     45  H26 X90 d   1      17.405  -4.196  55.099  0.00  0.00     0.033 H 
BRANCH  43  46
ATOM     46  C35 X90 d   1      17.826  -5.546  53.501  0.00  0.00    -0.069 C 
ATOM     47  H27 X90 d   1      17.251  -6.361  53.037  0.00  0.00     0.032 H 
ATOM     48  H28 X90 d   1      18.871  -5.863  53.630  0.00  0.00     0.032 H 
BRANCH  46  49
ATOM     49  C36 X90 d   1      17.798  -4.350  52.574  0.00  0.00    -0.077 C 
ATOM     50  H29 X90 d   1      18.238  -4.627  51.605  0.00  0.00     0.027 H 
ATOM     51  H30 X90 d   1      18.378  -3.528  53.019  0.00  0.00     0.027 H 
ATOM     52  H31 X90 d   1      16.758  -4.026  52.425  0.00  0.00     0.027 H 
ENDBRANCH  46  49
ENDBRANCH  43  46
ENDBRANCH  40  43
ENDBRANCH  37  40
ENDBRANCH  34  37
ENDBRANCH  31  34
ENDBRANCH  28  31
ENDBRANCH   1  28
TORSDOF 16
