REMARK  14 active torsions:
REMARK  status: ('A' for Active; 'I' for Inactive)
REMARK    1  A    between atoms: C4_4  and  C1_1 
REMARK    2  A    between atoms: C5_5  and  C4_4 
REMARK    3  A    between atoms: C8_8  and  C5_5 
REMARK    4  A    between atoms: C6_6  and  C7_7 
REMARK    5  A    between atoms: C6_6  and  C8_8 
REMARK    6  A    between atoms: C7_7  and  C9_9 
REMARK    7  A    between atoms: C9_9  and  C10_10 
REMARK    8  A    between atoms: C10_10  and  C11_11 
REMARK    9  A    between atoms: C11_11  and  C12_12 
REMARK   10  A    between atoms: C12_12  and  C13_13 
REMARK   11  A    between atoms: C13_13  and  C2_14 
REMARK   12  A    between atoms: C2_14  and  C3_15 
REMARK   13  A    between atoms: C3_15  and  C14_16 
REMARK   14  A    between atoms: C14_16  and  C15_17 
ROOT
ATOM      1  C10 F15 d   1      10.321  -2.587  56.236  0.00  0.00    -0.065 C 
ATOM      2  H13 F15 d   1       9.766  -3.509  56.008  0.00  0.00     0.033 H 
ATOM      3  H14 F15 d   1      10.551  -2.554  57.311  0.00  0.00     0.033 H 
ENDROOT
BRANCH   1   4
ATOM      4  C9  F15 d   1       9.458  -1.397  55.883  0.00  0.00    -0.065 C 
ATOM      5  H11 F15 d   1       9.918  -0.472  56.261  0.00  0.00     0.033 H 
ATOM      6  H12 F15 d   1       9.339  -1.328  54.792  0.00  0.00     0.033 H 
BRANCH   4   7
ATOM      7  C7  F15 d   1       8.109  -1.613  56.541  0.00  0.00    -0.065 C 
ATOM      8  H7  F15 d   1       7.495  -2.255  55.892  0.00  0.00     0.033 H 
ATOM      9  H8  F15 d   1       8.261  -2.110  57.510  0.00  0.00     0.033 H 
BRANCH   7  10
ATOM     10  C6  F15 d   1       7.375  -0.296  56.771  0.00  0.00    -0.065 C 
ATOM     11  H5  F15 d   1       7.260   0.222  55.807  0.00  0.00     0.033 H 
ATOM     12  H6  F15 d   1       7.969   0.329  57.454  0.00  0.00     0.033 H 
BRANCH  10  13
ATOM     13  C8  F15 d   1       5.992  -0.521  57.381  0.00  0.00    -0.065 C 
ATOM     14  H9  F15 d   1       6.096  -1.184  58.252  0.00  0.00     0.033 H 
ATOM     15  H10 F15 d   1       5.589   0.450  57.706  0.00  0.00     0.033 H 
BRANCH  13  16
ATOM     16  C5  F15 d   1       5.004  -1.156  56.399  0.00  0.00    -0.056 C 
ATOM     17  H3  F15 d   1       4.849  -0.458  55.563  0.00  0.00     0.033 H 
ATOM     18  H4  F15 d   1       5.444  -2.090  56.020  0.00  0.00     0.033 H 
BRANCH  16  19
ATOM     19  C4  F15 d   1       3.641  -1.481  57.016  0.00  0.00     0.016 C 
ATOM     20  H1  F15 d   1       3.308  -2.453  56.623  0.00  0.00     0.049 H 
ATOM     21  H2  F15 d   1       3.764  -1.549  58.107  0.00  0.00     0.049 H 
BRANCH  19  22
ATOM     22  C1  F15 d   1       2.562  -0.454  56.722  0.00  0.00     0.172 C 
ATOM     23  O2  F15 d   1       1.730  -0.176  57.627  0.00  0.00    -0.648 OA
ATOM     24  O3  F15 d   1       2.517   0.063  55.577  0.00  0.00    -0.648 OA
ENDBRANCH  19  22
ENDBRANCH  16  19
ENDBRANCH  13  16
ENDBRANCH  10  13
ENDBRANCH   7  10
ENDBRANCH   4   7
ENDBRANCH   1   4
BRANCH   1  25
ATOM     25  C11 F15 d   1      11.614  -2.592  55.461  0.00  0.00    -0.065 C 
ATOM     26  H15 F15 d   1      12.206  -1.710  55.747  0.00  0.00     0.033 H 
ATOM     27  H16 F15 d   1      11.387  -2.549  54.386  0.00  0.00     0.033 H 
BRANCH  25  28
ATOM     28  C12 F15 d   1      12.422  -3.841  55.744  0.00  0.00    -0.065 C 
ATOM     29  H17 F15 d   1      11.883  -4.731  55.386  0.00  0.00     0.033 H 
ATOM     30  H18 F15 d   1      12.608  -3.936  56.824  0.00  0.00     0.033 H 
BRANCH  28  31
ATOM     31  C13 F15 d   1      13.736  -3.688  54.997  0.00  0.00    -0.065 C 
ATOM     32  H19 F15 d   1      14.275  -2.820  55.405  0.00  0.00     0.033 H 
ATOM     33  H20 F15 d   1      13.519  -3.517  53.932  0.00  0.00     0.033 H 
BRANCH  31  34
ATOM     34  C2  F15 d   1      14.617  -4.906  55.121  0.00  0.00    -0.065 C 
ATOM     35  H21 F15 d   1      14.024  -5.825  55.005  0.00  0.00     0.033 H 
ATOM     36  H22 F15 d   1      15.125  -4.918  56.097  0.00  0.00     0.033 H 
BRANCH  34  37
ATOM     37  C3  F15 d   1      15.626  -4.779  53.997  0.00  0.00    -0.065 C 
ATOM     38  H23 F15 d   1      15.781  -3.711  53.783  0.00  0.00     0.033 H 
ATOM     39  H24 F15 d   1      15.222  -5.277  53.104  0.00  0.00     0.033 H 
BRANCH  37  40
ATOM     40  C14 F15 d   1      16.959  -5.401  54.334  0.00  0.00    -0.069 C 
ATOM     41  H25 F15 d   1      16.822  -6.457  54.608  0.00  0.00     0.032 H 
ATOM     42  H26 F15 d   1      17.424  -4.862  55.173  0.00  0.00     0.032 H 
BRANCH  40  43
ATOM     43  C15 F15 d   1      17.830  -5.296  53.109  0.00  0.00    -0.077 C 
ATOM     44  H27 F15 d   1      18.814  -5.741  53.319  0.00  0.00     0.027 H 
ATOM     45  H28 F15 d   1      17.957  -4.237  52.839  0.00  0.00     0.027 H 
ATOM     46  H29 F15 d   1      17.355  -5.833  52.274  0.00  0.00     0.027 H 
ENDBRANCH  40  43
ENDBRANCH  37  40
ENDBRANCH  34  37
ENDBRANCH  31  34
ENDBRANCH  28  31
ENDBRANCH  25  28
ENDBRANCH   1  25
TORSDOF 14
