REMARK  13 active torsions:
REMARK  status: ('A' for Active; 'I' for Inactive)
REMARK    1  A    between atoms: CAA_1  and  CAV_2 
REMARK       I    between atoms: CAV_2  and  N_4 
REMARK    2  A    between atoms: N_4  and  CA_5 
REMARK    3  A    between atoms: CA_5  and  CB_6 
REMARK    4  A    between atoms: CA_5  and  C_10 
REMARK    5  A    between atoms: CB_6  and  CG1_7 
REMARK    6  A    between atoms: CB_6  and  CAE_8 
REMARK    7  A    between atoms: CB_6  and  CG2_9 
REMARK       I    between atoms: C_10  and  NBG_12 
REMARK    8  A    between atoms: CBC_14  and  OAI_15 
REMARK    9  A    between atoms: CBF_18  and  CAW_19 
REMARK       I    between atoms: CAW_19  and  NAS_21 
REMARK   10  A    between atoms: NAS_21  and  CAP_22 
REMARK   11  A    between atoms: CAP_22  and  CAZ_23 
REMARK   12  A    between atoms: CBA_28  and  CBB_29 
REMARK   13  A    between atoms: CAY_33  and  CAB_34 
ROOT
ATOM      1  C   EXE d   1      12.481  54.106  91.762  0.00  0.00     0.244 C 
ATOM      2  O   EXE d   1      11.314  53.921  91.437  0.00  0.00    -0.271 OA
ATOM      3  NBG EXE d   1      13.451  54.425  90.859  0.00  0.00    -0.331 N 
ATOM      4  CAQ EXE d   1      14.913  54.740  91.048  0.00  0.00     0.025 C 
ATOM      5  CBC EXE d   1      15.308  55.602  89.824  0.00  0.00     0.083 C 
ATOM      6  CBD EXE d   1      14.479  54.995  88.740  0.00  0.00     0.133 C 
ATOM      7  FAJ EXE d   1      15.171  53.870  88.315  0.00  0.00    -0.244 F 
ATOM      8  CBF EXE d   1      13.128  54.560  89.404  0.00  0.00     0.123 C 
ATOM      9  H15 EXE d   1      15.506  53.814  91.074  0.00  0.00     0.068 H 
ATOM     10  H16 EXE d   1      15.068  55.302  91.981  0.00  0.00     0.068 H 
ATOM     11  H17 EXE d   1      16.383  55.518  89.604  0.00  0.00     0.090 H 
ATOM     12  H19 EXE d   1      14.308  55.697  87.911  0.00  0.00     0.099 H 
ATOM     13  H20 EXE d   1      12.344  55.316  89.250  0.00  0.00     0.092 H 
ENDROOT
BRANCH   8  14
ATOM     14  CAW EXE d   1      12.737  53.352  88.841  0.00  0.00     0.243 C 
ATOM     15  OAG EXE d   1      13.205  52.315  89.314  0.00  0.00    -0.271 OA
ATOM     16  NAS EXE d   1      11.985  53.416  87.702  0.00  0.00    -0.355 N 
ATOM     17  H21 EXE d   1      11.670  54.301  87.359  0.00  0.00     0.162 HD
BRANCH  16  18
ATOM     18  CAP EXE d   1      11.638  52.176  86.978  0.00  0.00     0.019 C 
ATOM     19  H22 EXE d   1      10.577  52.217  86.691  0.00  0.00     0.071 H 
ATOM     20  H23 EXE d   1      11.805  51.317  87.644  0.00  0.00     0.071 H 
BRANCH  18  21
ATOM     21  CAZ EXE d   1      12.440  52.006  85.783  0.00  0.00    -0.040 A 
ATOM     22  CAL EXE d   1      12.298  50.828  85.027  0.00  0.00    -0.074 A 
ATOM     23  CAN EXE d   1      13.051  50.594  83.866  0.00  0.00    -0.071 A 
ATOM     24  H24 EXE d   1      11.585  50.078  85.351  0.00  0.00     0.084 H 
ATOM     25  CBA EXE d   1      13.980  51.540  83.386  0.00  0.00    -0.017 A 
ATOM     26  H25 EXE d   1      12.915  49.664  83.326  0.00  0.00     0.084 H 
ATOM     27  CAM EXE d   1      14.133  52.698  84.153  0.00  0.00    -0.071 A 
ATOM     28  CAK EXE d   1      13.391  52.941  85.328  0.00  0.00    -0.074 A 
ATOM     29  H27 EXE d   1      14.853  53.442  83.831  0.00  0.00     0.084 H 
ATOM     30  H26 EXE d   1      13.554  53.856  85.886  0.00  0.00     0.084 H 
BRANCH  25  31
ATOM     31  CBB EXE d   1      14.739  51.326  82.278  0.00  0.00     0.040 A 
ATOM     32  SAU EXE d   1      16.374  51.796  82.101  0.00  0.00    -0.080 SA
ATOM     33  CAO EXE d   1      16.590  51.153  80.604  0.00  0.00     0.041 A 
ATOM     34  NAR EXE d   1      15.454  50.589  80.218  0.00  0.00    -0.258 NA
ATOM     35  H28 EXE d   1      17.512  51.185  80.026  0.00  0.00     0.126 H 
ATOM     36  CAY EXE d   1      14.446  50.681  81.120  0.00  0.00     0.049 A 
BRANCH  36  37
ATOM     37  CAB EXE d   1      13.097  50.049  80.765  0.00  0.00    -0.034 C 
ATOM     38  H29 EXE d   1      13.155  49.599  79.763  0.00  0.00     0.035 H 
ATOM     39  H30 EXE d   1      12.316  50.823  80.774  0.00  0.00     0.035 H 
ATOM     40  H31 EXE d   1      12.851  49.271  81.503  0.00  0.00     0.035 H 
ENDBRANCH  36  37
ENDBRANCH  25  31
ENDBRANCH  18  21
ENDBRANCH  16  18
ENDBRANCH   8  14
BRANCH   1  41
ATOM     41  CA  EXE d   1      12.834  54.071  93.270  0.00  0.00     0.095 C 
ATOM     42  H5  EXE d   1      13.783  54.600  93.441  0.00  0.00     0.088 H 
BRANCH  41  43
ATOM     43  N   EXE d   1      11.735  54.776  93.942  0.00  0.00    -0.347 N 
ATOM     44  CAV EXE d   1      11.837  55.972  94.537  0.00  0.00     0.214 C 
ATOM     45  OAF EXE d   1      12.873  56.615  94.655  0.00  0.00    -0.274 OA
ATOM     46  H4  EXE d   1      10.841  54.328  93.957  0.00  0.00     0.163 HD
BRANCH  44  47
ATOM     47  CAA EXE d   1      10.518  56.501  95.137  0.00  0.00    -0.003 C 
ATOM     48  H1  EXE d   1       9.708  55.787  94.927  0.00  0.00     0.040 H 
ATOM     49  H2  EXE d   1      10.275  57.475  94.687  0.00  0.00     0.040 H 
ATOM     50  H3  EXE d   1      10.631  56.618  96.225  0.00  0.00     0.040 H 
ENDBRANCH  44  47
ENDBRANCH  41  43
BRANCH  41  51
ATOM     51  CB  EXE d   1      12.964  52.630  93.815  0.00  0.00    -0.022 C 
BRANCH  51  52
ATOM     52  CG1 EXE d   1      14.056  51.866  93.018  0.00  0.00    -0.067 C 
ATOM     53  H6  EXE d   1      14.146  50.842  93.409  0.00  0.00     0.028 H 
ATOM     54  H7  EXE d   1      15.020  52.385  93.126  0.00  0.00     0.028 H 
ATOM     55  H8  EXE d   1      13.776  51.830  91.955  0.00  0.00     0.028 H 
ENDBRANCH  51  52
BRANCH  51  56
ATOM     56  CAE EXE d   1      11.648  51.807  93.733  0.00  0.00    -0.067 C 
ATOM     57  H9  EXE d   1      10.855  52.327  94.291  0.00  0.00     0.028 H 
ATOM     58  H10 EXE d   1      11.811  50.811  94.170  0.00  0.00     0.028 H 
ATOM     59  H11 EXE d   1      11.347  51.701  92.680  0.00  0.00     0.028 H 
ENDBRANCH  51  56
BRANCH  51  60
ATOM     60  CG2 EXE d   1      13.339  52.741  95.302  0.00  0.00    -0.067 C 
ATOM     61  H12 EXE d   1      14.269  53.319  95.403  0.00  0.00     0.028 H 
ATOM     62  H13 EXE d   1      13.486  51.734  95.719  0.00  0.00     0.028 H 
ATOM     63  H14 EXE d   1      12.530  53.249  95.847  0.00  0.00     0.028 H 
ENDBRANCH  51  60
ENDBRANCH  41  51
ENDBRANCH   1  41
BRANCH   5  64
ATOM     64  OAI EXE d   1      14.966  56.970  90.023  0.00  0.00    -0.391 OA
ATOM     65  H18 EXE d   1      15.219  57.473  89.258  0.00  0.00     0.210 HD
ENDBRANCH   5  64
TORSDOF 13
