REMARK  4 active torsions:
REMARK  status: ('A' for Active; 'I' for Inactive)
REMARK    1  A    between atoms: N_1  and  CA_2 
REMARK    2  A    between atoms: CA_2  and  C_3 
REMARK    3  A    between atoms: CA_2  and  CB_5 
REMARK    4  A    between atoms: CB_5  and  CG_6 
ROOT
ATOM      1  CB  PHE d   1     369.731 -80.276 196.669  0.00  0.00    -0.005 C 
ATOM      2  H5  PHE d   1     369.596 -79.529 197.465  0.00  0.00     0.044 H 
ATOM      3  H6  PHE d   1     369.693 -81.286 197.103  0.00  0.00     0.044 H 
ENDROOT
BRANCH   1   4
ATOM      4  CA  PHE d   1     371.112 -80.073 196.052  0.00  0.00     0.186 C 
ATOM      5  H4  PHE d   1     371.871 -80.332 196.805  0.00  0.00     0.101 H 
BRANCH   4   6
ATOM      6  N   PHE d   1     371.318 -78.635 195.659  0.00  0.00    -0.065 N 
ATOM      7  H1  PHE d   1     371.199 -78.045 196.468  0.00  0.00     0.275 HD
ATOM      8  H2  PHE d   1     370.644 -78.379 194.955  0.00  0.00     0.275 HD
ATOM      9  H3  PHE d   1     372.249 -78.517 195.292  0.00  0.00     0.275 HD
ENDBRANCH   4   6
BRANCH   4  10
ATOM     10  C   PHE d   1     371.282 -81.013 194.857  0.00  0.00     0.204 C 
ATOM     11  O   PHE d   1     371.478 -80.510 193.746  0.00  0.00    -0.646 OA
ATOM     12  OXT PHE d   1     371.200 -82.255 194.979  0.00  0.00    -0.646 OA
ENDBRANCH   4  10
ENDBRANCH   1   4
BRANCH   1  13
ATOM     13  CG  PHE d   1     368.588 -80.138 195.693  0.00  0.00    -0.056 A 
ATOM     14  CD1 PHE d   1     368.041 -78.882 195.403  0.00  0.00    -0.077 A 
ATOM     15  CE1 PHE d   1     366.968 -78.760 194.521  0.00  0.00    -0.082 A 
ATOM     16  H7  PHE d   1     368.456 -77.996 195.869  0.00  0.00     0.084 H 
ATOM     17  CZ  PHE d   1     366.432 -79.895 193.912  0.00  0.00    -0.083 A 
ATOM     18  H9  PHE d   1     366.550 -77.783 194.308  0.00  0.00     0.083 H 
ATOM     19  CE2 PHE d   1     366.959 -81.157 194.200  0.00  0.00    -0.082 A 
ATOM     20  H11 PHE d   1     365.607 -79.798 193.216  0.00  0.00     0.083 H 
ATOM     21  CD2 PHE d   1     368.028 -81.273 195.086  0.00  0.00    -0.077 A 
ATOM     22  H10 PHE d   1     366.538 -82.042 193.736  0.00  0.00     0.083 H 
ATOM     23  H8  PHE d   1     368.433 -82.253 195.310  0.00  0.00     0.084 H 
ENDBRANCH   1  13
TORSDOF 4
