REMARK  5 active torsions:
REMARK  status: ('A' for Active; 'I' for Inactive)
REMARK    1  A    between atoms: N01_7  and  C13_14 
REMARK    2  A    between atoms: C12_13  and  C15_16 
REMARK    3  A    between atoms: C13_14  and  C14_15 
REMARK    4  A    between atoms: C15_16  and  N02_17 
REMARK    5  A    between atoms: N02_17  and  C16_18 
ROOT
ATOM      1  C01 EY2 d   1      90.702  95.547 -45.557  0.00  0.00    -0.069 A 
ATOM      2  C02 EY2 d   1      90.663  94.417 -46.414  0.00  0.00    -0.065 A 
ATOM      3  C03 EY2 d   1      90.946  93.117 -45.926  0.00  0.00     0.013 A 
ATOM      4  C04 EY2 d   1      91.267  92.939 -44.572  0.00  0.00    -0.039 A 
ATOM      5  C05 EY2 d   1      91.298  94.055 -43.720  0.00  0.00     0.047 A 
ATOM      6  C06 EY2 d   1      91.020  95.340 -44.197  0.00  0.00     0.003 A 
ATOM      7  N01 EY2 d   1      91.585  94.105 -42.399  0.00  0.00    -0.346 N 
ATOM      8  C07 EY2 d   1      91.144  96.202 -43.107  0.00  0.00     0.004 A 
ATOM      9  C08 EY2 d   1      91.489  95.403 -42.003  0.00  0.00     0.046 A 
ATOM     10  C09 EY2 d   1      90.992  97.598 -42.977  0.00  0.00    -0.062 A 
ATOM     11  C10 EY2 d   1      91.688  95.995 -40.741  0.00  0.00    -0.056 A 
ATOM     12  C11 EY2 d   1      91.540  97.396 -40.604  0.00  0.00    -0.073 A 
ATOM     13  C12 EY2 d   1      91.180  98.206 -41.715  0.00  0.00    -0.032 A 
ATOM     14 BR1  EY2 d   1      90.905  91.612 -47.031  0.00  0.00    -0.051 Br
ATOM     15  H1  EY2 d   1      90.494  96.541 -45.936  0.00  0.00     0.085 H 
ATOM     16  H2  EY2 d   1      90.412  94.550 -47.460  0.00  0.00     0.085 H 
ATOM     17  H3  EY2 d   1      91.489  91.950 -44.187  0.00  0.00     0.089 H 
ATOM     18  H4  EY2 d   1      90.733  98.201 -43.840  0.00  0.00     0.085 H 
ATOM     19  H5  EY2 d   1      91.951  95.385 -39.885  0.00  0.00     0.087 H 
ATOM     20  H6  EY2 d   1      91.704  97.858 -39.637  0.00  0.00     0.084 H 
ENDROOT
BRANCH  13  21
ATOM     21  C15 EY2 d   1      91.029  99.678 -41.577  0.00  0.00     0.105 C 
ATOM     22  H12 EY2 d   1      91.125 100.138 -42.572  0.00  0.00     0.083 H 
ATOM     23  H13 EY2 d   1      91.826 100.055 -40.920  0.00  0.00     0.083 H 
BRANCH  21  24
ATOM     24  N02 EY2 d   1      89.723 100.056 -41.003  0.00  0.00    -0.075 N 
ATOM     25  H14 EY2 d   1      89.618  99.590 -40.115  0.00  0.00     0.277 HD
ATOM     26  H15 EY2 d   1      88.997  99.749 -41.632  0.00  0.00     0.277 HD
BRANCH  24  27
ATOM     27  C16 EY2 d   1      89.571 101.511 -40.789  0.00  0.00     0.065 C 
ATOM     28  H16 EY2 d   1      88.579 101.717 -40.361  0.00  0.00     0.067 H 
ATOM     29  H17 EY2 d   1      89.672 102.036 -41.751  0.00  0.00     0.067 H 
ATOM     30  H18 EY2 d   1      90.349 101.863 -40.096  0.00  0.00     0.067 H 
ENDBRANCH  24  27
ENDBRANCH  21  24
ENDBRANCH  13  21
BRANCH   7  31
ATOM     31  C13 EY2 d   1      91.913  92.963 -41.585  0.00  0.00    -0.003 C 
ATOM     32  H7  EY2 d   1      91.405  92.076 -41.991  0.00  0.00     0.064 H 
ATOM     33  H8  EY2 d   1      91.567  93.145 -40.557  0.00  0.00     0.064 H 
BRANCH  31  34
ATOM     34  C14 EY2 d   1      93.436  92.705 -41.565  0.00  0.00    -0.061 C 
ATOM     35  H9  EY2 d   1      93.651  91.829 -40.936  0.00  0.00     0.029 H 
ATOM     36  H10 EY2 d   1      93.952  93.586 -41.155  0.00  0.00     0.029 H 
ATOM     37  H11 EY2 d   1      93.790  92.517 -42.590  0.00  0.00     0.029 H 
ENDBRANCH  31  34
ENDBRANCH   7  31
TORSDOF 5
