REMARK  6 active torsions:
REMARK  status: ('A' for Active; 'I' for Inactive)
REMARK    1  A    between atoms: N1_1  and  C14_15 
REMARK    2  A    between atoms: C4_5  and  C7_8 
REMARK    3  A    between atoms: C7_8  and  N2_22 
REMARK    4  A    between atoms: C12_13  and  C15_16 
REMARK    5  A    between atoms: C14_15  and  C20_21 
REMARK    6  A    between atoms: N2_22  and  C21_23 
ROOT
ATOM      1  N1  EXQ d   1      91.387  94.272 -42.398  0.00  0.00    -0.346 N 
ATOM      2  C1  EXQ d   1      91.285  95.581 -41.954  0.00  0.00     0.046 A 
ATOM      3  C2  EXQ d   1      90.966  96.412 -43.037  0.00  0.00     0.004 A 
ATOM      4  C3  EXQ d   1      90.865  97.783 -42.832  0.00  0.00    -0.062 A 
ATOM      5  C4  EXQ d   1      91.075  98.326 -41.568  0.00  0.00    -0.032 A 
ATOM      6  C5  EXQ d   1      91.368  97.474 -40.504  0.00  0.00    -0.073 A 
ATOM      7  C6  EXQ d   1      91.476  96.103 -40.680  0.00  0.00    -0.056 A 
ATOM      8  C8  EXQ d   1      91.123  94.250 -43.760  0.00  0.00     0.046 A 
ATOM      9  C9  EXQ d   1      90.848  95.552 -44.198  0.00  0.00     0.003 A 
ATOM     10  C10 EXQ d   1      90.554  95.765 -45.541  0.00  0.00    -0.069 A 
ATOM     11  C11 EXQ d   1      90.552  94.692 -46.417  0.00  0.00    -0.071 A 
ATOM     12  C12 EXQ d   1      90.847  93.396 -45.979  0.00  0.00    -0.017 A 
ATOM     13  C13 EXQ d   1      91.131  93.170 -44.633  0.00  0.00    -0.045 A 
ATOM     14  H1  EXQ d   1      90.621  98.434 -43.663  0.00  0.00     0.085 H 
ATOM     15  H2  EXQ d   1      91.515  97.894 -39.515  0.00  0.00     0.084 H 
ATOM     16  H3  EXQ d   1      91.704  95.453 -39.843  0.00  0.00     0.087 H 
ATOM     17  H6  EXQ d   1      90.328  96.763 -45.899  0.00  0.00     0.085 H 
ATOM     18  H7  EXQ d   1      90.317  94.859 -47.462  0.00  0.00     0.084 H 
ATOM     19  H8  EXQ d   1      91.354  92.171 -44.275  0.00  0.00     0.088 H 
ENDROOT
BRANCH   5  20
ATOM     20  C7  EXQ d   1      91.017  99.819 -41.359  0.00  0.00     0.105 C 
ATOM     21  H4  EXQ d   1      91.345 100.316 -42.284  0.00  0.00     0.083 H 
ATOM     22  H5  EXQ d   1      91.698 100.086 -40.538  0.00  0.00     0.083 H 
BRANCH  20  23
ATOM     23  N2  EXQ d   1      89.672 100.293 -41.024  0.00  0.00    -0.075 N 
ATOM     24  H17 EXQ d   1      89.312  99.743 -40.260  0.00  0.00     0.277 HD
ATOM     25  H18 EXQ d   1      89.076 100.180 -41.829  0.00  0.00     0.277 HD
BRANCH  23  26
ATOM     26  C21 EXQ d   1      89.678 101.705 -40.631  0.00  0.00     0.065 C 
ATOM     27  H19 EXQ d   1      88.653 102.022 -40.388  0.00  0.00     0.067 H 
ATOM     28  H20 EXQ d   1      90.064 102.315 -41.461  0.00  0.00     0.067 H 
ATOM     29  H21 EXQ d   1      90.322 101.837 -39.749  0.00  0.00     0.067 H 
ENDBRANCH  23  26
ENDBRANCH  20  23
ENDBRANCH   5  20
BRANCH   1  30
ATOM     30  C14 EXQ d   1      91.779  93.122 -41.586  0.00  0.00    -0.003 C 
ATOM     31  H9  EXQ d   1      91.295  92.221 -41.992  0.00  0.00     0.064 H 
ATOM     32  H10 EXQ d   1      91.440  93.287 -40.553  0.00  0.00     0.064 H 
BRANCH  30  33
ATOM     33  C20 EXQ d   1      93.270  92.910 -41.579  0.00  0.00    -0.061 C 
ATOM     34  H14 EXQ d   1      93.513  92.036 -40.957  0.00  0.00     0.029 H 
ATOM     35  H15 EXQ d   1      93.765  93.802 -41.168  0.00  0.00     0.029 H 
ATOM     36  H16 EXQ d   1      93.621  92.737 -42.607  0.00  0.00     0.029 H 
ENDBRANCH  30  33
ENDBRANCH   1  30
BRANCH  12  37
ATOM     37  C15 EXQ d   1      90.894  92.283 -46.940  0.00  0.00     0.015 A 
ATOM     38  C16 EXQ d   1      90.802  92.344 -48.318  0.00  0.00    -0.065 A 
ATOM     39  C17 EXQ d   1      90.915  91.056 -48.934  0.00  0.00    -0.075 A 
ATOM     40  H11 EXQ d   1      90.659  93.269 -48.874  0.00  0.00     0.085 H 
ATOM     41  C18 EXQ d   1      91.081  90.070 -48.035  0.00  0.00    -0.044 A 
ATOM     42  H12 EXQ d   1      90.871  90.893 -50.010  0.00  0.00     0.084 H 
ATOM     43  S1  EXQ d   1      91.109  90.660 -46.436  0.00  0.00    -0.101 SA
ATOM     44  H13 EXQ d   1      91.185  89.018 -48.297  0.00  0.00     0.095 H 
ENDBRANCH  12  37
TORSDOF 6
