REMARK  7 active torsions:
REMARK  status: ('A' for Active; 'I' for Inactive)
REMARK    1  A    between atoms: N1_1  and  C14_15 
REMARK    2  A    between atoms: C4_5  and  C7_8 
REMARK    3  A    between atoms: C7_8  and  N2_23 
REMARK    4  A    between atoms: C12_13  and  C15_16 
REMARK    5  A    between atoms: C14_15  and  C20_22 
REMARK    6  A    between atoms: C17_18  and  C19_21 
REMARK    7  A    between atoms: N2_23  and  C21_24 
ROOT
ATOM      1  N1  EXQ d   1      91.742  94.217 -42.551  0.00  0.00    -0.346 N 
ATOM      2  C1  EXQ d   1      91.689  95.527 -42.067  0.00  0.00     0.046 A 
ATOM      3  C2  EXQ d   1      91.332  96.411 -43.128  0.00  0.00     0.004 A 
ATOM      4  C3  EXQ d   1      91.224  97.791 -42.874  0.00  0.00    -0.062 A 
ATOM      5  C4  EXQ d   1      91.463  98.282 -41.576  0.00  0.00    -0.032 A 
ATOM      6  C5  EXQ d   1      91.838  97.402 -40.530  0.00  0.00    -0.073 A 
ATOM      7  C6  EXQ d   1      91.938  96.022 -40.770  0.00  0.00    -0.056 A 
ATOM      8  C8  EXQ d   1      91.420  94.254 -43.901  0.00  0.00     0.046 A 
ATOM      9  C9  EXQ d   1      91.159  95.597 -44.292  0.00  0.00     0.003 A 
ATOM     10  C10 EXQ d   1      90.814  95.850 -45.630  0.00  0.00    -0.069 A 
ATOM     11  C11 EXQ d   1      90.727  94.779 -46.540  0.00  0.00    -0.071 A 
ATOM     12  C12 EXQ d   1      90.985  93.443 -46.159  0.00  0.00    -0.017 A 
ATOM     13  C13 EXQ d   1      91.347  93.193 -44.818  0.00  0.00    -0.045 A 
ATOM     14  H1  EXQ d   1      90.958  98.473 -43.674  0.00  0.00     0.085 H 
ATOM     15  H2  EXQ d   1      92.048  97.795 -39.542  0.00  0.00     0.084 H 
ATOM     16  H3  EXQ d   1      92.204  95.344 -39.967  0.00  0.00     0.087 H 
ATOM     17  H6  EXQ d   1      90.616  96.863 -45.960  0.00  0.00     0.085 H 
ATOM     18  H7  EXQ d   1      90.453  94.987 -47.568  0.00  0.00     0.084 H 
ATOM     19  H8  EXQ d   1      91.569  92.182 -44.496  0.00  0.00     0.088 H 
ENDROOT
BRANCH  12  20
ATOM     20  C15 EXQ d   1      90.893  92.367 -47.153  0.00  0.00     0.015 A 
ATOM     21  C16 EXQ d   1      90.417  92.412 -48.442  0.00  0.00    -0.059 A 
ATOM     22  C17 EXQ d   1      90.501  91.157 -49.115  0.00  0.00    -0.054 A 
ATOM     23  H11 EXQ d   1      90.017  93.314 -48.902  0.00  0.00     0.086 H 
ATOM     24  C18 EXQ d   1      91.052  90.176 -48.329  0.00  0.00    -0.038 A 
ATOM     25  S1  EXQ d   1      91.471  90.774 -46.754  0.00  0.00    -0.101 SA
ATOM     26  H12 EXQ d   1      91.207  89.148 -48.654  0.00  0.00     0.095 H 
BRANCH  22  27
ATOM     27  C19 EXQ d   1      90.043  90.944 -50.524  0.00  0.00    -0.051 C 
ATOM     28  H13 EXQ d   1      89.643  91.886 -50.926  0.00  0.00     0.033 H 
ATOM     29  H14 EXQ d   1      89.257  90.175 -50.542  0.00  0.00     0.033 H 
ATOM     30  H15 EXQ d   1      90.893  90.614 -51.140  0.00  0.00     0.033 H 
ENDBRANCH  22  27
ENDBRANCH  12  20
BRANCH   1  31
ATOM     31  C14 EXQ d   1      92.069  93.008 -41.824  0.00  0.00    -0.003 C 
ATOM     32  H9  EXQ d   1      91.626  92.146 -42.344  0.00  0.00     0.064 H 
ATOM     33  H10 EXQ d   1      91.653  93.077 -40.808  0.00  0.00     0.064 H 
BRANCH  31  34
ATOM     34  C20 EXQ d   1      93.585  92.810 -41.730  0.00  0.00    -0.061 C 
ATOM     35  H16 EXQ d   1      93.800  91.886 -41.174  0.00  0.00     0.029 H 
ATOM     36  H17 EXQ d   1      94.035  93.666 -41.206  0.00  0.00     0.029 H 
ATOM     37  H18 EXQ d   1      94.009  92.736 -42.742  0.00  0.00     0.029 H 
ENDBRANCH  31  34
ENDBRANCH   1  31
BRANCH   5  38
ATOM     38  C7  EXQ d   1      91.349  99.769 -41.333  0.00  0.00     0.105 C 
ATOM     39  H4  EXQ d   1      91.697 100.306 -42.227  0.00  0.00     0.083 H 
ATOM     40  H5  EXQ d   1      91.979 100.041 -40.473  0.00  0.00     0.083 H 
BRANCH  38  41
ATOM     41  N2  EXQ d   1      89.955 100.158 -41.050  0.00  0.00    -0.075 N 
ATOM     42  H19 EXQ d   1      89.632  99.629 -40.255  0.00  0.00     0.277 HD
ATOM     43  H20 EXQ d   1      89.392  99.933 -41.855  0.00  0.00     0.277 HD
BRANCH  41  44
ATOM     44  C21 EXQ d   1      89.791 101.598 -40.752  0.00  0.00     0.065 C 
ATOM     45  H21 EXQ d   1      88.731 101.813 -40.552  0.00  0.00     0.067 H 
ATOM     46  H22 EXQ d   1      90.129 102.192 -41.614  0.00  0.00     0.067 H 
ATOM     47  H23 EXQ d   1      90.391 101.860 -39.868  0.00  0.00     0.067 H 
ENDBRANCH  41  44
ENDBRANCH  38  41
ENDBRANCH   5  38
TORSDOF 7
