REMARK  12 active torsions:
REMARK  status: ('A' for Active; 'I' for Inactive)
REMARK    1  A    between atoms: C21_3  and  C22_4 
REMARK    2  A    between atoms: C22_4  and  C23_5 
REMARK    3  A    between atoms: C23_5  and  C24_6 
REMARK    4  A    between atoms: C24_6  and  C25_7 
REMARK    5  A    between atoms: C25_7  and  C26_8 
REMARK    6  A    between atoms: C26_8  and  C27_9 
REMARK    7  A    between atoms: C27_9  and  C28_10 
REMARK    8  A    between atoms: C28_10  and  C29_11 
REMARK    9  A    between atoms: C29_11  and  C30_12 
REMARK   10  A    between atoms: C30_12  and  C31_13 
REMARK   11  A    between atoms: C31_13  and  C32_14 
REMARK   12  A    between atoms: C32_14  and  C33_15 
ROOT
ATOM      1  C27 TDA d   1      38.039 -48.721 111.580  0.00  0.00    -0.107 C 
ATOM      2  H10 TDA d   1      38.317 -47.933 110.882  0.00  0.00     0.076 H 
ENDROOT
BRANCH   1   3
ATOM      3  C26 TDA d   1      36.716 -48.677 112.263  0.00  0.00    -0.107 C 
ATOM      4  H9  TDA d   1      36.404 -49.492 112.915  0.00  0.00     0.076 H 
BRANCH   3   5
ATOM      5  C25 TDA d   1      35.829 -47.507 112.043  0.00  0.00    -0.050 C 
ATOM      6  H7  TDA d   1      36.469 -46.614 112.095  0.00  0.00     0.038 H 
ATOM      7  H8  TDA d   1      35.422 -47.608 111.026  0.00  0.00     0.038 H 
BRANCH   5   8
ATOM      8  C24 TDA d   1      34.670 -47.251 112.940  0.00  0.00    -0.062 C 
ATOM      9  H5  TDA d   1      34.596 -48.111 113.621  0.00  0.00     0.033 H 
ATOM     10  H6  TDA d   1      34.906 -46.345 113.517  0.00  0.00     0.033 H 
BRANCH   8  11
ATOM     11  C23 TDA d   1      33.313 -47.048 112.346  0.00  0.00    -0.056 C 
ATOM     12  H3  TDA d   1      33.315 -46.064 111.855  0.00  0.00     0.033 H 
ATOM     13  H4  TDA d   1      33.166 -47.834 111.591  0.00  0.00     0.033 H 
BRANCH  11  14
ATOM     14  C22 TDA d   1      32.129 -47.085 113.263  0.00  0.00     0.016 C 
ATOM     15  H1  TDA d   1      32.455 -47.614 114.171  0.00  0.00     0.049 H 
ATOM     16  H2  TDA d   1      31.895 -46.039 113.512  0.00  0.00     0.049 H 
BRANCH  14  17
ATOM     17  C21 TDA d   1      30.836 -47.721 112.841  0.00  0.00     0.172 C 
ATOM     18  O21 TDA d   1      29.748 -47.255 113.266  0.00  0.00    -0.648 OA
ATOM     19  O22 TDA d   1      30.787 -48.735 112.092  0.00  0.00    -0.648 OA
ENDBRANCH  14  17
ENDBRANCH  11  14
ENDBRANCH   8  11
ENDBRANCH   5   8
ENDBRANCH   3   5
ENDBRANCH   1   3
BRANCH   1  20
ATOM     20  C28 TDA d   1      38.980 -49.840 111.851  0.00  0.00    -0.050 C 
ATOM     21  H11 TDA d   1      38.489 -50.772 111.535  0.00  0.00     0.038 H 
ATOM     22  H12 TDA d   1      39.160 -49.870 112.936  0.00  0.00     0.038 H 
BRANCH  20  23
ATOM     23  C29 TDA d   1      40.297 -49.776 111.180  0.00  0.00    -0.059 C 
ATOM     24  H13 TDA d   1      40.836 -48.929 111.631  0.00  0.00     0.033 H 
ATOM     25  H14 TDA d   1      40.097 -49.561 110.120  0.00  0.00     0.033 H 
BRANCH  23  26
ATOM     26  C30 TDA d   1      41.222 -50.921 111.206  0.00  0.00    -0.050 C 
ATOM     27  H15 TDA d   1      40.681 -51.809 110.847  0.00  0.00     0.038 H 
ATOM     28  H16 TDA d   1      41.541 -51.082 112.246  0.00  0.00     0.038 H 
BRANCH  26  29
ATOM     29  C31 TDA d   1      42.423 -50.749 110.378  0.00  0.00    -0.107 C 
ATOM     30  H17 TDA d   1      42.503 -49.911 109.687  0.00  0.00     0.076 H 
BRANCH  29  31
ATOM     31  C32 TDA d   1      43.516 -51.727 110.498  0.00  0.00    -0.110 C 
ATOM     32  H18 TDA d   1      43.485 -52.537 111.225  0.00  0.00     0.075 H 
BRANCH  31  33
ATOM     33  C33 TDA d   1      44.662 -51.548 109.574  0.00  0.00    -0.060 C 
ATOM     34  H19 TDA d   1      45.408 -52.334 109.759  0.00  0.00     0.032 H 
ATOM     35  H20 TDA d   1      45.119 -50.562 109.743  0.00  0.00     0.032 H 
ATOM     36  H21 TDA d   1      44.309 -51.615 108.534  0.00  0.00     0.032 H 
ENDBRANCH  31  33
ENDBRANCH  29  31
ENDBRANCH  26  29
ENDBRANCH  23  26
ENDBRANCH  20  23
ENDBRANCH   1  20
TORSDOF 12
