REMARK  12 active torsions:
REMARK  status: ('A' for Active; 'I' for Inactive)
REMARK    1  A    between atoms: N_1  and  CA_2 
REMARK    2  A    between atoms: CA_2  and  C_3 
REMARK    3  A    between atoms: CA_2  and  CB_5 
REMARK       I    between atoms: C_3  and  N_12 
REMARK    4  A    between atoms: CB_5  and  CG_6 
REMARK    5  A    between atoms: N_12  and  CA_13 
REMARK    6  A    between atoms: CA_13  and  C_14 
REMARK    7  A    between atoms: CA_13  and  CB_16 
REMARK       I    between atoms: C_14  and  N_17 
REMARK    8  A    between atoms: N_17  and  CA_18 
REMARK    9  A    between atoms: CA_18  and  C_19 
REMARK   10  A    between atoms: CA_18  and  CB_21 
REMARK   11  A    between atoms: CB_21  and  CG_22 
REMARK   12  A    between atoms: CG_22  and  CD_23 
REMARK       I    between atoms: CD_23  and  NE2_25 
ROOT
ATOM      1  CA  ALA d   1      22.062  20.513  -5.112  0.00  0.00     0.086 C 
ATOM      2  H13 ALA d   1      21.093  20.732  -5.585  0.00  0.00     0.086 H 
ENDROOT
BRANCH   1   3
ATOM      3  N   ALA d   1      21.807  19.776  -3.878  0.00  0.00    -0.346 N 
ATOM      4  C   PHE d   1      21.239  18.569  -3.905  0.00  0.00     0.249 C 
ATOM      5  O   PHE d   1      20.875  18.003  -4.939  0.00  0.00    -0.271 OA
ATOM      6  H12 ALA d   1      22.062  20.181  -3.000  0.00  0.00     0.163 HD
BRANCH   4   7
ATOM      7  CA  PHE d   1      21.088  17.880  -2.568  0.00  0.00     0.179 C 
ATOM      8  H4  PHE d   1      20.957  18.641  -1.785  0.00  0.00     0.099 H 
BRANCH   7   9
ATOM      9  N   PHE d   1      19.901  17.019  -2.583  0.00  0.00    -0.066 N 
ATOM     10  H1  PHE d   1      19.806  16.563  -1.689  0.00  0.00     0.275 HD
ATOM     11  H2  PHE d   1      19.999  16.324  -3.306  0.00  0.00     0.275 HD
ATOM     12  H3  PHE d   1      19.082  17.579  -2.764  0.00  0.00     0.275 HD
ENDBRANCH   7   9
BRANCH   7  13
ATOM     13  CB  PHE d   1      22.370  17.082  -2.269  0.00  0.00    -0.006 C 
ATOM     14  H5  PHE d   1      23.231  17.758  -2.378  0.00  0.00     0.043 H 
ATOM     15  H6  PHE d   1      22.449  16.267  -3.003  0.00  0.00     0.043 H 
BRANCH  13  16
ATOM     16  CG  PHE d   1      22.412  16.480  -0.886  0.00  0.00    -0.056 A 
ATOM     17  CD1 PHE d   1      22.230  17.279   0.240  0.00  0.00    -0.077 A 
ATOM     18  CE1 PHE d   1      22.260  16.710   1.521  0.00  0.00    -0.082 A 
ATOM     19  H7  PHE d   1      22.065  18.344   0.126  0.00  0.00     0.084 H 
ATOM     20  CZ  PHE d   1      22.484  15.339   1.678  0.00  0.00    -0.083 A 
ATOM     21  H9  PHE d   1      22.109  17.336   2.393  0.00  0.00     0.083 H 
ATOM     22  CE2 PHE d   1      22.679  14.537   0.563  0.00  0.00    -0.082 A 
ATOM     23  H11 PHE d   1      22.505  14.903   2.670  0.00  0.00     0.083 H 
ATOM     24  CD2 PHE d   1      22.632  15.106  -0.710  0.00  0.00    -0.077 A 
ATOM     25  H10 PHE d   1      22.867  13.476   0.680  0.00  0.00     0.083 H 
ATOM     26  H8  PHE d   1      22.768  14.474  -1.580  0.00  0.00     0.084 H 
ENDBRANCH  13  16
ENDBRANCH   7  13
ENDBRANCH   4   7
ENDBRANCH   1   3
BRANCH   1  27
ATOM     27  C   ALA d   1      22.889  19.691  -6.094  0.00  0.00     0.240 C 
ATOM     28  O   ALA d   1      22.521  19.552  -7.265  0.00  0.00    -0.271 OA
ATOM     29  N   GLN d   1      24.001  19.124  -5.642  0.00  0.00    -0.345 N 
ATOM     30  H17 GLN d   1      24.337  19.313  -4.719  0.00  0.00     0.163 HD
BRANCH  29  31
ATOM     31  CA  GLN d   1      24.719  18.215  -6.535  0.00  0.00     0.096 C 
ATOM     32  H18 GLN d   1      24.027  17.938  -7.344  0.00  0.00     0.089 H 
BRANCH  31  33
ATOM     33  C   GLN d   1      25.174  16.908  -5.862  0.00  0.00     0.196 C 
ATOM     34  O   GLN d   1      24.829  16.586  -4.716  0.00  0.00    -0.646 OA
ATOM     35  OXT GLN d   1      25.884  16.104  -6.477  0.00  0.00    -0.646 OA
ENDBRANCH  31  33
BRANCH  31  36
ATOM     36  CB  GLN d   1      25.912  18.943  -7.163  0.00  0.00    -0.029 C 
ATOM     37  H19 GLN d   1      25.532  19.830  -7.691  0.00  0.00     0.037 H 
ATOM     38  H20 GLN d   1      26.386  18.262  -7.885  0.00  0.00     0.037 H 
BRANCH  36  39
ATOM     39  CG  GLN d   1      26.971  19.399  -6.181  0.00  0.00     0.011 C 
ATOM     40  H21 GLN d   1      27.307  18.534  -5.590  0.00  0.00     0.047 H 
ATOM     41  H22 GLN d   1      26.535  20.154  -5.510  0.00  0.00     0.047 H 
BRANCH  39  42
ATOM     42  CD  GLN d   1      28.167  20.004  -6.891  0.00  0.00     0.215 C 
ATOM     43  OE1 GLN d   1      28.023  20.575  -7.987  0.00  0.00    -0.274 OA
ATOM     44  NE2 GLN d   1      29.357  19.883  -6.281  0.00  0.00    -0.370 N 
ATOM     45  H23 GLN d   1      30.178  20.264  -6.706  0.00  0.00     0.159 HD
ATOM     46  H24 GLN d   1      29.422  19.412  -5.401  0.00  0.00     0.159 HD
ENDBRANCH  39  42
ENDBRANCH  36  39
ENDBRANCH  31  36
ENDBRANCH  29  31
ENDBRANCH   1  27
BRANCH   1  47
ATOM     47  CB  ALA d   1      22.755  21.843  -4.800  0.00  0.00    -0.049 C 
ATOM     48  H14 ALA d   1      22.941  22.388  -5.737  0.00  0.00     0.030 H 
ATOM     49  H15 ALA d   1      23.712  21.648  -4.293  0.00  0.00     0.030 H 
ATOM     50  H16 ALA d   1      22.110  22.448  -4.146  0.00  0.00     0.030 H 
ENDBRANCH   1  47
TORSDOF 12
