REMARK  6 active torsions:
REMARK  status: ('A' for Active; 'I' for Inactive)
REMARK    1  A    between atoms: C11_10  and  C7_4 
REMARK    2  A    between atoms: C12_11  and  C20_7 
REMARK    3  A    between atoms: C20_7  and  N21_21 
REMARK    4  A    between atoms: N21_21  and  C24_8 
REMARK    5  A    between atoms: N21_21  and  C23_17 
REMARK    6  A    between atoms: C3_18  and  O22_24 
ROOT
ATOM      1  C15 EZZ d   1      16.701  31.665  12.339  0.00  0.00     0.001 A 
ATOM      2  C17 EZZ d   1      14.554  32.441  11.449  0.00  0.00    -0.056 A 
ATOM      3  C11 EZZ d   1      17.733  32.230  13.176  0.00  0.00     0.006 A 
ATOM      4  C12 EZZ d   1      17.325  33.489  13.516  0.00  0.00     0.045 A 
ATOM      5  C14 EZZ d   1      15.699  32.649  12.215  0.00  0.00     0.043 A 
ATOM      6  C16 EZZ d   1      16.533  30.453  11.669  0.00  0.00    -0.070 A 
ATOM      7  C18 EZZ d   1      14.413  31.222  10.794  0.00  0.00    -0.081 A 
ATOM      8  C19 EZZ d   1      15.380  30.231  10.920  0.00  0.00    -0.082 A 
ATOM      9  N13 EZZ d   1      16.098  33.752  12.948  0.00  0.00    -0.357 N 
ATOM     10  H3  EZZ d   1      13.793  33.209  11.366  0.00  0.00     0.086 H 
ATOM     11  H10 EZZ d   1      17.297  29.687  11.731  0.00  0.00     0.084 H 
ATOM     12  H11 EZZ d   1      13.539  31.043  10.178  0.00  0.00     0.083 H 
ATOM     13  H12 EZZ d   1      15.235  29.275  10.430  0.00  0.00     0.083 H 
ATOM     14  H17 EZZ d   1      15.565  34.627  13.052  0.00  0.00     0.166 HD
ENDROOT
BRANCH   3  15
ATOM     15  C7  EZZ d   1      18.988  31.525  13.656  0.00  0.00     0.067 A 
ATOM     16  C5  EZZ d   1      19.947  31.174  12.560  0.00  0.00    -0.013 A 
ATOM     17  C4  EZZ d   1      20.599  31.984  11.636  0.00  0.00    -0.042 A 
ATOM     18  C6  EZZ d   1      20.144  29.805  12.535  0.00  0.00     0.040 A 
ATOM     19  C3  EZZ d   1      21.408  31.402  10.669  0.00  0.00     0.066 A 
ATOM     20  H1  EZZ d   1      20.477  33.060  11.671  0.00  0.00     0.088 H 
ATOM     21  C2  EZZ d   1      21.586  30.022  10.630  0.00  0.00    -0.050 A 
ATOM     22  C1  EZZ d   1      20.954  29.218  11.564  0.00  0.00    -0.065 A 
ATOM     23  H13 EZZ d   1      22.218  29.577   9.870  0.00  0.00     0.087 H 
ATOM     24  H9  EZZ d   1      21.088  28.143  11.540  0.00  0.00     0.085 H 
ATOM     25  C9  EZZ d   1      19.352  29.202  13.625  0.00  0.00     0.253 A 
ATOM     26  N8  EZZ d   1      18.712  30.215  14.234  0.00  0.00    -0.344 N 
ATOM     27  O10 EZZ d   1      19.256  28.013  13.909  0.00  0.00    -0.268 OA
ATOM     28  H19 EZZ d   1      18.101  30.082  15.014  0.00  0.00     0.163 HD
ATOM     29  H2  EZZ d   1      19.480  32.174  14.396  0.00  0.00     0.088 H 
BRANCH  19  30
ATOM     30  O22 EZZ d   1      22.056  32.208   9.794  0.00  0.00    -0.361 OA
ATOM     31  H20 EZZ d   1      21.819  33.112   9.963  0.00  0.00     0.217 HD
ENDBRANCH  19  30
ENDBRANCH   3  15
BRANCH   4  32
ATOM     32  C20 EZZ d   1      17.974  34.465  14.452  0.00  0.00     0.120 C 
ATOM     33  H4  EZZ d   1      18.046  35.439  13.946  0.00  0.00     0.085 H 
ATOM     34  H5  EZZ d   1      18.984  34.101  14.691  0.00  0.00     0.085 H 
BRANCH  32  35
ATOM     35  N21 EZZ d   1      17.236  34.646  15.707  0.00  0.00    -0.074 N 
ATOM     36  H18 EZZ d   1      16.282  34.881  15.480  0.00  0.00     0.279 HD
BRANCH  35  37
ATOM     37  C24 EZZ d   1      17.230  33.411  16.497  0.00  0.00     0.066 C 
ATOM     38  H6  EZZ d   1      16.671  33.575  17.430  0.00  0.00     0.068 H 
ATOM     39  H7  EZZ d   1      18.265  33.123  16.735  0.00  0.00     0.068 H 
ATOM     40  H8  EZZ d   1      16.750  32.608  15.919  0.00  0.00     0.068 H 
ENDBRANCH  35  37
BRANCH  35  41
ATOM     41  C23 EZZ d   1      17.805  35.740  16.490  0.00  0.00     0.066 C 
ATOM     42  H14 EZZ d   1      17.805  36.661  15.888  0.00  0.00     0.068 H 
ATOM     43  H15 EZZ d   1      18.837  35.489  16.775  0.00  0.00     0.068 H 
ATOM     44  H16 EZZ d   1      17.202  35.895  17.397  0.00  0.00     0.068 H 
ENDBRANCH  35  41
ENDBRANCH  32  35
ENDBRANCH   4  32
TORSDOF 6
