REMARK  9 active torsions:
REMARK  status: ('A' for Active; 'I' for Inactive)
REMARK    1  A    between atoms: C5_2  and  O1_13 
REMARK    2  A    between atoms: C15_6  and  C11_18 
REMARK    3  A    between atoms: C12_19  and  C14_21 
REMARK    4  A    between atoms: N22_25  and  C12_19 
REMARK    5  A    between atoms: C29_29  and  N22_25 
REMARK    6  A    between atoms: C27_28  and  C29_29 
REMARK    7  A    between atoms: N32_32  and  C33_33 
REMARK    8  A    between atoms: C33_33  and  C34_34 
REMARK    9  A    between atoms: N36_36  and  C39_39 
ROOT
ATOM      1  C12 F0K d   1      16.275  16.631 -20.884  0.00  0.00     0.120 C 
ATOM      2  H11 F0K d   1      16.518  17.631 -20.496  0.00  0.00     0.085 H 
ATOM      3  H12 F0K d   1      15.463  16.711 -21.622  0.00  0.00     0.085 H 
ENDROOT
BRANCH   1   4
ATOM      4  C14 F0K d   1      15.860  15.732 -19.761  0.00  0.00     0.045 A 
ATOM      5  C15 F0K d   1      14.811  14.860 -19.695  0.00  0.00     0.006 A 
ATOM      6  C17 F0K d   1      14.931  14.151 -18.441  0.00  0.00     0.001 A 
ATOM      7  C16 F0K d   1      16.068  14.672 -17.792  0.00  0.00     0.043 A 
ATOM      8  C18 F0K d   1      14.198  13.149 -17.803  0.00  0.00    -0.070 A 
ATOM      9  C21 F0K d   1      16.471  14.221 -16.538  0.00  0.00    -0.056 A 
ATOM     10  N13 F0K d   1      16.609  15.651 -18.610  0.00  0.00    -0.357 N 
ATOM     11  C20 F0K d   1      15.738  13.204 -15.940  0.00  0.00    -0.081 A 
ATOM     12  H4  F0K d   1      17.333  14.652 -16.042  0.00  0.00     0.086 H 
ATOM     13  C19 F0K d   1      14.584  12.709 -16.543  0.00  0.00    -0.082 A 
ATOM     14  H3  F0K d   1      16.068  12.791 -14.993  0.00  0.00     0.083 H 
ATOM     15  H15 F0K d   1      13.981  11.973 -16.024  0.00  0.00     0.083 H 
ATOM     16  H13 F0K d   1      17.436  16.224 -18.392  0.00  0.00     0.166 HD
ATOM     17  H14 F0K d   1      13.331  12.716 -18.289  0.00  0.00     0.084 H 
BRANCH   5  18
ATOM     18  C11 F0K d   1      13.783  14.598 -20.782  0.00  0.00     0.067 A 
ATOM     19  C10 F0K d   1      12.412  14.137 -20.334  0.00  0.00    -0.013 A 
ATOM     20  C6  F0K d   1      11.467  14.748 -19.507  0.00  0.00    -0.042 A 
ATOM     21  C9  F0K d   1      12.171  12.861 -20.817  0.00  0.00     0.040 A 
ATOM     22  C5  F0K d   1      10.297  14.066 -19.182  0.00  0.00     0.066 A 
ATOM     23  H2  F0K d   1      11.643  15.746 -19.121  0.00  0.00     0.088 H 
ATOM     24  C4  F0K d   1      10.067  12.786 -19.674  0.00  0.00    -0.050 A 
ATOM     25  C3  F0K d   1      10.995  12.187 -20.505  0.00  0.00    -0.065 A 
ATOM     26  H1  F0K d   1       9.159  12.258 -19.406  0.00  0.00     0.087 H 
ATOM     27  H8  F0K d   1      10.808  11.199 -20.910  0.00  0.00     0.085 H 
ATOM     28  C8  F0K d   1      13.328  12.445 -21.634  0.00  0.00     0.253 A 
ATOM     29  O2  F0K d   1      13.466  11.389 -22.252  0.00  0.00    -0.268 OA
ATOM     30  N7  F0K d   1      14.200  13.467 -21.607  0.00  0.00    -0.344 N 
ATOM     31  H9  F0K d   1      15.064  13.454 -22.111  0.00  0.00     0.163 HD
ATOM     32  H10 F0K d   1      13.687  15.513 -21.384  0.00  0.00     0.088 H 
BRANCH  22  33
ATOM     33  O1  F0K d   1       9.318  14.651 -18.435  0.00  0.00    -0.361 OA
ATOM     34  H7  F0K d   1       8.602  14.038 -18.317  0.00  0.00     0.217 HD
ENDBRANCH  22  33
ENDBRANCH   5  18
ENDBRANCH   1   4
BRANCH   1  35
ATOM     35  N22 F0K d   1      17.475  16.024 -21.512  0.00  0.00    -0.066 N 
ATOM     36  H16 F0K d   1      17.172  15.294 -22.138  0.00  0.00     0.277 HD
ATOM     37  H17 F0K d   1      18.049  15.627 -20.785  0.00  0.00     0.277 HD
BRANCH  35  38
ATOM     38  C29 F0K d   1      18.291  16.986 -22.277  0.00  0.00     0.106 C 
ATOM     39  H19 F0K d   1      19.215  16.482 -22.597  0.00  0.00     0.083 H 
ATOM     40  H20 F0K d   1      18.543  17.831 -21.619  0.00  0.00     0.083 H 
BRANCH  38  41
ATOM     41  C27 F0K d   1      17.592  17.526 -23.502  0.00  0.00    -0.031 A 
ATOM     42  C26 F0K d   1      17.796  16.958 -24.766  0.00  0.00    -0.074 A 
ATOM     43  C25 F0K d   1      17.142  17.451 -25.889  0.00  0.00    -0.070 A 
ATOM     44  H5  F0K d   1      18.475  16.120 -24.870  0.00  0.00     0.084 H 
ATOM     45  C24 F0K d   1      16.245  18.522 -25.775  0.00  0.00    -0.008 A 
ATOM     46  H18 F0K d   1      17.327  17.004 -26.859  0.00  0.00     0.084 H 
ATOM     47  C23 F0K d   1      16.052  19.089 -24.503  0.00  0.00     0.045 A 
ATOM     48  C30 F0K d   1      15.398  19.242 -26.682  0.00  0.00    -0.056 A 
ATOM     49  C28 F0K d   1      16.731  18.616 -23.388  0.00  0.00    -0.049 A 
ATOM     50  N32 F0K d   1      15.130  20.116 -24.637  0.00  0.00    -0.350 N 
ATOM     51  H6  F0K d   1      16.591  19.096 -22.426  0.00  0.00     0.087 H 
ATOM     52  C31 F0K d   1      14.764  20.195 -25.962  0.00  0.00    -0.019 A 
ATOM     53  H22 F0K d   1      14.064  20.921 -26.372  0.00  0.00     0.111 H 
ATOM     54  H21 F0K d   1      15.287  19.056 -27.749  0.00  0.00     0.086 H 
BRANCH  50  55
ATOM     55  C33 F0K d   1      14.568  20.911 -23.548  0.00  0.00     0.041 C 
ATOM     56  H23 F0K d   1      13.986  21.746 -23.966  0.00  0.00     0.074 H 
ATOM     57  H24 F0K d   1      15.383  21.308 -22.925  0.00  0.00     0.074 H 
BRANCH  55  58
ATOM     58  C34 F0K d   1      13.673  20.048 -22.710  0.00  0.00     0.069 A 
ATOM     59  C35 F0K d   1      12.500  19.434 -23.028  0.00  0.00     0.005 A 
ATOM     60  N36 F0K d   1      12.109  18.739 -21.922  0.00  0.00    -0.354 N 
ATOM     61  H25 F0K d   1      11.976  19.488 -23.981  0.00  0.00     0.114 H 
ATOM     62  C37 F0K d   1      13.043  18.914 -20.974  0.00  0.00     0.066 A 
ATOM     63  N38 F0K d   1      14.005  19.701 -21.414  0.00  0.00    -0.245 NA
ATOM     64  H26 F0K d   1      13.011  18.468 -19.981  0.00  0.00     0.143 H 
BRANCH  60  65
ATOM     65  C39 F0K d   1      10.877  17.955 -21.800  0.00  0.00    -0.014 C 
ATOM     66  H27 F0K d   1      10.317  18.002 -22.746  0.00  0.00     0.057 H 
ATOM     67  H28 F0K d   1      10.260  18.366 -20.988  0.00  0.00     0.057 H 
ATOM     68  H29 F0K d   1      11.129  16.908 -21.575  0.00  0.00     0.057 H 
ENDBRANCH  60  65
ENDBRANCH  55  58
ENDBRANCH  50  55
ENDBRANCH  38  41
ENDBRANCH  35  38
ENDBRANCH   1  35
TORSDOF 9
