REMARK  11 active torsions:
REMARK  status: ('A' for Active; 'I' for Inactive)
REMARK    1  A    between atoms: C2_2  and  O_3 
REMARK    2  A    between atoms: C2_2  and  C3_6 
REMARK    3  A    between atoms: O_3  and  C1_4 
REMARK    4  A    between atoms: C1_4  and  C_5 
REMARK    5  A    between atoms: C3_6  and  N_7 
REMARK       I    between atoms: N_7  and  C4_8 
REMARK       I    between atoms: C4_8  and  N1_10 
REMARK    6  A    between atoms: N1_10  and  C12_11 
REMARK    7  A    between atoms: N1_10  and  C5_18 
REMARK    8  A    between atoms: C12_11  and  C13_12 
REMARK    9  A    between atoms: N3_14  and  C15_15 
REMARK   10  A    between atoms: C5_18  and  C6_19 
REMARK   11  A    between atoms: C9_22  and  N2_23 
ROOT
ATOM      1  N   F1E d   1      -1.123  17.721  -4.270  0.00  0.00    -0.334 N 
ATOM      2  C4  F1E d   1      -0.932  18.187  -5.480  0.00  0.00     0.319 C 
ATOM      3  O2  F1E d   1      -0.292  17.577  -6.291  0.00  0.00    -0.247 OA
ATOM      4  N1  F1E d   1      -1.488  19.370  -5.732  0.00  0.00    -0.324 N 
ATOM      5  H8  F1E d   1      -1.670  18.252  -3.622  0.00  0.00     0.164 HD
ENDROOT
BRANCH   4   6
ATOM      6  C12 F1E d   1      -2.054  20.214  -4.698  0.00  0.00     0.042 C 
ATOM      7  H9  F1E d   1      -2.383  19.604  -3.844  0.00  0.00     0.074 H 
ATOM      8  H10 F1E d   1      -2.909  20.782  -5.094  0.00  0.00     0.074 H 
BRANCH   6   9
ATOM      9  C13 F1E d   1      -0.960  21.146  -4.280  0.00  0.00     0.087 A 
ATOM     10  C14 F1E d   1       0.424  21.090  -4.490  0.00  0.00     0.021 A 
ATOM     11  N3  F1E d   1       0.929  22.172  -3.941  0.00  0.00    -0.287 N 
ATOM     12  H11 F1E d   1       0.973  20.304  -5.007  0.00  0.00     0.116 H 
ATOM     13  N4  F1E d   1      -0.010  22.989  -3.357  0.00  0.00     0.004 NA
ATOM     14  N5  F1E d   1      -1.191  22.298  -3.600  0.00  0.00    -0.161 NA
BRANCH  11  15
ATOM     15  C15 F1E d   1       2.319  22.577  -3.876  0.00  0.00    -0.001 C 
ATOM     16  H12 F1E d   1       2.397  23.537  -3.345  0.00  0.00     0.058 H 
ATOM     17  H13 F1E d   1       2.717  22.688  -4.896  0.00  0.00     0.058 H 
ATOM     18  H14 F1E d   1       2.899  21.813  -3.338  0.00  0.00     0.058 H 
ENDBRANCH  11  15
ENDBRANCH   6   9
ENDBRANCH   4   6
BRANCH   4  19
ATOM     19  C5  F1E d   1      -1.612  19.942  -7.015  0.00  0.00     0.023 C 
ATOM     20  H15 F1E d   1      -1.019  19.346  -7.724  0.00  0.00     0.071 H 
ATOM     21  H16 F1E d   1      -1.220  20.969  -6.981  0.00  0.00     0.071 H 
BRANCH  19  22
ATOM     22  C6  F1E d   1      -3.019  19.986  -7.491  0.00  0.00    -0.040 A 
ATOM     23  C7  F1E d   1      -3.590  21.180  -7.869  0.00  0.00    -0.073 A 
ATOM     24  C8  F1E d   1      -4.885  21.207  -8.328  0.00  0.00    -0.057 A 
ATOM     25  H17 F1E d   1      -3.018  22.099  -7.805  0.00  0.00     0.084 H 
ATOM     26  C9  F1E d   1      -5.600  20.027  -8.406  0.00  0.00     0.025 A 
ATOM     27  H18 F1E d   1      -5.341  22.144  -8.626  0.00  0.00     0.086 H 
ATOM     28  C10 F1E d   1      -5.021  18.846  -8.029  0.00  0.00    -0.057 A 
ATOM     29  C11 F1E d   1      -3.726  18.807  -7.567  0.00  0.00    -0.073 A 
ATOM     30  H21 F1E d   1      -5.592  17.927  -8.095  0.00  0.00     0.086 H 
ATOM     31  H22 F1E d   1      -3.272  17.869  -7.269  0.00  0.00     0.084 H 
BRANCH  26  32
ATOM     32  N2  F1E d   1      -6.860  20.047  -8.860  0.00  0.00    -0.399 N 
ATOM     33  H19 F1E d   1      -7.399  19.172  -8.921  0.00  0.00     0.156 HD
ATOM     34  H20 F1E d   1      -7.290  20.938  -9.148  0.00  0.00     0.156 HD
ENDBRANCH  26  32
ENDBRANCH  19  22
ENDBRANCH   4  19
BRANCH   1  35
ATOM     35  C3  F1E d   1      -0.564  16.464  -3.853  0.00  0.00     0.077 C 
ATOM     36  H6  F1E d   1       0.498  16.441  -4.138  0.00  0.00     0.079 H 
ATOM     37  H7  F1E d   1      -0.652  16.386  -2.759  0.00  0.00     0.079 H 
BRANCH  35  38
ATOM     38  C2  F1E d   1      -1.253  15.284  -4.475  0.00  0.00     0.276 C 
ATOM     39  O1  F1E d   1      -2.313  15.292  -5.009  0.00  0.00    -0.263 OA
BRANCH  38  40
ATOM     40  O   F1E d   1      -0.520  14.189  -4.340  0.00  0.00    -0.321 OA
BRANCH  40  41
ATOM     41  C1  F1E d   1      -0.986  12.946  -4.803  0.00  0.00     0.025 C 
ATOM     42  H1  F1E d   1      -1.189  12.997  -5.883  0.00  0.00     0.074 H 
ATOM     43  H2  F1E d   1      -1.907  12.666  -4.270  0.00  0.00     0.074 H 
BRANCH  41  44
ATOM     44  C   F1E d   1       0.094  11.941  -4.529  0.00  0.00    -0.056 C 
ATOM     45  H3  F1E d   1      -0.231  10.950  -4.878  0.00  0.00     0.030 H 
ATOM     46  H4  F1E d   1       0.293  11.902  -3.448  0.00  0.00     0.030 H 
ATOM     47  H5  F1E d   1       1.011  12.234  -5.061  0.00  0.00     0.030 H 
ENDBRANCH  41  44
ENDBRANCH  40  41
ENDBRANCH  38  40
ENDBRANCH  35  38
ENDBRANCH   1  35
TORSDOF 11
