REMARK  10 active torsions:
REMARK  status: ('A' for Active; 'I' for Inactive)
REMARK       I    between atoms: C10_2  and  N2_3 
REMARK       I    between atoms: C10_2  and  N_10 
REMARK    1  A    between atoms: N2_3  and  C11_4 
REMARK    2  A    between atoms: C11_4  and  C12_5 
REMARK    3  A    between atoms: C12_5  and  O2_6 
REMARK    4  A    between atoms: O2_6  and  C13_7 
REMARK    5  A    between atoms: C13_7  and  C14_8 
REMARK    6  A    between atoms: N_10  and  C2_11 
REMARK    7  A    between atoms: N_10  and  C3_13 
REMARK    8  A    between atoms: C2_11  and  C1_12 
REMARK    9  A    between atoms: C3_13  and  C4_14 
REMARK   10  A    between atoms: C7_17  and  N1_18 
ROOT
ATOM      1  O   L36 d   1      -0.589  17.541  -6.546  0.00  0.00    -0.247 OA
ATOM      2  C10 L36 d   1      -1.152  18.181  -5.659  0.00  0.00     0.319 C 
ATOM      3  N2  L36 d   1      -1.266  17.691  -4.428  0.00  0.00    -0.334 N 
ATOM      4  N   L36 d   1      -1.666  19.383  -5.903  0.00  0.00    -0.330 N 
ATOM      5  H1  L36 d   1      -1.777  18.208  -3.741  0.00  0.00     0.164 HD
ENDROOT
BRANCH   4   6
ATOM      6  C2  L36 d   1      -2.108  20.264  -4.833  0.00  0.00    -0.004 C 
ATOM      7  H9  L36 d   1      -2.588  19.668  -4.043  0.00  0.00     0.063 H 
ATOM      8  H10 L36 d   1      -2.829  20.992  -5.232  0.00  0.00     0.063 H 
BRANCH   6   9
ATOM      9  C1  L36 d   1      -0.917  20.998  -4.257  0.00  0.00    -0.061 C 
ATOM     10  H11 L36 d   1      -1.253  21.664  -3.448  0.00  0.00     0.029 H 
ATOM     11  H12 L36 d   1      -0.437  21.594  -5.047  0.00  0.00     0.029 H 
ATOM     12  H13 L36 d   1      -0.196  20.270  -3.857  0.00  0.00     0.029 H 
ENDBRANCH   6   9
ENDBRANCH   4   6
BRANCH   4  13
ATOM     13  C3  L36 d   1      -1.819  19.898  -7.255  0.00  0.00     0.023 C 
ATOM     14  H14 L36 d   1      -1.266  19.242  -7.944  0.00  0.00     0.071 H 
ATOM     15  H15 L36 d   1      -1.394  20.912  -7.294  0.00  0.00     0.071 H 
BRANCH  13  16
ATOM     16  C4  L36 d   1      -3.260  19.963  -7.705  0.00  0.00    -0.040 A 
ATOM     17  C5  L36 d   1      -4.058  18.826  -7.648  0.00  0.00    -0.073 A 
ATOM     18  C6  L36 d   1      -5.384  18.886  -8.063  0.00  0.00    -0.057 A 
ATOM     19  H16 L36 d   1      -3.647  17.893  -7.280  0.00  0.00     0.084 H 
ATOM     20  C7  L36 d   1      -5.911  20.082  -8.534  0.00  0.00     0.025 A 
ATOM     21  H17 L36 d   1      -6.006  18.000  -8.019  0.00  0.00     0.086 H 
ATOM     22  C8  L36 d   1      -5.113  21.219  -8.591  0.00  0.00    -0.057 A 
ATOM     23  C9  L36 d   1      -3.788  21.159  -8.177  0.00  0.00    -0.073 A 
ATOM     24  H20 L36 d   1      -5.524  22.152  -8.958  0.00  0.00     0.086 H 
ATOM     25  H21 L36 d   1      -3.166  22.045  -8.222  0.00  0.00     0.084 H 
BRANCH  20  26
ATOM     26  N1  L36 d   1      -7.203  20.140  -8.938  0.00  0.00    -0.399 N 
ATOM     27  H18 L36 d   1      -7.594  21.027  -9.287  0.00  0.00     0.156 HD
ATOM     28  H19 L36 d   1      -7.794  19.297  -8.896  0.00  0.00     0.156 HD
ENDBRANCH  20  26
ENDBRANCH  13  16
ENDBRANCH   4  13
BRANCH   3  29
ATOM     29  C11 L36 d   1      -0.666  16.424  -4.059  0.00  0.00     0.077 C 
ATOM     30  H2  L36 d   1      -0.720  16.308  -2.966  0.00  0.00     0.079 H 
ATOM     31  H3  L36 d   1       0.387  16.422  -4.377  0.00  0.00     0.079 H 
BRANCH  29  32
ATOM     32  C12 L36 d   1      -1.377  15.262  -4.710  0.00  0.00     0.276 C 
ATOM     33  O1  L36 d   1      -2.534  15.274  -5.096  0.00  0.00    -0.263 OA
BRANCH  32  34
ATOM     34  O2  L36 d   1      -0.577  14.204  -4.816  0.00  0.00    -0.321 OA
BRANCH  34  35
ATOM     35  C13 L36 d   1      -1.133  12.891  -4.851  0.00  0.00     0.025 C 
ATOM     36  H4  L36 d   1      -1.681  12.750  -5.794  0.00  0.00     0.074 H 
ATOM     37  H5  L36 d   1      -1.822  12.762  -4.004  0.00  0.00     0.074 H 
BRANCH  35  38
ATOM     38  C14 L36 d   1      -0.020  11.870  -4.756  0.00  0.00    -0.056 C 
ATOM     39  H6  L36 d   1      -0.448  10.857  -4.783  0.00  0.00     0.030 H 
ATOM     40  H7  L36 d   1       0.528  12.011  -3.813  0.00  0.00     0.030 H 
ATOM     41  H8  L36 d   1       0.669  11.999  -5.603  0.00  0.00     0.030 H 
ENDBRANCH  35  38
ENDBRANCH  34  35
ENDBRANCH  32  34
ENDBRANCH  29  32
ENDBRANCH   3  29
TORSDOF 10
