REMARK  11 active torsions:
REMARK  status: ('A' for Active; 'I' for Inactive)
REMARK       I    between atoms: C10_2  and  N2_3 
REMARK       I    between atoms: C10_2  and  N_10 
REMARK    1  A    between atoms: N2_3  and  C11_4 
REMARK    2  A    between atoms: C11_4  and  C12_5 
REMARK    3  A    between atoms: C12_5  and  O2_6 
REMARK    4  A    between atoms: O2_6  and  C13_7 
REMARK    5  A    between atoms: C13_7  and  C14_8 
REMARK    6  A    between atoms: N_10  and  C2_11 
REMARK    7  A    between atoms: N_10  and  C3_14 
REMARK    8  A    between atoms: C2_11  and  C1_12 
REMARK    9  A    between atoms: C1_12  and  C_13 
REMARK   10  A    between atoms: C3_14  and  C4_15 
REMARK   11  A    between atoms: C7_18  and  N1_19 
ROOT
ATOM      1  O   L36 d   1      -0.226  17.638  -6.338  0.00  0.00    -0.247 OA
ATOM      2  C10 L36 d   1      -0.820  18.236  -5.452  0.00  0.00     0.319 C 
ATOM      3  N2  L36 d   1      -0.926  17.784  -4.274  0.00  0.00    -0.334 N 
ATOM      4  N   L36 d   1      -1.389  19.411  -5.706  0.00  0.00    -0.330 N 
ATOM      5  H1  L36 d   1      -1.424  18.315  -3.588  0.00  0.00     0.164 HD
ENDROOT
BRANCH   4   6
ATOM      6  C2  L36 d   1      -1.908  20.270  -4.653  0.00  0.00    -0.001 C 
ATOM      7  H9  L36 d   1      -2.317  19.667  -3.829  0.00  0.00     0.064 H 
ATOM      8  H10 L36 d   1      -2.692  20.933  -5.046  0.00  0.00     0.064 H 
BRANCH   6   9
ATOM      9  C1  L36 d   1      -0.708  21.082  -4.179  0.00  0.00    -0.053 C 
ATOM     10  H11 L36 d   1      -0.192  21.505  -5.053  0.00  0.00     0.034 H 
ATOM     11  H12 L36 d   1      -0.020  20.421  -3.631  0.00  0.00     0.034 H 
BRANCH   9  12
ATOM     12  C   L36 d   1      -1.141  22.209  -3.268  0.00  0.00    -0.075 C 
ATOM     13  H13 L36 d   1      -0.257  22.777  -2.942  0.00  0.00     0.027 H 
ATOM     14  H14 L36 d   1      -1.655  21.793  -2.389  0.00  0.00     0.027 H 
ATOM     15  H15 L36 d   1      -1.826  22.877  -3.811  0.00  0.00     0.027 H 
ENDBRANCH   9  12
ENDBRANCH   6   9
ENDBRANCH   4   6
BRANCH   4  16
ATOM     16  C3  L36 d   1      -1.536  19.927  -7.059  0.00  0.00     0.023 C 
ATOM     17  H16 L36 d   1      -0.925  19.312  -7.736  0.00  0.00     0.071 H 
ATOM     18  H17 L36 d   1      -1.174  20.965  -7.079  0.00  0.00     0.071 H 
BRANCH  16  19
ATOM     19  C4  L36 d   1      -2.965  19.907  -7.550  0.00  0.00    -0.040 A 
ATOM     20  C5  L36 d   1      -3.574  21.086  -7.965  0.00  0.00    -0.073 A 
ATOM     21  C6  L36 d   1      -4.888  21.068  -8.417  0.00  0.00    -0.057 A 
ATOM     22  H18 L36 d   1      -3.024  22.020  -7.936  0.00  0.00     0.084 H 
ATOM     23  C7  L36 d   1      -5.594  19.871  -8.454  0.00  0.00     0.025 A 
ATOM     24  H19 L36 d   1      -5.362  21.987  -8.741  0.00  0.00     0.086 H 
ATOM     25  C8  L36 d   1      -4.985  18.692  -8.039  0.00  0.00    -0.057 A 
ATOM     26  C9  L36 d   1      -3.671  18.710  -7.587  0.00  0.00    -0.073 A 
ATOM     27  H22 L36 d   1      -5.535  17.759  -8.068  0.00  0.00     0.086 H 
ATOM     28  H23 L36 d   1      -3.196  17.791  -7.263  0.00  0.00     0.084 H 
BRANCH  23  29
ATOM     29  N1  L36 d   1      -6.875  19.853  -8.895  0.00  0.00    -0.399 N 
ATOM     30  H20 L36 d   1      -7.398  18.966  -8.922  0.00  0.00     0.156 HD
ATOM     31  H21 L36 d   1      -7.326  20.726  -9.203  0.00  0.00     0.156 HD
ENDBRANCH  23  29
ENDBRANCH  16  19
ENDBRANCH   4  16
BRANCH   3  32
ATOM     32  C11 L36 d   1      -0.337  16.504  -3.897  0.00  0.00     0.077 C 
ATOM     33  H2  L36 d   1      -0.395  16.381  -2.805  0.00  0.00     0.079 H 
ATOM     34  H3  L36 d   1       0.716  16.478  -4.213  0.00  0.00     0.079 H 
BRANCH  32  35
ATOM     35  C12 L36 d   1      -1.093  15.383  -4.571  0.00  0.00     0.276 C 
ATOM     36  O1  L36 d   1      -2.229  15.467  -5.009  0.00  0.00    -0.263 OA
BRANCH  35  37
ATOM     37  O2  L36 d   1      -0.361  14.274  -4.630  0.00  0.00    -0.321 OA
BRANCH  37  38
ATOM     38  C13 L36 d   1      -0.976  13.031  -4.964  0.00  0.00     0.025 C 
ATOM     39  H4  L36 d   1      -1.308  13.056  -6.013  0.00  0.00     0.074 H 
ATOM     40  H5  L36 d   1      -1.844  12.863  -4.309  0.00  0.00     0.074 H 
BRANCH  38  41
ATOM     41  C14 L36 d   1       0.021  11.909  -4.777  0.00  0.00    -0.056 C 
ATOM     42  H6  L36 d   1      -0.453  10.950  -5.035  0.00  0.00     0.030 H 
ATOM     43  H7  L36 d   1       0.352  11.884  -3.728  0.00  0.00     0.030 H 
ATOM     44  H8  L36 d   1       0.889  12.076  -5.432  0.00  0.00     0.030 H 
ENDBRANCH  38  41
ENDBRANCH  37  38
ENDBRANCH  35  37
ENDBRANCH  32  35
ENDBRANCH   3  32
TORSDOF 11
