REMARK  9 active torsions:
REMARK  status: ('A' for Active; 'I' for Inactive)
REMARK       I    between atoms: C11_2  and  N1_3 
REMARK       I    between atoms: C11_2  and  N3_19 
REMARK    1  A    between atoms: N1_3  and  C4_4 
REMARK    2  A    between atoms: N1_3  and  C3_12 
REMARK    3  A    between atoms: C4_4  and  C5_5 
REMARK    4  A    between atoms: C8_8  and  N2_9 
REMARK    5  A    between atoms: C3_12  and  C2_13 
REMARK    6  A    between atoms: N_16  and  C_17 
REMARK    7  A    between atoms: N3_19  and  C12_20 
REMARK    8  A    between atoms: C12_20  and  C13_21 
REMARK       I    between atoms: C13_21  and  N4_23 
REMARK    9  A    between atoms: C17_27  and  C18_28 
ROOT
ATOM      1  O   F0Q d   1       0.856  17.291  -6.006  0.00  0.00    -0.247 OA
ATOM      2  C11 F0Q d   1       0.018  18.012  -5.556  0.00  0.00     0.319 C 
ATOM      3  N1  F0Q d   1      -0.327  19.065  -6.252  0.00  0.00    -0.323 N 
ATOM      4  N3  F0Q d   1      -0.504  17.773  -4.445  0.00  0.00    -0.334 N 
ATOM      5  H14 F0Q d   1      -1.172  18.425  -4.086  0.00  0.00     0.164 HD
ENDROOT
BRANCH   3   6
ATOM      6  C4  F0Q d   1      -1.238  20.066  -5.813  0.00  0.00     0.023 C 
ATOM      7  H1  F0Q d   1      -0.693  21.021  -5.792  0.00  0.00     0.071 H 
ATOM      8  H2  F0Q d   1      -1.553  19.801  -4.793  0.00  0.00     0.071 H 
BRANCH   6   9
ATOM      9  C5  F0Q d   1      -2.498  20.278  -6.638  0.00  0.00    -0.040 A 
ATOM     10  C6  F0Q d   1      -3.287  19.203  -6.964  0.00  0.00    -0.073 A 
ATOM     11  C7  F0Q d   1      -4.446  19.380  -7.666  0.00  0.00    -0.057 A 
ATOM     12  H3  F0Q d   1      -2.988  18.206  -6.662  0.00  0.00     0.084 H 
ATOM     13  C8  F0Q d   1      -4.869  20.622  -8.036  0.00  0.00     0.025 A 
ATOM     14  H4  F0Q d   1      -5.041  18.515  -7.934  0.00  0.00     0.086 H 
ATOM     15  C9  F0Q d   1      -4.095  21.719  -7.735  0.00  0.00    -0.057 A 
ATOM     16  C10 F0Q d   1      -2.931  21.534  -7.015  0.00  0.00    -0.073 A 
ATOM     17  H7  F0Q d   1      -4.393  22.710  -8.057  0.00  0.00     0.086 H 
ATOM     18  H8  F0Q d   1      -2.340  22.400  -6.738  0.00  0.00     0.084 H 
BRANCH  13  19
ATOM     19  N2  F0Q d   1      -6.011  20.754  -8.707  0.00  0.00    -0.399 N 
ATOM     20  H5  F0Q d   1      -6.337  21.689  -8.990  0.00  0.00     0.156 HD
ATOM     21  H6  F0Q d   1      -6.569  19.921  -8.943  0.00  0.00     0.156 HD
ENDBRANCH  13  19
ENDBRANCH   6   9
ENDBRANCH   3   6
BRANCH   3  22
ATOM     22  C3  F0Q d   1       0.178  19.345  -7.589  0.00  0.00     0.059 C 
ATOM     23  H9  F0Q d   1      -0.239  20.302  -7.936  0.00  0.00     0.076 H 
ATOM     24  H10 F0Q d   1      -0.138  18.539  -8.267  0.00  0.00     0.076 H 
BRANCH  22  25
ATOM     25  C2  F0Q d   1       1.690  19.434  -7.600  0.00  0.00     0.183 A 
ATOM     26  N5  F0Q d   1       2.476  18.788  -8.469  0.00  0.00    -0.140 NA
ATOM     27  N6  F0Q d   1       3.815  19.069  -8.259  0.00  0.00     0.024 NA
ATOM     28  N   F0Q d   1       3.761  19.934  -7.210  0.00  0.00    -0.196 N 
ATOM     29  N7  F0Q d   1       2.465  20.159  -6.771  0.00  0.00    -0.140 NA
BRANCH  28  30
ATOM     30  C   F0Q d   1       4.964  20.528  -6.596  0.00  0.00     0.017 C 
ATOM     31  H11 F0Q d   1       5.859  20.186  -7.137  0.00  0.00     0.061 H 
ATOM     32  H12 F0Q d   1       5.030  20.216  -5.543  0.00  0.00     0.061 H 
ATOM     33  H13 F0Q d   1       4.900  21.625  -6.650  0.00  0.00     0.061 H 
ENDBRANCH  28  30
ENDBRANCH  22  25
ENDBRANCH   3  22
BRANCH   4  34
ATOM     34  C12 F0Q d   1      -0.190  16.590  -3.642  0.00  0.00     0.070 C 
ATOM     35  H15 F0Q d   1      -0.622  16.688  -2.635  0.00  0.00     0.078 H 
ATOM     36  H16 F0Q d   1       0.900  16.463  -3.562  0.00  0.00     0.078 H 
BRANCH  34  37
ATOM     37  C13 F0Q d   1      -0.804  15.406  -4.362  0.00  0.00     0.238 C 
ATOM     38  O1  F0Q d   1      -1.910  15.523  -4.803  0.00  0.00    -0.272 OA
ATOM     39  N4  F0Q d   1      -0.138  14.233  -4.490  0.00  0.00    -0.342 N 
ATOM     40  C14 F0Q d   1      -0.801  13.037  -4.968  0.00  0.00    -0.002 C 
ATOM     41  C17 F0Q d   1       1.295  13.965  -4.265  0.00  0.00     0.041 C 
ATOM     42  C15 F0Q d   1       0.277  11.972  -5.020  0.00  0.00    -0.048 C 
ATOM     43  H17 F0Q d   1      -1.224  13.206  -5.969  0.00  0.00     0.064 H 
ATOM     44  H18 F0Q d   1      -1.603  12.739  -4.277  0.00  0.00     0.064 H 
ATOM     45  C16 F0Q d   1       1.591  12.704  -5.028  0.00  0.00    -0.041 C 
ATOM     46  H19 F0Q d   1       0.172  11.367  -5.933  0.00  0.00     0.035 H 
ATOM     47  H20 F0Q d   1       0.210  11.319  -4.138  0.00  0.00     0.035 H 
ATOM     48  H21 F0Q d   1       1.908  12.932  -6.056  0.00  0.00     0.036 H 
ATOM     49  H22 F0Q d   1       2.372  12.115  -4.526  0.00  0.00     0.036 H 
ATOM     50  H23 F0Q d   1       1.900  14.802  -4.643  0.00  0.00     0.080 H 
BRANCH  41  51
ATOM     51  C18 F0Q d   1       1.605  13.738  -2.838  0.00  0.00    -0.018 A 
ATOM     52  C23 F0Q d   1       2.897  13.764  -2.399  0.00  0.00     0.019 A 
ATOM     53 BR   F0Q d   1       4.324  14.040  -3.574  0.00  0.00    -0.050 Br
ATOM     54  C22 F0Q d   1       3.212  13.606  -1.080  0.00  0.00    -0.066 A 
ATOM     55  C21 F0Q d   1       2.229  13.351  -0.177  0.00  0.00    -0.082 A 
ATOM     56  H27 F0Q d   1       4.243  13.684  -0.754  0.00  0.00     0.085 H 
ATOM     57  C20 F0Q d   1       0.921  13.304  -0.602  0.00  0.00    -0.082 A 
ATOM     58  H26 F0Q d   1       2.473  13.187   0.866  0.00  0.00     0.083 H 
ATOM     59  C19 F0Q d   1       0.607  13.479  -1.934  0.00  0.00    -0.073 A 
ATOM     60  H25 F0Q d   1       0.129  13.128   0.117  0.00  0.00     0.083 H 
ATOM     61  H24 F0Q d   1      -0.423  13.412  -2.264  0.00  0.00     0.084 H 
ENDBRANCH  41  51
ENDBRANCH  34  37
ENDBRANCH   4  34
TORSDOF 9
