REMARK  11 active torsions:
REMARK  status: ('A' for Active; 'I' for Inactive)
REMARK       I    between atoms: C4_2  and  N_3 
REMARK       I    between atoms: C4_2  and  N1_10 
REMARK    1  A    between atoms: N_3  and  C3_4 
REMARK    2  A    between atoms: C3_4  and  C2_5 
REMARK    3  A    between atoms: C2_5  and  O_7 
REMARK    4  A    between atoms: O_7  and  C1_8 
REMARK    5  A    between atoms: C1_8  and  C_9 
REMARK    6  A    between atoms: N1_10  and  C12_11 
REMARK    7  A    between atoms: N1_10  and  C5_18 
REMARK    8  A    between atoms: C12_11  and  C13_12 
REMARK    9  A    between atoms: N5_14  and  C14_15 
REMARK   10  A    between atoms: C5_18  and  C6_19 
REMARK   11  A    between atoms: C9_22  and  N2_23 
ROOT
ATOM      1  O2  F0W d   1       0.040  16.645  -6.002  0.00  0.00    -0.247 OA
ATOM      2  C4  F0W d   1      -0.620  17.572  -5.575  0.00  0.00     0.319 C 
ATOM      3  N   F0W d   1      -1.065  17.540  -4.332  0.00  0.00    -0.334 N 
ATOM      4  N1  F0W d   1      -0.887  18.613  -6.353  0.00  0.00    -0.323 N 
ATOM      5  H1  F0W d   1      -1.434  18.373  -3.919  0.00  0.00     0.164 HD
ENDROOT
BRANCH   4   6
ATOM      6  C12 F0W d   1      -0.352  18.692  -7.696  0.00  0.00     0.059 C 
ATOM      7  H9  F0W d   1      -0.734  19.599  -8.187  0.00  0.00     0.076 H 
ATOM      8  H10 F0W d   1      -0.668  17.806  -8.266  0.00  0.00     0.076 H 
BRANCH   6   9
ATOM      9  C13 F0W d   1       1.156  18.746  -7.652  0.00  0.00     0.183 A 
ATOM     10  N6  F0W d   1       1.860  19.426  -6.733  0.00  0.00    -0.140 NA
ATOM     11  N5  F0W d   1       3.174  19.205  -7.100  0.00  0.00    -0.196 N 
ATOM     12  N4  F0W d   1       3.325  18.407  -8.211  0.00  0.00     0.024 NA
ATOM     13  N3  F0W d   1       1.997  18.136  -8.532  0.00  0.00    -0.140 NA
BRANCH  11  14
ATOM     14  C14 F0W d   1       4.309  19.771  -6.351  0.00  0.00     0.017 C 
ATOM     15  H11 F0W d   1       3.931  20.370  -5.509  0.00  0.00     0.061 H 
ATOM     16  H12 F0W d   1       4.905  20.411  -7.018  0.00  0.00     0.061 H 
ATOM     17  H13 F0W d   1       4.938  18.955  -5.967  0.00  0.00     0.061 H 
ENDBRANCH  11  14
ENDBRANCH   6   9
ENDBRANCH   4   6
BRANCH   4  18
ATOM     18  C5  F0W d   1      -1.696  19.764  -6.002  0.00  0.00     0.023 C 
ATOM     19  H14 F0W d   1      -1.143  20.682  -6.248  0.00  0.00     0.071 H 
ATOM     20  H15 F0W d   1      -1.907  19.741  -4.923  0.00  0.00     0.071 H 
BRANCH  18  21
ATOM     21  C6  F0W d   1      -3.000  19.754  -6.761  0.00  0.00    -0.040 A 
ATOM     22  C11 F0W d   1      -3.501  18.547  -7.148  0.00  0.00    -0.073 A 
ATOM     23  C10 F0W d   1      -4.695  18.489  -7.817  0.00  0.00    -0.057 A 
ATOM     24  H16 F0W d   1      -2.957  17.636  -6.927  0.00  0.00     0.084 H 
ATOM     25  C9  F0W d   1      -5.410  19.611  -8.124  0.00  0.00     0.025 A 
ATOM     26  H17 F0W d   1      -5.085  17.521  -8.112  0.00  0.00     0.086 H 
ATOM     27  C8  F0W d   1      -4.921  20.843  -7.745  0.00  0.00    -0.057 A 
ATOM     28  C7  F0W d   1      -3.713  20.902  -7.063  0.00  0.00    -0.073 A 
ATOM     29  H20 F0W d   1      -5.470  21.749  -7.975  0.00  0.00     0.086 H 
ATOM     30  H21 F0W d   1      -3.320  21.866  -6.761  0.00  0.00     0.084 H 
BRANCH  25  31
ATOM     31  N2  F0W d   1      -6.574  19.468  -8.774  0.00  0.00    -0.399 N 
ATOM     32  H18 F0W d   1      -7.133  20.298  -9.018  0.00  0.00     0.156 HD
ATOM     33  H19 F0W d   1      -6.909  18.528  -9.030  0.00  0.00     0.156 HD
ENDBRANCH  25  31
ENDBRANCH  18  21
ENDBRANCH   4  18
BRANCH   3  34
ATOM     34  C3  F0W d   1      -1.026  16.311  -3.555  0.00  0.00     0.077 C 
ATOM     35  H2  F0W d   1      -1.698  16.426  -2.692  0.00  0.00     0.079 H 
ATOM     36  H3  F0W d   1       0.004  16.158  -3.200  0.00  0.00     0.079 H 
BRANCH  34  37
ATOM     37  C2  F0W d   1      -1.451  15.081  -4.329  0.00  0.00     0.276 C 
ATOM     38  O1  F0W d   1      -2.481  15.044  -4.947  0.00  0.00    -0.263 OA
BRANCH  37  39
ATOM     39  O   F0W d   1      -0.601  13.917  -4.306  0.00  0.00    -0.321 OA
BRANCH  39  40
ATOM     40  C1  F0W d   1      -1.003  12.704  -4.886  0.00  0.00     0.025 C 
ATOM     41  H4  F0W d   1      -0.933  12.769  -5.982  0.00  0.00     0.074 H 
ATOM     42  H5  F0W d   1      -2.039  12.473  -4.597  0.00  0.00     0.074 H 
BRANCH  40  43
ATOM     43  C   F0W d   1      -0.074  11.636  -4.372  0.00  0.00    -0.056 C 
ATOM     44  H6  F0W d   1      -0.356  10.665  -4.805  0.00  0.00     0.030 H 
ATOM     45  H7  F0W d   1      -0.146  11.584  -3.276  0.00  0.00     0.030 H 
ATOM     46  H8  F0W d   1       0.959  11.879  -4.660  0.00  0.00     0.030 H 
ENDBRANCH  40  43
ENDBRANCH  39  40
ENDBRANCH  37  39
ENDBRANCH  34  37
ENDBRANCH   3  34
TORSDOF 11
