REMARK  10 active torsions:
REMARK  status: ('A' for Active; 'I' for Inactive)
REMARK    1  A    between atoms: SCE_2  and  CBW_5 
REMARK    2  A    between atoms: CBU_11  and  SCC_12 
REMARK    3  A    between atoms: CBS_18  and  NBJ_19 
REMARK       I    between atoms: NBJ_19  and  CBM_20 
REMARK    4  A    between atoms: CBM_20  and  CBQ_22 
REMARK    5  A    between atoms: CBO_27  and  NBH_28 
REMARK       I    between atoms: NBH_28  and  CBL_29 
REMARK       I    between atoms: CBL_29  and  NBI_31 
REMARK    6  A    between atoms: NBI_31  and  CBP_32 
REMARK    7  A    between atoms: CBR_37  and  CBN_38 
REMARK       I    between atoms: CBN_38  and  NBK_40 
REMARK    8  A    between atoms: NBK_40  and  CBT_41 
REMARK    9  A    between atoms: CBX_43  and  SCF_44 
REMARK   10  A    between atoms: CBV_52  and  SCD_53 
ROOT
ATOM      1  NBH F2H d   1      10.053 -10.355  22.680  0.00  0.00    -0.309 N 
ATOM      2  CBL F2H d   1      10.076 -10.359  21.305  0.00  0.00     0.325 C 
ATOM      3  OAA F2H d   1       9.099 -10.614  20.594  0.00  0.00    -0.247 OA
ATOM      4  NBI F2H d   1      11.232  -9.945  20.782  0.00  0.00    -0.309 N 
ATOM      5  H11 F2H d   1      10.887 -10.071  23.152  0.00  0.00     0.170 HD
ATOM      6  H12 F2H d   1      11.912  -9.581  21.418  0.00  0.00     0.170 HD
ENDROOT
BRANCH   1   7
ATOM      7  CBO F2H d   1       8.997 -10.703  23.444  0.00  0.00     0.037 A 
ATOM      8  CBF F2H d   1       7.758 -10.053  23.464  0.00  0.00    -0.042 A 
ATOM      9  CBQ F2H d   1       6.721 -10.450  24.343  0.00  0.00     0.034 A 
ATOM     10  H7  F2H d   1       7.587  -9.223  22.788  0.00  0.00     0.088 H 
ATOM     11  CAV F2H d   1       6.968 -11.527  25.212  0.00  0.00    -0.068 A 
ATOM     12  CAP F2H d   1       8.232 -12.158  25.228  0.00  0.00    -0.080 A 
ATOM     13  H8  F2H d   1       6.184 -11.876  25.874  0.00  0.00     0.085 H 
ATOM     14  CAT F2H d   1       9.217 -11.744  24.338  0.00  0.00    -0.057 A 
ATOM     15  H9  F2H d   1       8.433 -12.960  25.930  0.00  0.00     0.083 H 
ATOM     16  H10 F2H d   1      10.178 -12.245  24.342  0.00  0.00     0.086 H 
BRANCH   9  17
ATOM     17  CBM F2H d   1       5.472  -9.789  24.337  0.00  0.00     0.256 C 
ATOM     18  NBJ F2H d   1       4.809  -9.881  23.149  0.00  0.00    -0.322 N 
ATOM     19  H6  F2H d   1       5.240 -10.421  22.426  0.00  0.00     0.169 HD
ATOM     20  OAB F2H d   1       5.047  -9.229  25.362  0.00  0.00    -0.267 OA
BRANCH  18  21
ATOM     21  CBS F2H d   1       3.633  -9.312  22.868  0.00  0.00     0.047 A 
ATOM     22  CCA F2H d   1       2.605 -10.070  22.220  0.00  0.00     0.027 A 
ATOM     23  CBW F2H d   1       2.660 -11.464  21.875  0.00  0.00     0.094 A 
ATOM     24  CBY F2H d   1       1.402  -9.403  21.894  0.00  0.00     0.002 A 
ATOM     25  CAX F2H d   1       1.561 -12.133  21.274  0.00  0.00    -0.058 A 
ATOM     26  CAR F2H d   1       0.411 -11.459  20.961  0.00  0.00    -0.081 A 
ATOM     27  H1  F2H d   1       1.634 -13.193  21.060  0.00  0.00     0.086 H 
ATOM     28  CBD F2H d   1       0.326 -10.114  21.266  0.00  0.00    -0.070 A 
ATOM     29  H2  F2H d   1      -0.417 -11.971  20.483  0.00  0.00     0.083 H 
ATOM     30  H3  F2H d   1      -0.584  -9.578  21.023  0.00  0.00     0.084 H 
ATOM     31  CBU F2H d   1       1.292  -8.042  22.170  0.00  0.00     0.091 A 
ATOM     32  CBB F2H d   1       2.303  -7.348  22.804  0.00  0.00    -0.056 A 
ATOM     33  CAZ F2H d   1       3.491  -7.960  23.119  0.00  0.00    -0.055 A 
ATOM     34  H4  F2H d   1       2.157  -6.304  23.057  0.00  0.00     0.086 H 
ATOM     35  H5  F2H d   1       4.304  -7.393  23.557  0.00  0.00     0.087 H 
BRANCH  23  36
ATOM     36  SCE F2H d   1       3.955 -12.487  22.294  0.00  0.00     0.138 S 
ATOM     37  OAN F2H d   1       3.607 -13.965  22.146  0.00  0.00    -0.591 OA
ATOM     38  OAH F2H d   1       5.312 -12.123  21.612  0.00  0.00    -0.591 OA
ATOM     39  OAI F2H d   1       3.992 -12.377  23.807  0.00  0.00    -0.591 OA
ENDBRANCH  23  36
BRANCH  31  40
ATOM     40  SCC F2H d   1      -0.144  -7.209  21.813  0.00  0.00     0.138 S 
ATOM     41  OAL F2H d   1      -0.258  -7.112  20.258  0.00  0.00    -0.591 OA
ATOM     42  OAE F2H d   1      -0.138  -5.843  22.487  0.00  0.00    -0.591 OA
ATOM     43  OAD F2H d   1      -1.278  -8.020  22.438  0.00  0.00    -0.591 OA
ENDBRANCH  31  40
ENDBRANCH  18  21
ENDBRANCH   9  17
ENDBRANCH   1   7
BRANCH   4  44
ATOM     44  CBP F2H d   1      11.571  -9.972  19.467  0.00  0.00     0.037 A 
ATOM     45  CBG F2H d   1      12.898  -9.568  19.249  0.00  0.00    -0.042 A 
ATOM     46  CBR F2H d   1      13.536  -9.584  17.998  0.00  0.00     0.034 A 
ATOM     47  H13 F2H d   1      13.468  -9.221  20.103  0.00  0.00     0.088 H 
ATOM     48  CAW F2H d   1      12.765 -10.040  16.928  0.00  0.00    -0.068 A 
ATOM     49  CAQ F2H d   1      11.443 -10.477  17.109  0.00  0.00    -0.080 A 
ATOM     50  H16 F2H d   1      13.197 -10.057  15.934  0.00  0.00     0.085 H 
ATOM     51  CAU F2H d   1      10.840 -10.460  18.379  0.00  0.00    -0.057 A 
ATOM     52  H15 F2H d   1      10.878 -10.833  16.255  0.00  0.00     0.083 H 
ATOM     53  H14 F2H d   1       9.826 -10.819  18.513  0.00  0.00     0.086 H 
BRANCH  46  54
ATOM     54  CBN F2H d   1      14.885  -9.125  17.909  0.00  0.00     0.256 C 
ATOM     55  OAC F2H d   1      15.251  -8.331  17.033  0.00  0.00    -0.267 OA
ATOM     56  NBK F2H d   1      15.722  -9.693  18.832  0.00  0.00    -0.322 N 
ATOM     57  H17 F2H d   1      15.330 -10.444  19.363  0.00  0.00     0.169 HD
BRANCH  56  58
ATOM     58  CBT F2H d   1      17.007  -9.379  19.126  0.00  0.00     0.047 A 
ATOM     59  CCB F2H d   1      17.853 -10.346  19.752  0.00  0.00     0.027 A 
ATOM     60  CBX F2H d   1      17.495 -11.688  19.983  0.00  0.00     0.094 A 
ATOM     61  CBZ F2H d   1      19.156  -9.972  20.126  0.00  0.00     0.002 A 
ATOM     62  CAY F2H d   1      18.391 -12.595  20.575  0.00  0.00    -0.058 A 
ATOM     63  CAS F2H d   1      19.659 -12.206  20.958  0.00  0.00    -0.081 A 
ATOM     64  H18 F2H d   1      18.080 -13.621  20.734  0.00  0.00     0.086 H 
ATOM     65  CBE F2H d   1      20.027 -10.900  20.722  0.00  0.00    -0.070 A 
ATOM     66  H19 F2H d   1      20.342 -12.905  21.428  0.00  0.00     0.083 H 
ATOM     67  H20 F2H d   1      21.022 -10.577  21.006  0.00  0.00     0.084 H 
ATOM     68  CBV F2H d   1      19.599  -8.665  19.930  0.00  0.00     0.091 A 
ATOM     69  CBC F2H d   1      18.761  -7.744  19.336  0.00  0.00    -0.056 A 
ATOM     70  CBA F2H d   1      17.472  -8.108  18.978  0.00  0.00    -0.055 A 
ATOM     71  H21 F2H d   1      19.111  -6.735  19.149  0.00  0.00     0.086 H 
ATOM     72  H22 F2H d   1      16.811  -7.354  18.566  0.00  0.00     0.087 H 
BRANCH  60  73
ATOM     73  SCF F2H d   1      16.018 -12.381  19.494  0.00  0.00     0.138 S 
ATOM     74  OAO F2H d   1      15.961 -12.207  17.982  0.00  0.00    -0.591 OA
ATOM     75  OAK F2H d   1      14.687 -11.775  20.157  0.00  0.00    -0.591 OA
ATOM     76  OAJ F2H d   1      16.095 -13.898  19.636  0.00  0.00    -0.591 OA
ENDBRANCH  60  73
BRANCH  68  77
ATOM     77  SCD F2H d   1      21.266  -8.123  20.306  0.00  0.00     0.138 S 
ATOM     78  OAM F2H d   1      22.149  -9.134  19.633  0.00  0.00    -0.591 OA
ATOM     79  OAG F2H d   1      21.530  -8.070  21.821  0.00  0.00    -0.591 OA
ATOM     80  OAF F2H d   1      21.536  -6.835  19.490  0.00  0.00    -0.591 OA
ENDBRANCH  68  77
ENDBRANCH  56  58
ENDBRANCH  46  54
ENDBRANCH   4  44
TORSDOF 10
