REMARK  8 active torsions:
REMARK  status: ('A' for Active; 'I' for Inactive)
REMARK    1  A    between atoms: C7_7  and  C13_13 
REMARK    2  A    between atoms: C9_9  and  C10_10 
REMARK       I    between atoms: C10_10  and  N12_12 
REMARK    3  A    between atoms: N12_12  and  C41_41 
REMARK    4  A    between atoms: N12_12  and  C42_42 
REMARK    5  A    between atoms: C15_15  and  C21_21 
REMARK       I    between atoms: C21_21  and  N22_22 
REMARK    6  A    between atoms: C24_24  and  C33_33 
REMARK    7  A    between atoms: C33_33  and  N35_35 
REMARK    8  A    between atoms: C45_45  and  O53_53 
ROOT
ATOM      1  C13 F3Q d   1      16.363   3.477  13.778  0.00  0.00     0.009 A 
ATOM      2  C14 F3Q d   1      15.798   3.835  12.595  0.00  0.00    -0.035 A 
ATOM      3  C15 F3Q d   1      17.547   2.756  13.745  0.00  0.00     0.047 A 
ATOM      4  C16 F3Q d   1      17.506   2.792  11.358  0.00  0.00     0.106 A 
ATOM      5  C17 F3Q d   1      16.332   3.511  11.397  0.00  0.00     0.105 A 
ATOM      6  O18 F3Q d   1      15.911   3.793  10.160  0.00  0.00    -0.323 OA
ATOM      7  C19 F3Q d   1      16.813   3.165   9.315  0.00  0.00     0.115 A 
ATOM      8  O20 F3Q d   1      17.850   2.605  10.045  0.00  0.00    -0.323 OA
ATOM      9  C34 F3Q d   1      18.113   2.422  12.528  0.00  0.00    -0.032 A 
ATOM     10  H10 F3Q d   1      14.877   4.407  12.613  0.00  0.00     0.089 H 
ATOM     11  H11 F3Q d   1      17.223   3.903   8.610  0.00  0.00     0.118 H 
ATOM     12  H12 F3Q d   1      16.294   2.373   8.756  0.00  0.00     0.118 H 
ATOM     13  H24 F3Q d   1      19.042   1.864  12.500  0.00  0.00     0.089 H 
ENDROOT
BRANCH   1  14
ATOM     14  C7  F3Q d   1      15.738   3.858  15.071  0.00  0.00     0.047 A 
ATOM     15  N6  F3Q d   1      15.823   5.115  15.577  0.00  0.00    -0.349 N 
ATOM     16  C3  F3Q d   1      16.521   6.220  14.958  0.00  0.00     0.000 C 
ATOM     17  C5  F3Q d   1      15.179   5.127  16.767  0.00  0.00     0.028 A 
ATOM     18  C4  F3Q d   1      16.803   7.317  15.991  0.00  0.00    -0.049 C 
ATOM     19  H5  F3Q d   1      17.473   5.860  14.542  0.00  0.00     0.064 H 
ATOM     20  H6  F3Q d   1      15.900   6.634  14.149  0.00  0.00     0.064 H 
ATOM     21  C2  F3Q d   1      15.599   7.568  16.897  0.00  0.00    -0.059 C 
ATOM     22  H7  F3Q d   1      17.658   7.010  16.612  0.00  0.00     0.035 H 
ATOM     23  H8  F3Q d   1      17.050   8.249  15.462  0.00  0.00     0.035 H 
ATOM     24  C1  F3Q d   1      15.091   6.380  17.612  0.00  0.00    -0.025 C 
ATOM     25  H3  F3Q d   1      15.888   8.319  17.647  0.00  0.00     0.033 H 
ATOM     26  H4  F3Q d   1      14.783   7.966  16.276  0.00  0.00     0.033 H 
ATOM     27  H1  F3Q d   1      14.039   6.552  17.883  0.00  0.00     0.042 H 
ATOM     28  H2  F3Q d   1      15.686   6.234  18.526  0.00  0.00     0.042 H 
ATOM     29  C9  F3Q d   1      14.658   3.936  17.041  0.00  0.00     0.057 A 
ATOM     30  C8  F3Q d   1      15.032   3.098  15.922  0.00  0.00    -0.039 A 
ATOM     31  H9  F3Q d   1      14.786   2.045  15.794  0.00  0.00     0.088 H 
BRANCH  29  32
ATOM     32  C10 F3Q d   1      13.895   3.534  18.260  0.00  0.00     0.265 C 
ATOM     33  O11 F3Q d   1      14.120   4.194  19.308  0.00  0.00    -0.267 OA
ATOM     34  N12 F3Q d   1      13.032   2.528  18.276  0.00  0.00    -0.279 N 
BRANCH  34  35
ATOM     35  C41 F3Q d   1      12.510   1.901  17.080  0.00  0.00     0.043 A 
ATOM     36  C43 F3Q d   1      11.925   2.677  16.080  0.00  0.00    -0.054 A 
ATOM     37  C44 F3Q d   1      11.456   2.052  14.985  0.00  0.00    -0.049 A 
ATOM     38  H34 F3Q d   1      11.850   3.754  16.182  0.00  0.00     0.087 H 
ATOM     39  C45 F3Q d   1      11.523   0.704  14.761  0.00  0.00     0.065 A 
ATOM     40  H35 F3Q d   1      10.989   2.663  14.221  0.00  0.00     0.087 H 
ATOM     41  C46 F3Q d   1      12.094  -0.134  15.723  0.00  0.00    -0.049 A 
ATOM     42  C47 F3Q d   1      12.612   0.516  16.858  0.00  0.00    -0.054 A 
ATOM     43  H36 F3Q d   1      12.135  -1.210  15.603  0.00  0.00     0.087 H 
ATOM     44  H37 F3Q d   1      13.119  -0.085  17.604  0.00  0.00     0.087 H 
BRANCH  39  45
ATOM     45  O53 F3Q d   1      11.077   0.071  13.632  0.00  0.00    -0.361 OA
ATOM     46  H43 F3Q d   1      10.707   0.712  13.036  0.00  0.00     0.217 HD
ENDBRANCH  39  45
ENDBRANCH  34  35
BRANCH  34  47
ATOM     47  C42 F3Q d   1      12.529   2.046  19.512  0.00  0.00     0.043 A 
ATOM     48  C48 F3Q d   1      11.164   1.997  19.764  0.00  0.00    -0.057 A 
ATOM     49  C49 F3Q d   1      10.673   1.498  20.985  0.00  0.00    -0.081 A 
ATOM     50  H38 F3Q d   1      10.468   2.348  19.011  0.00  0.00     0.086 H 
ATOM     51  C50 F3Q d   1      11.577   1.068  21.980  0.00  0.00    -0.083 A 
ATOM     52  H39 F3Q d   1       9.605   1.444  21.160  0.00  0.00     0.083 H 
ATOM     53  C51 F3Q d   1      12.916   1.137  21.744  0.00  0.00    -0.081 A 
ATOM     54  H40 F3Q d   1      11.208   0.686  22.925  0.00  0.00     0.083 H 
ATOM     55  C52 F3Q d   1      13.429   1.612  20.526  0.00  0.00    -0.057 A 
ATOM     56  H41 F3Q d   1      13.605   0.817  22.517  0.00  0.00     0.083 H 
ATOM     57  H42 F3Q d   1      14.500   1.648  20.360  0.00  0.00     0.086 H 
ENDBRANCH  34  47
ENDBRANCH  29  32
ENDBRANCH   1  14
BRANCH   3  58
ATOM     58  C21 F3Q d   1      18.249   2.421  15.052  0.00  0.00     0.255 C 
ATOM     59  N22 F3Q d   1      18.147   1.259  15.609  0.00  0.00    -0.337 N 
ATOM     60  C24 F3Q d   1      18.732   1.133  16.949  0.00  0.00     0.042 C 
ATOM     61  C26 F3Q d   1      17.352   0.180  15.090  0.00  0.00     0.023 C 
ATOM     62  C25 F3Q d   1      17.535   0.910  17.899  0.00  0.00    -0.020 C 
ATOM     63  H13 F3Q d   1      19.312   2.021  17.241  0.00  0.00     0.075 H 
ATOM     64  C28 F3Q d   1      16.568  -0.161  17.496  0.00  0.00    -0.048 A 
ATOM     65  H14 F3Q d   1      16.979   1.857  17.968  0.00  0.00     0.043 H 
ATOM     66  H15 F3Q d   1      17.936   0.647  18.889  0.00  0.00     0.043 H 
ATOM     67  C27 F3Q d   1      16.513  -0.561  16.145  0.00  0.00    -0.034 A 
ATOM     68  C29 F3Q d   1      15.761  -0.869  18.387  0.00  0.00    -0.076 A 
ATOM     69  C32 F3Q d   1      15.668  -1.549  15.738  0.00  0.00    -0.075 A 
ATOM     70  C31 F3Q d   1      14.868  -2.274  16.613  0.00  0.00    -0.082 A 
ATOM     71  H21 F3Q d   1      15.617  -1.781  14.680  0.00  0.00     0.084 H 
ATOM     72  C30 F3Q d   1      14.908  -1.885  17.945  0.00  0.00    -0.082 A 
ATOM     73  H20 F3Q d   1      14.248  -3.096  16.275  0.00  0.00     0.083 H 
ATOM     74  H19 F3Q d   1      14.262  -2.381  18.660  0.00  0.00     0.083 H 
ATOM     75  H18 F3Q d   1      15.796  -0.627  19.443  0.00  0.00     0.084 H 
ATOM     76  H16 F3Q d   1      18.028  -0.547  14.616  0.00  0.00     0.071 H 
ATOM     77  H17 F3Q d   1      16.667   0.591  14.334  0.00  0.00     0.071 H 
ATOM     78  O23 F3Q d   1      18.871   3.390  15.534  0.00  0.00    -0.267 OA
BRANCH  60  79
ATOM     79  C33 F3Q d   1      19.624  -0.116  16.875  0.00  0.00     0.102 C 
ATOM     80  H22 F3Q d   1      19.687  -0.451  15.829  0.00  0.00     0.079 H 
ATOM     81  H23 F3Q d   1      19.178  -0.913  17.489  0.00  0.00     0.079 H 
BRANCH  79  82
ATOM     82  N35 F3Q d   1      20.995   0.173  17.376  0.00  0.00    -0.065 N 
ATOM     83  C36 F3Q d   1      21.456   1.451  16.804  0.00  0.00     0.103 C 
ATOM     84  C37 F3Q d   1      22.892   1.755  17.220  0.00  0.00     0.042 C 
ATOM     85  H26 F3Q d   1      20.801   2.260  17.159  0.00  0.00     0.079 H 
ATOM     86  H27 F3Q d   1      21.405   1.392  15.707  0.00  0.00     0.079 H 
ATOM     87  O38 F3Q d   1      23.705   0.603  16.840  0.00  0.00    -0.388 OA
ATOM     88  H28 F3Q d   1      22.944   1.911  18.308  0.00  0.00     0.076 H 
ATOM     89  H29 F3Q d   1      23.251   2.657  16.703  0.00  0.00     0.076 H 
ATOM     90  C39 F3Q d   1      23.311  -0.645  17.506  0.00  0.00     0.042 C 
ATOM     91  C40 F3Q d   1      21.877  -0.987  17.086  0.00  0.00     0.103 C 
ATOM     92  H30 F3Q d   1      23.357  -0.514  18.597  0.00  0.00     0.076 H 
ATOM     93  H31 F3Q d   1      23.990  -1.457  17.205  0.00  0.00     0.076 H 
ATOM     94  H32 F3Q d   1      21.852  -1.209  16.009  0.00  0.00     0.079 H 
ATOM     95  H33 F3Q d   1      21.528  -1.865  17.649  0.00  0.00     0.079 H 
ATOM     96  H25 F3Q d   1      20.956   0.283  18.377  0.00  0.00     0.280 HD
ENDBRANCH  79  82
ENDBRANCH  60  79
ENDBRANCH   3  58
TORSDOF 8
