REMARK  3 active torsions:
REMARK  status: ('A' for Active; 'I' for Inactive)
REMARK    1  A    between atoms: C7_5  and  C8_6 
REMARK    2  A    between atoms: N2_7  and  C17_23 
REMARK    3  A    between atoms: C10_9  and  C13_13 
ROOT
ATOM      1  C13 F3W d   1      39.953  -5.652  62.387  0.00  0.00    -0.063 C 
ATOM      2  C14 F3W d   1      39.992  -6.571  61.429  0.00  0.00    -0.006 C 
ATOM      3  C15 F3W d   1      38.964  -7.544  61.340  0.00  0.00     0.087 C 
ATOM      4  N4  F3W d   1      38.162  -8.343  61.256  0.00  0.00    -0.192 NA
ATOM      5  H8  F3W d   1      39.103  -5.647  63.068  0.00  0.00     0.085 H 
ATOM      6  H9  F3W d   1      40.812  -6.577  60.713  0.00  0.00     0.100 H 
ENDROOT
BRANCH   1   7
ATOM      7  C10 F3W d   1      41.000  -4.646  62.570  0.00  0.00    -0.035 A 
ATOM      8  C9  F3W d   1      40.972  -3.757  63.651  0.00  0.00    -0.059 A 
ATOM      9  C8  F3W d   1      41.975  -2.804  63.826  0.00  0.00     0.011 A 
ATOM     10  H5  F3W d   1      40.157  -3.810  64.364  0.00  0.00     0.086 H 
ATOM     11  C16 F3W d   1      43.022  -2.755  62.913  0.00  0.00    -0.069 A 
ATOM     12  C12 F3W d   1      43.078  -3.650  61.858  0.00  0.00    -0.081 A 
ATOM     13  H10 F3W d   1      43.801  -2.010  63.028  0.00  0.00     0.085 H 
ATOM     14  C11 F3W d   1      42.078  -4.588  61.684  0.00  0.00    -0.073 A 
ATOM     15  H7  F3W d   1      43.911  -3.615  61.165  0.00  0.00     0.083 H 
ATOM     16  H6  F3W d   1      42.131  -5.283  60.854  0.00  0.00     0.084 H 
BRANCH   9  17
ATOM     17  C7  F3W d   1      42.073  -1.903  64.986  0.00  0.00     0.141 A 
ATOM     18  N2  F3W d   1      41.048  -1.144  65.520  0.00  0.00    -0.323 N 
ATOM     19  C1  F3W d   1      41.592  -0.451  66.627  0.00  0.00     0.081 A 
ATOM     20  C   F3W d   1      42.926  -0.877  66.663  0.00  0.00     0.104 A 
ATOM     21  C2  F3W d   1      41.180   0.480  67.607  0.00  0.00     0.041 A 
ATOM     22  C4  F3W d   1      43.829  -0.422  67.607  0.00  0.00     0.035 A 
ATOM     23  N3  F3W d   1      43.204  -1.766  65.643  0.00  0.00    -0.227 NA
ATOM     24  N   F3W d   1      43.510   0.461  68.554  0.00  0.00    -0.240 NA
ATOM     25  H1  F3W d   1      44.844  -0.801  67.575  0.00  0.00     0.118 H 
ATOM     26  C3  F3W d   1      42.223   0.871  68.536  0.00  0.00     0.139 A 
ATOM     27  N1  F3W d   1      41.617   1.669  69.452  0.00  0.00    -0.350 N 
ATOM     28  C6  F3W d   1      40.279   1.801  69.169  0.00  0.00    -0.020 A 
ATOM     29  H4  F3W d   1      42.094   2.114  70.249  0.00  0.00     0.166 HD
ATOM     30  C5  F3W d   1      39.971   1.110  68.045  0.00  0.00    -0.052 A 
ATOM     31  H3  F3W d   1      39.570   2.377  69.762  0.00  0.00     0.111 H 
ATOM     32  H2  F3W d   1      38.994   1.046  67.568  0.00  0.00     0.087 H 
BRANCH  18  33
ATOM     33  C17 F3W d   1      39.634  -1.091  65.083  0.00  0.00     0.019 C 
ATOM     34  C22 F3W d   1      38.691  -1.693  66.121  0.00  0.00    -0.046 C 
ATOM     35  C21 F3W d   1      37.221  -1.570  65.716  0.00  0.00    -0.063 C 
ATOM     36  H12 F3W d   1      38.839  -1.170  67.077  0.00  0.00     0.036 H 
ATOM     37  H13 F3W d   1      38.935  -2.758  66.244  0.00  0.00     0.036 H 
ATOM     38  C20 F3W d   1      36.882  -0.158  65.307  0.00  0.00    -0.065 C 
ATOM     39  H14 F3W d   1      36.589  -1.858  66.569  0.00  0.00     0.033 H 
ATOM     40  H15 F3W d   1      37.025  -2.245  64.870  0.00  0.00     0.033 H 
ATOM     41  C19 F3W d   1      37.778   0.317  64.189  0.00  0.00    -0.063 C 
ATOM     42  H16 F3W d   1      37.008   0.507  66.174  0.00  0.00     0.033 H 
ATOM     43  H17 F3W d   1      35.836  -0.124  64.968  0.00  0.00     0.033 H 
ATOM     44  C18 F3W d   1      39.241   0.302  64.617  0.00  0.00    -0.046 C 
ATOM     45  H18 F3W d   1      37.495   1.343  63.912  0.00  0.00     0.033 H 
ATOM     46  H19 F3W d   1      37.651  -0.345  63.320  0.00  0.00     0.033 H 
ATOM     47  H20 F3W d   1      39.873   0.592  63.764  0.00  0.00     0.036 H 
ATOM     48  H21 F3W d   1      39.386   1.016  65.441  0.00  0.00     0.036 H 
ATOM     49  H11 F3W d   1      39.559  -1.738  64.197  0.00  0.00     0.073 H 
ENDBRANCH  18  33
ENDBRANCH   9  17
ENDBRANCH   1   7
TORSDOF 3
