REMARK  3 active torsions:
REMARK  status: ('A' for Active; 'I' for Inactive)
REMARK    1  A    between atoms: C7_5  and  C8_6 
REMARK    2  A    between atoms: N2_7  and  C15_15 
REMARK    3  A    between atoms: C11_10  and  C12_11 
ROOT
ATOM      1  C12 F4B d   1       2.298  27.491   2.573  0.00  0.00    -0.041 C 
ATOM      2  C13 F4B d   1       2.080  28.470   3.450  0.00  0.00    -0.004 C 
ATOM      3  C14 F4B d   1       3.004  28.707   4.507  0.00  0.00     0.088 C 
ATOM      4  N4  F4B d   1       3.745  28.874   5.362  0.00  0.00    -0.192 NA
ATOM      5  H7  F4B d   1       3.217  26.914   2.664  0.00  0.00     0.088 H 
ATOM      6  H8  F4B d   1       1.191  29.092   3.358  0.00  0.00     0.100 H 
ENDROOT
BRANCH   1   7
ATOM      7  C11 F4B d   1       1.386  27.154   1.512  0.00  0.00     0.076 A 
ATOM      8  C10 F4B d   1       0.222  27.746   1.183  0.00  0.00    -0.048 A 
ATOM      9  C9  F4B d   1      -0.328  27.019   0.116  0.00  0.00    -0.044 A 
ATOM     10  H6  F4B d   1      -0.212  28.625   1.657  0.00  0.00     0.087 H 
ATOM     11  C8  F4B d   1       0.528  26.011  -0.166  0.00  0.00     0.122 A 
ATOM     12  H5  F4B d   1      -1.269  27.228  -0.391  0.00  0.00     0.088 H 
ATOM     13  O   F4B d   1       1.606  26.070   0.686  0.00  0.00    -0.307 OA
BRANCH  11  14
ATOM     14  C7  F4B d   1       0.395  24.928  -1.113  0.00  0.00     0.165 A 
ATOM     15  N2  F4B d   1       1.310  24.338  -1.960  0.00  0.00    -0.322 N 
ATOM     16  C1  F4B d   1       0.601  23.378  -2.700  0.00  0.00     0.081 A 
ATOM     17  C   F4B d   1      -0.703  23.470  -2.237  0.00  0.00     0.104 A 
ATOM     18  C2  F4B d   1       0.963  22.427  -3.675  0.00  0.00     0.041 A 
ATOM     19  C4  F4B d   1      -1.675  22.617  -2.739  0.00  0.00     0.035 A 
ATOM     20  N3  F4B d   1      -0.817  24.442  -1.248  0.00  0.00    -0.225 NA
ATOM     21  N   F4B d   1      -1.412  21.678  -3.660  0.00  0.00    -0.240 NA
ATOM     22  H1  F4B d   1      -2.690  22.713  -2.371  0.00  0.00     0.118 H 
ATOM     23  C3  F4B d   1      -0.132  21.610  -4.094  0.00  0.00     0.139 A 
ATOM     24  N1  F4B d   1       0.391  20.705  -4.974  0.00  0.00    -0.350 N 
ATOM     25  C6  F4B d   1       1.737  20.901  -5.121  0.00  0.00    -0.020 A 
ATOM     26  H4  F4B d   1      -0.152  19.977  -5.459  0.00  0.00     0.166 HD
ATOM     27  C5  F4B d   1       2.136  21.946  -4.361  0.00  0.00    -0.052 A 
ATOM     28  H3  F4B d   1       2.390  20.304  -5.756  0.00  0.00     0.111 H 
ATOM     29  H2  F4B d   1       3.146  22.346  -4.283  0.00  0.00     0.087 H 
BRANCH  15  30
ATOM     30  C15 F4B d   1       2.756  24.576  -2.219  0.00  0.00     0.019 C 
ATOM     31  C20 F4B d   1       3.695  23.894  -1.237  0.00  0.00    -0.046 C 
ATOM     32  C19 F4B d   1       5.130  24.409  -1.394  0.00  0.00    -0.063 C 
ATOM     33  H10 F4B d   1       3.681  22.810  -1.421  0.00  0.00     0.036 H 
ATOM     34  H11 F4B d   1       3.351  24.097  -0.212  0.00  0.00     0.036 H 
ATOM     35  C18 F4B d   1       5.390  24.907  -2.817  0.00  0.00    -0.065 C 
ATOM     36  H12 F4B d   1       5.831  23.592  -1.167  0.00  0.00     0.033 H 
ATOM     37  H13 F4B d   1       5.292  25.238  -0.689  0.00  0.00     0.033 H 
ATOM     38  C17 F4B d   1       4.493  26.099  -3.169  0.00  0.00    -0.063 C 
ATOM     39  H14 F4B d   1       5.190  24.088  -3.524  0.00  0.00     0.033 H 
ATOM     40  H15 F4B d   1       6.443  25.215  -2.901  0.00  0.00     0.033 H 
ATOM     41  C16 F4B d   1       3.119  26.015  -2.503  0.00  0.00    -0.046 C 
ATOM     42  H16 F4B d   1       4.355  26.127  -4.260  0.00  0.00     0.033 H 
ATOM     43  H17 F4B d   1       4.989  27.023  -2.839  0.00  0.00     0.033 H 
ATOM     44  H18 F4B d   1       3.140  26.576  -1.557  0.00  0.00     0.036 H 
ATOM     45  H19 F4B d   1       2.365  26.453  -3.173  0.00  0.00     0.036 H 
ATOM     46  H9  F4B d   1       2.943  24.059  -3.172  0.00  0.00     0.073 H 
ENDBRANCH  15  30
ENDBRANCH  11  14
ENDBRANCH   1   7
TORSDOF 3
