REMARK  4 active torsions:
REMARK  status: ('A' for Active; 'I' for Inactive)
REMARK    1  A    between atoms: C7_5  and  C8_6 
REMARK    2  A    between atoms: N2_7  and  C15_15 
REMARK    3  A    between atoms: C11_10  and  C12_11 
REMARK    4  A    between atoms: C12_11  and  C13_13 
ROOT
ATOM      1  C13 F48 d   1      35.353  48.563  -1.033  0.00  0.00     0.020 C 
ATOM      2  C14 F48 d   1      33.998  48.962  -0.585  0.00  0.00     0.059 C 
ATOM      3  N4  F48 d   1      32.933  49.281  -0.291  0.00  0.00    -0.197 NA
ATOM      4  H9  F48 d   1      35.255  47.841  -1.857  0.00  0.00     0.055 H 
ATOM      5  H10 F48 d   1      35.884  49.457  -1.391  0.00  0.00     0.055 H 
ENDROOT
BRANCH   1   6
ATOM      6  C12 F48 d   1      36.165  47.926   0.080  0.00  0.00    -0.009 C 
ATOM      7  H7  F48 d   1      35.626  48.083   1.026  0.00  0.00     0.044 H 
ATOM      8  H8  F48 d   1      36.237  46.848  -0.127  0.00  0.00     0.044 H 
BRANCH   6   9
ATOM      9  C11 F48 d   1      37.551  48.458   0.245  0.00  0.00     0.054 A 
ATOM     10  C10 F48 d   1      38.749  48.304  -0.358  0.00  0.00    -0.051 A 
ATOM     11  C9  F48 d   1      39.692  49.077   0.377  0.00  0.00    -0.044 A 
ATOM     12  H6  F48 d   1      38.955  47.701  -1.241  0.00  0.00     0.087 H 
ATOM     13  C8  F48 d   1      39.013  49.668   1.385  0.00  0.00     0.121 A 
ATOM     14  H5  F48 d   1      40.756  49.173   0.167  0.00  0.00     0.088 H 
ATOM     15  O   F48 d   1      37.688  49.293   1.318  0.00  0.00    -0.311 OA
BRANCH  13  16
ATOM     16  C7  F48 d   1      39.316  50.592   2.454  0.00  0.00     0.165 A 
ATOM     17  N2  F48 d   1      38.398  51.420   3.056  0.00  0.00    -0.322 N 
ATOM     18  C1  F48 d   1      39.087  52.124   4.062  0.00  0.00     0.081 A 
ATOM     19  C   F48 d   1      40.394  51.641   3.980  0.00  0.00     0.104 A 
ATOM     20  C2  F48 d   1      38.758  53.095   5.037  0.00  0.00     0.041 A 
ATOM     21  C4  F48 d   1      41.372  52.097   4.856  0.00  0.00     0.035 A 
ATOM     22  N3  F48 d   1      40.524  50.697   2.969  0.00  0.00    -0.225 NA
ATOM     23  N   F48 d   1      41.125  52.986   5.826  0.00  0.00    -0.240 NA
ATOM     24  H1  F48 d   1      42.381  51.715   4.749  0.00  0.00     0.118 H 
ATOM     25  C3  F48 d   1      39.863  53.452   5.894  0.00  0.00     0.139 A 
ATOM     26  N1  F48 d   1      39.367  54.351   6.791  0.00  0.00    -0.350 N 
ATOM     27  C6  F48 d   1      38.036  54.579   6.544  0.00  0.00    -0.020 A 
ATOM     28  H4  F48 d   1      39.912  54.794   7.544  0.00  0.00     0.166 HD
ATOM     29  C5  F48 d   1      37.624  53.844   5.481  0.00  0.00    -0.052 A 
ATOM     30  H3  F48 d   1      37.402  55.253   7.119  0.00  0.00     0.111 H 
ATOM     31  H2  F48 d   1      36.624  53.828   5.050  0.00  0.00     0.087 H 
BRANCH  17  32
ATOM     32  C15 F48 d   1      36.966  51.555   2.677  0.00  0.00     0.019 C 
ATOM     33  C20 F48 d   1      36.640  52.888   2.027  0.00  0.00    -0.046 C 
ATOM     34  C19 F48 d   1      35.202  52.882   1.523  0.00  0.00    -0.063 C 
ATOM     35  H12 F48 d   1      37.322  53.058   1.181  0.00  0.00     0.036 H 
ATOM     36  H13 F48 d   1      36.764  53.694   2.765  0.00  0.00     0.036 H 
ATOM     37  C18 F48 d   1      34.237  52.539   2.641  0.00  0.00    -0.065 C 
ATOM     38  H14 F48 d   1      35.105  52.135   0.722  0.00  0.00     0.033 H 
ATOM     39  H15 F48 d   1      34.955  53.878   1.127  0.00  0.00     0.033 H 
ATOM     40  C17 F48 d   1      34.568  51.179   3.259  0.00  0.00    -0.063 C 
ATOM     41  H16 F48 d   1      33.215  52.510   2.236  0.00  0.00     0.033 H 
ATOM     42  H17 F48 d   1      34.301  53.312   3.420  0.00  0.00     0.033 H 
ATOM     43  C16 F48 d   1      35.998  51.141   3.780  0.00  0.00    -0.046 C 
ATOM     44  H18 F48 d   1      34.445  50.398   2.494  0.00  0.00     0.033 H 
ATOM     45  H19 F48 d   1      33.877  50.987   4.093  0.00  0.00     0.033 H 
ATOM     46  H20 F48 d   1      36.095  51.834   4.629  0.00  0.00     0.036 H 
ATOM     47  H21 F48 d   1      36.238  50.120   4.111  0.00  0.00     0.036 H 
ATOM     48  H11 F48 d   1      36.814  50.811   1.881  0.00  0.00     0.073 H 
ENDBRANCH  17  32
ENDBRANCH  13  16
ENDBRANCH   6   9
ENDBRANCH   1   6
TORSDOF 4
