REMARK  6 active torsions:
REMARK  status: ('A' for Active; 'I' for Inactive)
REMARK    1  A    between atoms: OAD_1  and  CAO_2 
REMARK    2  A    between atoms: CAM_4  and  OAB_5 
REMARK    3  A    between atoms: CAQ_8  and  CAL_9 
REMARK    4  A    between atoms: CAL_9  and  CAR_11 
REMARK    5  A    between atoms: CAN_14  and  OAC_15 
REMARK    6  A    between atoms: CAP_17  and  OAE_18 
ROOT
ATOM      1  CAL 27M d   1     -15.585  -2.805 -38.347  0.00  0.00     0.197 C 
ATOM      2  OAA 27M d   1     -15.868  -2.096 -37.399  0.00  0.00    -0.286 OA
ENDROOT
BRANCH   1   3
ATOM      3  CAQ 27M d   1     -14.176  -2.771 -38.903  0.00  0.00     0.048 A 
ATOM      4  CAO 27M d   1     -13.911  -2.271 -40.173  0.00  0.00     0.082 A 
ATOM      5  CAJ 27M d   1     -12.610  -2.243 -40.660  0.00  0.00    -0.018 A 
ATOM      6  CAM 27M d   1     -11.567  -2.723 -39.880  0.00  0.00     0.068 A 
ATOM      7  H2  27M d   1     -12.410  -1.846 -41.649  0.00  0.00     0.092 H 
ATOM      8  CAF 27M d   1     -11.825  -3.218 -38.612  0.00  0.00    -0.050 A 
ATOM      9  CAH 27M d   1     -13.124  -3.240 -38.127  0.00  0.00    -0.064 A 
ATOM     10  H4  27M d   1     -11.011  -3.588 -37.999  0.00  0.00     0.087 H 
ATOM     11  H5  27M d   1     -13.320  -3.627 -37.133  0.00  0.00     0.085 H 
BRANCH   4  12
ATOM     12  OAD 27M d   1     -14.926  -1.806 -40.950  0.00  0.00    -0.360 OA
ATOM     13  H1  27M d   1     -14.965  -2.311 -41.754  0.00  0.00     0.217 HD
ENDBRANCH   4  12
BRANCH   6  14
ATOM     14  OAB 27M d   1     -10.248  -2.703 -40.367  0.00  0.00    -0.361 OA
ATOM     15  H3  27M d   1      -9.664  -3.065 -39.711  0.00  0.00     0.217 HD
ENDBRANCH   6  14
ENDBRANCH   1   3
BRANCH   1  16
ATOM     16  CAR 27M d   1     -16.645  -3.714 -38.940  0.00  0.00     0.048 A 
ATOM     17  CAI 27M d   1     -16.294  -4.904 -39.561  0.00  0.00    -0.064 A 
ATOM     18  CAG 27M d   1     -17.265  -5.735 -40.098  0.00  0.00    -0.050 A 
ATOM     19  H6  27M d   1     -15.250  -5.187 -39.627  0.00  0.00     0.085 H 
ATOM     20  CAN 27M d   1     -18.601  -5.379 -40.016  0.00  0.00     0.068 A 
ATOM     21  H7  27M d   1     -16.979  -6.662 -40.581  0.00  0.00     0.087 H 
ATOM     22  CAK 27M d   1     -18.960  -4.192 -39.397  0.00  0.00    -0.018 A 
ATOM     23  CAP 27M d   1     -17.986  -3.362 -38.861  0.00  0.00     0.082 A 
ATOM     24  H9  27M d   1     -20.005  -3.911 -39.331  0.00  0.00     0.092 H 
BRANCH  20  25
ATOM     25  OAC 27M d   1     -19.591  -6.217 -40.561  0.00  0.00    -0.361 OA
ATOM     26  H8  27M d   1     -20.446  -5.828 -40.420  0.00  0.00     0.217 HD
ENDBRANCH  20  25
BRANCH  23  27
ATOM     27  OAE 27M d   1     -18.348  -2.197 -38.252  0.00  0.00    -0.360 OA
ATOM     28  H10 27M d   1     -17.570  -1.748 -37.941  0.00  0.00     0.217 HD
ENDBRANCH  23  27
ENDBRANCH   1  16
TORSDOF 6
