REMARK  0 active torsions:
REMARK  status: ('A' for Active; 'I' for Inactive)
ROOT
ATOM      1  C01 F4Z d   1     -16.539   4.413  38.805  0.00  0.00    -0.052 A 
ATOM      2  C02 F4Z d   1     -17.764   4.948  38.998  0.00  0.00     0.102 A 
ATOM      3  C03 F4Z d   1     -18.988   4.222  38.713  0.00  0.00     0.289 A 
ATOM      4  O04 F4Z d   1     -20.135   4.664  38.871  0.00  0.00    -0.264 OA
ATOM      5  N05 F4Z d   1     -18.797   2.956  38.235  0.00  0.00    -0.199 NA
ATOM      6  C06 F4Z d   1     -17.559   2.450  38.053  0.00  0.00     0.129 A 
ATOM      7  C07 F4Z d   1     -16.415   3.099  38.308  0.00  0.00     0.089 A 
ATOM      8 CL8  F4Z d   1     -14.852   2.400  38.055  0.00  0.00    -0.113 Cl
ATOM      9 CL9  F4Z d   1     -17.499   0.834  37.440  0.00  0.00    -0.065 Cl
ATOM     10 CL1  F4Z d   1     -17.929   6.558  39.607  0.00  0.00    -0.079 Cl
ATOM     11  H1  F4Z d   1     -15.648   4.996  39.033  0.00  0.00     0.082 H 
ATOM     12  H2  F4Z d   1     -16.413   2.698  39.332  0.00  0.00     0.082 H 
ENDROOT
TORSDOF 0
