REMARK  4 active torsions:
REMARK  status: ('A' for Active; 'I' for Inactive)
REMARK    1  A    between atoms: C02_2  and  C04_4 
REMARK    2  A    between atoms: C09_9  and  N10_10 
REMARK    3  A    between atoms: N10_10  and  C11_11 
REMARK    4  A    between atoms: C12_12  and  C13_13 
ROOT
ATOM      1  C11 6J3 d   1       3.194   5.732   0.473  0.00  0.00     0.041 A 
ATOM      2  C12 6J3 d   1       4.133   6.180  -0.453  0.00  0.00    -0.013 A 
ATOM      3  C14 6J3 d   1       4.786   7.384  -0.162  0.00  0.00     0.042 A 
ATOM      4 CL   6J3 d   1       5.958   8.021  -1.271  0.00  0.00    -0.084 Cl
ATOM      5  C16 6J3 d   1       4.557   8.128   0.995  0.00  0.00    -0.061 A 
ATOM      6  C17 6J3 d   1       3.618   7.636   1.917  0.00  0.00    -0.079 A 
ATOM      7  C18 6J3 d   1       2.950   6.456   1.666  0.00  0.00    -0.057 A 
ATOM      8  H8  6J3 d   1       5.087   9.056   1.177  0.00  0.00     0.086 H 
ATOM      9  H9  6J3 d   1       3.418   8.186   2.829  0.00  0.00     0.083 H 
ATOM     10  H10 6J3 d   1       2.233   6.080   2.387  0.00  0.00     0.086 H 
ENDROOT
BRANCH   1  11
ATOM     11  N10 6J3 d   1       2.560   4.525   0.229  0.00  0.00    -0.340 N 
ATOM     12  H4  6J3 d   1       3.148   3.692   0.374  0.00  0.00     0.167 HD
BRANCH  11  13
ATOM     13  C09 6J3 d   1       1.298   4.263  -0.168  0.00  0.00     0.144 A 
ATOM     14  C04 6J3 d   1       0.855   2.896  -0.228  0.00  0.00     0.086 A 
ATOM     15  C05 6J3 d   1      -0.447   2.638  -0.641  0.00  0.00    -0.061 A 
ATOM     16  C06 6J3 d   1      -1.291   3.710  -0.994  0.00  0.00    -0.065 A 
ATOM     17  H1  6J3 d   1      -0.811   1.618  -0.691  0.00  0.00     0.085 H 
ATOM     18  C07 6J3 d   1      -0.768   5.016  -0.903  0.00  0.00     0.004 A 
ATOM     19  H2  6J3 d   1      -2.309   3.536  -1.325  0.00  0.00     0.085 H 
ATOM     20  N08 6J3 d   1       0.501   5.301  -0.504  0.00  0.00    -0.242 NA
ATOM     21  H3  6J3 d   1      -1.417   5.843  -1.167  0.00  0.00     0.114 H 
BRANCH  14  22
ATOM     22  C02 6J3 d   1       1.748   1.753   0.142  0.00  0.00     0.213 C 
ATOM     23  O01 6J3 d   1       1.244   0.555   0.173  0.00  0.00    -0.644 OA
ATOM     24  O03 6J3 d   1       2.923   1.998   0.398  0.00  0.00    -0.644 OA
ENDBRANCH  14  22
ENDBRANCH  11  13
ENDBRANCH   1  11
BRANCH   2  25
ATOM     25  C13 6J3 d   1       4.429   5.419  -1.736  0.00  0.00    -0.048 C 
ATOM     26  H5  6J3 d   1       3.815   4.507  -1.771  0.00  0.00     0.033 H 
ATOM     27  H6  6J3 d   1       5.494   5.145  -1.762  0.00  0.00     0.033 H 
ATOM     28  H7  6J3 d   1       4.192   6.054  -2.602  0.00  0.00     0.033 H 
ENDBRANCH   2  25
TORSDOF 4
