REMARK  3 active torsions:
REMARK  status: ('A' for Active; 'I' for Inactive)
REMARK    1  A    between atoms: C02_2  and  C04_4 
REMARK    2  A    between atoms: C04_4  and  O05_5 
REMARK    3  A    between atoms: O05_5  and  C06_6 
ROOT
ATOM      1  C06 F52 d   1     -14.187  -2.950 -37.724  0.00  0.00     0.092 A 
ATOM      2  C07 F52 d   1     -14.235  -2.418 -38.999  0.00  0.00    -0.026 A 
ATOM      3  C08 F52 d   1     -13.174  -2.579 -39.870  0.00  0.00     0.058 A 
ATOM      4 CL1  F52 d   1     -13.287  -1.890 -41.459  0.00  0.00    -0.082 Cl
ATOM      5  C10 F52 d   1     -12.036  -3.282 -39.477  0.00  0.00     0.057 A 
ATOM      6 CL2  F52 d   1     -10.697  -3.495 -40.556  0.00  0.00    -0.082 Cl
ATOM      7  C12 F52 d   1     -11.966  -3.831 -38.188  0.00  0.00    -0.036 A 
ATOM      8  C13 F52 d   1     -13.055  -3.653 -37.323  0.00  0.00     0.069 A 
ATOM      9 CL3  F52 d   1     -12.982  -4.326 -35.726  0.00  0.00    -0.081 Cl
ATOM     10  H3  F52 d   1     -15.113  -1.869 -39.319  0.00  0.00     0.090 H 
ATOM     11  H4  F52 d   1     -11.089  -4.381 -37.867  0.00  0.00     0.088 H 
ENDROOT
BRANCH   1  12
ATOM     12  O05 F52 d   1     -15.209  -2.825 -36.807  0.00  0.00    -0.339 OA
BRANCH  12  13
ATOM     13  C04 F52 d   1     -16.300  -3.728 -36.927  0.00  0.00     0.106 C 
ATOM     14  H1  F52 d   1     -15.943  -4.751 -36.736  0.00  0.00     0.091 H 
ATOM     15  H2  F52 d   1     -17.069  -3.464 -36.186  0.00  0.00     0.091 H 
BRANCH  13  16
ATOM     16  C02 F52 d   1     -16.902  -3.666 -38.303  0.00  0.00     0.198 C 
ATOM     17  O01 F52 d   1     -18.060  -3.085 -38.405  0.00  0.00    -0.646 OA
ATOM     18  O03 F52 d   1     -16.307  -4.150 -39.272  0.00  0.00    -0.646 OA
ENDBRANCH  13  16
ENDBRANCH  12  13
ENDBRANCH   1  12
TORSDOF 3
