REMARK  7 active torsions:
REMARK  status: ('A' for Active; 'I' for Inactive)
REMARK    1  A    between atoms: C13_1  and  C16_2 
REMARK    2  A    between atoms: C13_1  and  C10_4 
REMARK    3  A    between atoms: C16_2  and  C19_3 
REMARK    4  A    between atoms: C19_3  and  C22_5 
REMARK    5  A    between atoms: C10_4  and  C02_7 
REMARK    6  A    between atoms: C02_7  and  C04_9 
REMARK    7  A    between atoms: C04_9  and  C07_12 
ROOT
ATOM      1  C13 8PF d   1      13.838  -3.303  38.528  0.00  0.00     0.384 C 
ATOM      2  F14 8PF d   1      13.905  -4.484  39.154  0.00  0.00    -0.192 F 
ATOM      3  F15 8PF d   1      13.576  -3.493  37.228  0.00  0.00    -0.192 F 
ENDROOT
BRANCH   1   4
ATOM      4  C16 8PF d   1      12.717  -2.490  39.138  0.00  0.00     0.387 C 
ATOM      5  F17 8PF d   1      12.846  -1.204  38.786  0.00  0.00    -0.192 F 
ATOM      6  F18 8PF d   1      12.750  -2.601  40.472  0.00  0.00    -0.192 F 
BRANCH   4   7
ATOM      7  C19 8PF d   1      11.382  -3.019  38.662  0.00  0.00     0.409 C 
ATOM      8  F20 8PF d   1      10.433  -2.551  39.482  0.00  0.00    -0.189 F 
ATOM      9  F21 8PF d   1      11.403  -4.354  38.766  0.00  0.00    -0.189 F 
BRANCH   7  10
ATOM     10  C22 8PF d   1      10.994  -2.665  37.244  0.00  0.00     0.461 C 
ATOM     11  F23 8PF d   1       9.818  -3.232  36.947  0.00  0.00    -0.165 F 
ATOM     12  F24 8PF d   1      11.932  -3.113  36.399  0.00  0.00    -0.165 F 
ATOM     13  F25 8PF d   1      10.889  -1.335  37.129  0.00  0.00    -0.165 F 
ENDBRANCH   7  10
ENDBRANCH   4   7
ENDBRANCH   1   4
BRANCH   1  14
ATOM     14  C10 8PF d   1      15.150  -2.565  38.684  0.00  0.00     0.385 C 
ATOM     15  F11 8PF d   1      15.218  -1.568  37.793  0.00  0.00    -0.192 F 
ATOM     16  F12 8PF d   1      15.224  -2.026  39.907  0.00  0.00    -0.192 F 
BRANCH  14  17
ATOM     17  C02 8PF d   1      16.304  -3.520  38.473  0.00  0.00     0.389 C 
ATOM     18  F01 8PF d   1      16.346  -4.364  39.512  0.00  0.00    -0.192 F 
ATOM     19  F03 8PF d   1      16.065  -4.229  37.362  0.00  0.00    -0.192 F 
BRANCH  17  20
ATOM     20  C04 8PF d   1      17.663  -2.868  38.336  0.00  0.00     0.399 C 
ATOM     21  F05 8PF d   1      17.799  -1.899  39.251  0.00  0.00    -0.187 F 
ATOM     22  F06 8PF d   1      17.772  -2.287  37.134  0.00  0.00    -0.187 F 
BRANCH  20  23
ATOM     23  C07 8PF d   1      18.775  -3.922  38.515  0.00  0.00     0.255 C 
ATOM     24  O08 8PF d   1      19.691  -3.589  39.312  0.00  0.00    -0.643 OA
ATOM     25  O09 8PF d   1      18.768  -5.027  37.912  0.00  0.00    -0.643 OA
ENDBRANCH  20  23
ENDBRANCH  17  20
ENDBRANCH  14  17
ENDBRANCH   1  14
TORSDOF 7
