REMARK  6 active torsions:
REMARK  status: ('A' for Active; 'I' for Inactive)
REMARK    1  A    between atoms: S1_13  and  C5_5 
REMARK    2  A    between atoms: C6_6  and  S1_13 
REMARK    3  A    between atoms: C7_14  and  C6_6 
REMARK    4  A    between atoms: S_9  and  N_11 
REMARK    5  A    between atoms: C_12  and  S_9 
REMARK    6  A    between atoms: C8_15  and  C7_14 
ROOT
ATOM      1  C6  F6W d   1      -2.285   5.687  13.517  0.00  0.00    -0.015 C 
ATOM      2  H5  F6W d   1      -1.941   6.034  12.531  0.00  0.00     0.049 H 
ATOM      3  H6  F6W d   1      -1.949   4.652  13.679  0.00  0.00     0.049 H 
ENDROOT
BRANCH   1   4
ATOM      4  S1  F6W d   1      -4.029   5.764  13.598  0.00  0.00    -0.130 SA
BRANCH   4   5
ATOM      5  C5  F6W d   1      -4.590   4.455  14.509  0.00  0.00     0.000 A 
ATOM      6  C2  F6W d   1      -3.706   3.414  14.793  0.00  0.00    -0.065 A 
ATOM      7  C1  F6W d   1      -4.133   2.296  15.524  0.00  0.00    -0.059 A 
ATOM      8  H2  F6W d   1      -2.681   3.470  14.446  0.00  0.00     0.085 H 
ATOM      9  C   F6W d   1      -5.442   2.179  15.990  0.00  0.00     0.079 A 
ATOM     10  H1  F6W d   1      -3.426   1.501  15.732  0.00  0.00     0.086 H 
ATOM     11  C3  F6W d   1      -6.311   3.238  15.662  0.00  0.00    -0.059 A 
ATOM     12  C4  F6W d   1      -5.902   4.369  14.942  0.00  0.00    -0.065 A 
ATOM     13  H3  F6W d   1      -7.345   3.175  15.982  0.00  0.00     0.086 H 
ATOM     14  H4  F6W d   1      -6.604   5.166  14.727  0.00  0.00     0.085 H 
BRANCH   9  15
ATOM     15  S   F6W d   1      -5.945   0.853  16.790  0.00  0.00     0.256 S 
ATOM     16  O1  F6W d   1      -7.364   0.821  16.742  0.00  0.00    -0.201 OA
ATOM     17  O   F6W d   1      -5.466   0.905  18.135  0.00  0.00    -0.201 OA
BRANCH  15  18
ATOM     18  N   F6W d   1      -5.404  -0.529  16.092  0.00  0.00    -0.324 N 
ATOM     19  H8  F6W d   1      -5.642  -0.737  15.143  0.00  0.00     0.169 HD
ATOM     20  H9  F6W d   1      -4.836  -1.164  16.615  0.00  0.00     0.169 HD
ENDBRANCH  15  18
ENDBRANCH   9  15
ENDBRANCH   4   5
ENDBRANCH   1   4
BRANCH   1  21
ATOM     21  C7  F6W d   1      -1.724   6.588  14.606  0.00  0.00    -0.033 C 
ATOM     22  H10 F6W d   1      -0.722   6.236  14.891  0.00  0.00     0.041 H 
ATOM     23  H11 F6W d   1      -2.387   6.556  15.483  0.00  0.00     0.041 H 
BRANCH  21  24
ATOM     24  C8  F6W d   1      -1.632   7.992  14.105  0.00  0.00    -0.057 A 
ATOM     25  C13 F6W d   1      -1.990   8.280  12.793  0.00  0.00    -0.077 A 
ATOM     26  C12 F6W d   1      -1.920   9.603  12.375  0.00  0.00    -0.082 A 
ATOM     27  H12 F6W d   1      -2.314   7.497  12.117  0.00  0.00     0.084 H 
ATOM     28  C11 F6W d   1      -1.485  10.606  13.236  0.00  0.00    -0.083 A 
ATOM     29  H13 F6W d   1      -2.209   9.858  11.362  0.00  0.00     0.083 H 
ATOM     30  C10 F6W d   1      -1.129  10.301  14.541  0.00  0.00    -0.082 A 
ATOM     31  H7  F6W d   1      -1.424  11.630  12.885  0.00  0.00     0.083 H 
ATOM     32  C9  F6W d   1      -1.200   8.989  14.978  0.00  0.00    -0.077 A 
ATOM     33  H14 F6W d   1      -0.798  11.084  15.214  0.00  0.00     0.083 H 
ATOM     34  H15 F6W d   1      -0.921   8.738  15.995  0.00  0.00     0.084 H 
ENDBRANCH  21  24
ENDBRANCH   1  21
TORSDOF 6
