REMARK  3 active torsions:
REMARK  status: ('A' for Active; 'I' for Inactive)
REMARK    1  A    between atoms: C1'_5  and  C6'_6 
REMARK    2  A    between atoms: C2_14  and  O11_15 
REMARK    3  A    between atoms: O11_15  and  C12_16 
ROOT
ATOM      1  C6' SU9 d   1      -6.847 -23.098  23.628  0.00  0.00    -0.038 C 
ATOM      2  C9  SU9 d   1      -8.121 -22.592  23.426  0.00  0.00     0.047 A 
ATOM      3  C8  SU9 d   1      -9.432 -22.891  24.090  0.00  0.00     0.257 A 
ATOM      4  O10 SU9 d   1      -9.683 -23.725  24.979  0.00  0.00    -0.267 OA
ATOM      5  N7  SU9 d   1     -10.371 -22.130  23.458  0.00  0.00    -0.322 N 
ATOM      6  C5  SU9 d   1      -9.794 -21.289  22.498  0.00  0.00     0.046 A 
ATOM      7  C6  SU9 d   1     -10.397 -20.368  21.664  0.00  0.00    -0.054 A 
ATOM      8  C1  SU9 d   1      -9.593 -19.719  20.728  0.00  0.00    -0.049 A 
ATOM      9  C2  SU9 d   1      -8.226 -19.956  20.650  0.00  0.00     0.069 A 
ATOM     10  C3  SU9 d   1      -7.631 -20.901  21.483  0.00  0.00    -0.038 A 
ATOM     11  C4  SU9 d   1      -8.421 -21.561  22.414  0.00  0.00     0.009 A 
ATOM     12  H4  SU9 d   1      -6.025 -22.562  23.156  0.00  0.00     0.088 H 
ATOM     13  H5  SU9 d   1     -11.351 -22.168  23.656  0.00  0.00     0.169 HD
ATOM     14  H6  SU9 d   1     -11.458 -20.157  21.735  0.00  0.00     0.087 H 
ATOM     15  H7  SU9 d   1     -10.046 -19.011  20.043  0.00  0.00     0.087 H 
ATOM     16  H11 SU9 d   1      -6.572 -21.117  21.405  0.00  0.00     0.089 H 
ENDROOT
BRANCH   1  17
ATOM     17  C1' SU9 d   1      -6.517 -24.222  24.374  0.00  0.00     0.074 C 
ATOM     18  N5' SU9 d   1      -7.276 -24.917  25.283  0.00  0.00    -0.243 NA
ATOM     19  C4' SU9 d   1      -6.578 -25.921  25.795  0.00  0.00     0.064 C 
ATOM     20  N3' SU9 d   1      -5.415 -25.964  25.160  0.00  0.00    -0.358 N 
ATOM     21  H1  SU9 d   1      -6.901 -26.589  26.592  0.00  0.00     0.143 H 
ATOM     22  C2' SU9 d   1      -5.302 -24.858  24.361  0.00  0.00     0.006 C 
ATOM     23  H2  SU9 d   1      -4.710 -26.709  25.253  0.00  0.00     0.166 HD
ATOM     24  H3  SU9 d   1      -4.413 -24.542  23.817  0.00  0.00     0.115 H 
ENDBRANCH   1  17
BRANCH   9  25
ATOM     25  O11 SU9 d   1      -7.534 -19.205  19.731  0.00  0.00    -0.356 OA
BRANCH  25  26
ATOM     26  C12 SU9 d   1      -6.137 -19.434  19.605  0.00  0.00     0.010 C 
ATOM     27  H8  SU9 d   1      -5.723 -18.764  18.837  0.00  0.00     0.066 H 
ATOM     28  H9  SU9 d   1      -5.962 -20.480  19.312  0.00  0.00     0.066 H 
ATOM     29  H10 SU9 d   1      -5.644 -19.235  20.568  0.00  0.00     0.066 H 
ENDBRANCH  25  26
ENDBRANCH   9  25
TORSDOF 3
