REMARK  9 active torsions:
REMARK  status: ('A' for Active; 'I' for Inactive)
REMARK    1  A    between atoms: C5_3  and  C4_1 
REMARK    2  A    between atoms: N3_15  and  C8_7 
REMARK    3  A    between atoms: C9_8  and  N3_15 
REMARK    4  A    between atoms: C12_10  and  S1_18 
REMARK    5  A    between atoms: S1_18  and  C13_11 
REMARK    6  A    between atoms: C2_17  and  C1_16 
REMARK    7  A    between atoms: N5_23  and  C16_24 
REMARK    8  A    between atoms: C16_24  and  C17_25 
REMARK    9  A    between atoms: C16_24  and  C18_26 
ROOT
ATOM      1  C5  FB8 d   1      -8.601 -20.660  22.156  0.00  0.00     0.105 A 
ATOM      2  C6  FB8 d   1      -9.976 -20.631  22.314  0.00  0.00    -0.035 A 
ATOM      3  C7  FB8 d   1     -10.529 -21.503  23.218  0.00  0.00     0.023 A 
ATOM      4  C8  FB8 d   1      -8.473 -22.344  23.704  0.00  0.00     0.727 A 
ATOM      5  N2  FB8 d   1      -9.812 -22.397  23.893  0.00  0.00    -0.075 NA
ATOM      6  N4  FB8 d   1      -7.831 -21.518  22.869  0.00  0.00    -0.061 NA
ATOM      7  H2  FB8 d   1     -10.593 -19.945  21.745  0.00  0.00     0.089 H 
ATOM      8  H4  FB8 d   1     -11.598 -21.461  23.390  0.00  0.00     0.115 H 
ENDROOT
BRANCH   1   9
ATOM      9  C4  FB8 d   1      -7.956 -19.705  21.248  0.00  0.00     0.083 C 
ATOM     10  C3  FB8 d   1      -8.484 -18.496  20.893  0.00  0.00     0.032 C 
ATOM     11  N1  FB8 d   1      -7.624 -17.947  20.007  0.00  0.00    -0.245 NA
ATOM     12  H9  FB8 d   1      -9.415 -18.060  21.253  0.00  0.00     0.118 H 
ATOM     13  C2  FB8 d   1      -6.492 -18.640  19.987  0.00  0.00     0.102 C 
ATOM     14  N5  FB8 d   1      -6.700 -19.806  20.613  0.00  0.00    -0.328 N 
BRANCH  13  15
ATOM     15  C1  FB8 d   1      -5.267 -18.194  19.287  0.00  0.00    -0.021 C 
ATOM     16  H11 FB8 d   1      -5.424 -17.184  18.880  0.00  0.00     0.037 H 
ATOM     17  H12 FB8 d   1      -5.041 -18.889  18.465  0.00  0.00     0.037 H 
ATOM     18  H13 FB8 d   1      -4.426 -18.177  19.995  0.00  0.00     0.037 H 
ENDBRANCH  13  15
BRANCH  14  19
ATOM     19  C16 FB8 d   1      -5.831 -21.006  20.619  0.00  0.00     0.011 C 
ATOM     20  H15 FB8 d   1      -6.351 -21.779  21.203  0.00  0.00     0.072 H 
BRANCH  19  21
ATOM     21  C17 FB8 d   1      -4.512 -20.740  21.333  0.00  0.00    -0.057 C 
ATOM     22  H16 FB8 d   1      -3.896 -21.651  21.317  0.00  0.00     0.030 H 
ATOM     23  H17 FB8 d   1      -4.711 -20.451  22.375  0.00  0.00     0.030 H 
ATOM     24  H18 FB8 d   1      -3.976 -19.926  20.822  0.00  0.00     0.030 H 
ENDBRANCH  19  21
BRANCH  19  25
ATOM     25  C18 FB8 d   1      -5.671 -21.554  19.221  0.00  0.00    -0.057 C 
ATOM     26  H19 FB8 d   1      -5.024 -22.443  19.247  0.00  0.00     0.030 H 
ATOM     27  H20 FB8 d   1      -5.215 -20.788  18.577  0.00  0.00     0.030 H 
ATOM     28  H21 FB8 d   1      -6.657 -21.831  18.820  0.00  0.00     0.030 H 
ENDBRANCH  19  25
ENDBRANCH  14  19
ENDBRANCH   1   9
BRANCH   4  29
ATOM     29  N3  FB8 d   1      -7.882 -23.254  24.500  0.00  0.00    -0.188 N 
ATOM     30  H10 FB8 d   1      -8.479 -23.613  25.259  0.00  0.00     0.184 HD
BRANCH  29  31
ATOM     31  C9  FB8 d   1      -6.588 -23.795  24.468  0.00  0.00     0.049 A 
ATOM     32  C10 FB8 d   1      -6.165 -24.642  25.495  0.00  0.00    -0.055 A 
ATOM     33  C11 FB8 d   1      -4.921 -25.244  25.442  0.00  0.00    -0.060 A 
ATOM     34  H5  FB8 d   1      -6.817 -24.829  26.340  0.00  0.00     0.087 H 
ATOM     35  C12 FB8 d   1      -4.113 -25.002  24.354  0.00  0.00     0.059 A 
ATOM     36  H3  FB8 d   1      -4.588 -25.895  26.243  0.00  0.00     0.085 H 
ATOM     37  C14 FB8 d   1      -4.510 -24.155  23.343  0.00  0.00    -0.060 A 
ATOM     38  C15 FB8 d   1      -5.748 -23.565  23.393  0.00  0.00    -0.055 A 
ATOM     39  H1  FB8 d   1      -3.846 -23.955  22.510  0.00  0.00     0.085 H 
ATOM     40  H14 FB8 d   1      -6.069 -22.916  22.587  0.00  0.00     0.087 H 
BRANCH  35  41
ATOM     41  S1  FB8 d   1      -2.516 -25.733  24.312  0.00  0.00     0.171 S 
ATOM     42  O1  FB8 d   1      -1.972 -25.584  25.633  0.00  0.00    -0.223 OA
ATOM     43  O2  FB8 d   1      -2.652 -27.063  23.796  0.00  0.00    -0.223 OA
BRANCH  41  44
ATOM     44  C13 FB8 d   1      -1.515 -24.772  23.252  0.00  0.00     0.020 C 
ATOM     45  H6  FB8 d   1      -0.506 -25.207  23.206  0.00  0.00     0.049 H 
ATOM     46  H7  FB8 d   1      -1.454 -23.744  23.638  0.00  0.00     0.049 H 
ATOM     47  H8  FB8 d   1      -1.955 -24.759  22.244  0.00  0.00     0.049 H 
ENDBRANCH  41  44
ENDBRANCH  35  41
ENDBRANCH  29  31
ENDBRANCH   4  29
TORSDOF 9
