REMARK  9 active torsions:
REMARK  status: ('A' for Active; 'I' for Inactive)
REMARK    1  A    between atoms: C5_3  and  C4_1 
REMARK    2  A    between atoms: N3_15  and  C8_7 
REMARK    3  A    between atoms: C9_8  and  N3_15 
REMARK    4  A    between atoms: C12_10  and  S1_18 
REMARK    5  A    between atoms: S1_18  and  C13_11 
REMARK    6  A    between atoms: C2_17  and  C1_16 
REMARK    7  A    between atoms: N5_23  and  C16_24 
REMARK    8  A    between atoms: C16_24  and  C17_25 
REMARK    9  A    between atoms: C16_24  and  C18_26 
ROOT
ATOM      1  C5  FB8 d   1      -0.545  -5.142 -27.529  0.00  0.00     0.105 A 
ATOM      2  C6  FB8 d   1      -0.579  -3.774 -27.802  0.00  0.00    -0.035 A 
ATOM      3  C7  FB8 d   1       0.472  -3.285 -28.553  0.00  0.00     0.023 A 
ATOM      4  C8  FB8 d   1       1.351  -5.373 -28.823  0.00  0.00     0.727 A 
ATOM      5  N2  FB8 d   1       1.394  -4.062 -29.127  0.00  0.00    -0.075 NA
ATOM      6  N4  FB8 d   1       0.417  -5.944 -28.027  0.00  0.00    -0.061 NA
ATOM      7  H2  FB8 d   1      -1.380  -3.135 -27.447  0.00  0.00     0.089 H 
ATOM      8  H4  FB8 d   1       0.553  -2.212 -28.684  0.00  0.00     0.115 H 
ENDROOT
BRANCH   1   9
ATOM      9  C4  FB8 d   1      -1.559  -5.725 -26.667  0.00  0.00     0.083 A 
ATOM     10  C3  FB8 d   1      -2.830  -5.268 -26.474  0.00  0.00     0.032 A 
ATOM     11  N1  FB8 d   1      -3.528  -6.089 -25.626  0.00  0.00    -0.245 NA
ATOM     12  H9  FB8 d   1      -3.237  -4.369 -26.933  0.00  0.00     0.118 H 
ATOM     13  C2  FB8 d   1      -2.681  -7.036 -25.261  0.00  0.00     0.102 A 
ATOM     14  N5  FB8 d   1      -1.461  -6.920 -25.908  0.00  0.00    -0.328 N 
BRANCH  13  15
ATOM     15  C1  FB8 d   1      -3.019  -8.149 -24.323  0.00  0.00    -0.021 C 
ATOM     16  H11 FB8 d   1      -4.043  -8.012 -23.945  0.00  0.00     0.037 H 
ATOM     17  H12 FB8 d   1      -2.313  -8.145 -23.480  0.00  0.00     0.037 H 
ATOM     18  H13 FB8 d   1      -2.950  -9.110 -24.854  0.00  0.00     0.037 H 
ENDBRANCH  13  15
BRANCH  14  19
ATOM     19  C16 FB8 d   1      -0.266  -7.703 -25.717  0.00  0.00     0.011 C 
ATOM     20  H15 FB8 d   1       0.547  -7.243 -26.297  0.00  0.00     0.072 H 
BRANCH  19  21
ATOM     21  C17 FB8 d   1       0.141  -7.611 -24.226  0.00  0.00    -0.057 C 
ATOM     22  H16 FB8 d   1       1.053  -8.203 -24.058  0.00  0.00     0.030 H 
ATOM     23  H17 FB8 d   1      -0.672  -8.005 -23.599  0.00  0.00     0.030 H 
ATOM     24  H18 FB8 d   1       0.332  -6.560 -23.962  0.00  0.00     0.030 H 
ENDBRANCH  19  21
BRANCH  19  25
ATOM     25  C18 FB8 d   1      -0.477  -9.069 -26.287  0.00  0.00    -0.057 C 
ATOM     26  H19 FB8 d   1       0.433  -9.671 -26.144  0.00  0.00     0.030 H 
ATOM     27  H20 FB8 d   1      -0.697  -8.988 -27.362  0.00  0.00     0.030 H 
ATOM     28  H21 FB8 d   1      -1.321  -9.553 -25.775  0.00  0.00     0.030 H 
ENDBRANCH  19  25
ENDBRANCH  14  19
ENDBRANCH   1   9
BRANCH   4  29
ATOM     29  N3  FB8 d   1       2.373  -6.014 -29.426  0.00  0.00    -0.188 N 
ATOM     30  H10 FB8 d   1       2.761  -5.534 -30.250  0.00  0.00     0.184 HD
BRANCH  29  31
ATOM     31  C9  FB8 d   1       2.990  -7.234 -29.105  0.00  0.00     0.049 A 
ATOM     32  C10 FB8 d   1       3.975  -7.701 -29.961  0.00  0.00    -0.055 A 
ATOM     33  C11 FB8 d   1       4.625  -8.888 -29.714  0.00  0.00    -0.060 A 
ATOM     34  H5  FB8 d   1       4.237  -7.122 -30.839  0.00  0.00     0.087 H 
ATOM     35  C12 FB8 d   1       4.387  -9.551 -28.538  0.00  0.00     0.059 A 
ATOM     36  H3  FB8 d   1       5.318  -9.295 -30.442  0.00  0.00     0.085 H 
ATOM     37  C14 FB8 d   1       3.452  -9.092 -27.643  0.00  0.00    -0.060 A 
ATOM     38  C15 FB8 d   1       2.746  -7.943 -27.922  0.00  0.00    -0.055 A 
ATOM     39  H1  FB8 d   1       3.270  -9.632 -26.721  0.00  0.00     0.085 H 
ATOM     40  H14 FB8 d   1       1.998  -7.586 -27.223  0.00  0.00     0.087 H 
BRANCH  35  41
ATOM     41  S1  FB8 d   1       5.305 -11.009 -28.180  0.00  0.00     0.171 S 
ATOM     42  O1  FB8 d   1       6.439 -10.582 -27.388  0.00  0.00    -0.223 OA
ATOM     43  O2  FB8 d   1       4.356 -11.955 -27.667  0.00  0.00    -0.223 OA
BRANCH  41  44
ATOM     44  C13 FB8 d   1       5.992 -11.533 -29.691  0.00  0.00     0.020 C 
ATOM     45  H6  FB8 d   1       6.581 -12.447 -29.528  0.00  0.00     0.049 H 
ATOM     46  H7  FB8 d   1       6.644 -10.743 -30.091  0.00  0.00     0.049 H 
ATOM     47  H8  FB8 d   1       5.185 -11.740 -30.409  0.00  0.00     0.049 H 
ENDBRANCH  41  44
ENDBRANCH  35  41
ENDBRANCH  29  31
ENDBRANCH   4  29
TORSDOF 9
