REMARK  6 active torsions:
REMARK  status: ('A' for Active; 'I' for Inactive)
REMARK    1  A    between atoms: C5_3  and  N3_15 
REMARK    2  A    between atoms: N3_15  and  C6_4 
REMARK    3  A    between atoms: N5_20  and  C13_11 
REMARK    4  A    between atoms: N1_12  and  C2_17 
REMARK    5  A    between atoms: C2_17  and  C1_16 
REMARK    6  A    between atoms: C18_24  and  N6_25 
ROOT
ATOM      1  C4  FC8 d   1      12.056  10.318 -13.040  0.00  0.00     0.151 A 
ATOM      2  C5  FC8 d   1      11.329  10.493 -11.846  0.00  0.00     0.180 A 
ATOM      3  C12 FC8 d   1      12.828   9.031 -10.819  0.00  0.00     0.726 A 
ATOM      4  N1  FC8 d   1      13.714   9.466 -14.229  0.00  0.00    -0.324 N 
ATOM      5  N2  FC8 d   1      11.883  10.807 -14.330  0.00  0.00    -0.236 NA
ATOM      6  C3  FC8 d   1      12.887  10.271 -15.000  0.00  0.00     0.068 A 
ATOM      7  N4  FC8 d   1      11.714   9.826 -10.737  0.00  0.00    -0.043 NA
ATOM      8  N5  FC8 d   1      13.177   8.404  -9.662  0.00  0.00    -0.216 N 
ATOM      9  N7  FC8 d   1      13.597   8.791 -11.900  0.00  0.00    -0.042 NA
ATOM     10  C19 FC8 d   1      13.145   9.459 -13.001  0.00  0.00     0.182 A 
ATOM     11  H8  FC8 d   1      13.051  10.445 -16.062  0.00  0.00     0.143 H 
ATOM     12  H15 FC8 d   1      13.880   7.651  -9.687  0.00  0.00     0.178 HD
ENDROOT
BRANCH   8  13
ATOM     13  C13 FC8 d   1      12.574   8.779  -8.389  0.00  0.00     0.053 C 
ATOM     14  C14 FC8 d   1      13.565   8.523  -7.250  0.00  0.00    -0.044 C 
ATOM     15  C15 FC8 d   1      12.928   8.923  -5.914  0.00  0.00    -0.063 C 
ATOM     16  H1  FC8 d   1      14.474   9.120  -7.415  0.00  0.00     0.036 H 
ATOM     17  H2  FC8 d   1      13.826   7.455  -7.226  0.00  0.00     0.036 H 
ATOM     18  C16 FC8 d   1      11.598   8.226  -5.684  0.00  0.00    -0.063 C 
ATOM     19  H16 FC8 d   1      12.764  10.011  -5.911  0.00  0.00     0.033 H 
ATOM     20  H17 FC8 d   1      13.615   8.654  -5.098  0.00  0.00     0.033 H 
ATOM     21  C17 FC8 d   1      10.636   8.452  -6.850  0.00  0.00    -0.037 C 
ATOM     22  H18 FC8 d   1      11.143   8.620  -4.764  0.00  0.00     0.033 H 
ATOM     23  H19 FC8 d   1      11.775   7.146  -5.572  0.00  0.00     0.033 H 
ATOM     24  C18 FC8 d   1      11.252   8.032  -8.183  0.00  0.00     0.120 C 
ATOM     25  H20 FC8 d   1      10.379   9.521  -6.897  0.00  0.00     0.036 H 
ATOM     26  H21 FC8 d   1       9.723   7.862  -6.678  0.00  0.00     0.036 H 
ATOM     27  H22 FC8 d   1      10.566   8.319  -8.993  0.00  0.00     0.087 H 
ATOM     28  H7  FC8 d   1      12.354   9.856  -8.413  0.00  0.00     0.076 H 
BRANCH  24  29
ATOM     29  N6  FC8 d   1      11.422   6.540  -8.226  0.00  0.00    -0.073 N 
ATOM     30  H23 FC8 d   1      11.829   6.274  -9.109  0.00  0.00     0.274 HD
ATOM     31  H24 FC8 d   1      10.523   6.096  -8.123  0.00  0.00     0.274 HD
ATOM     32  H25 FC8 d   1      12.028   6.249  -7.475  0.00  0.00     0.274 HD
ENDBRANCH  24  29
ENDBRANCH   8  13
BRANCH   2  33
ATOM     33  N3  FC8 d   1      10.228  11.291 -11.796  0.00  0.00    -0.338 N 
ATOM     34  H9  FC8 d   1      10.009  11.804 -12.662  0.00  0.00     0.167 HD
BRANCH  33  35
ATOM     35  C6  FC8 d   1       9.349  11.509 -10.721  0.00  0.00     0.035 A 
ATOM     36  C11 FC8 d   1       8.874  10.464  -9.932  0.00  0.00    -0.036 A 
ATOM     37  C10 FC8 d   1       8.004  10.774  -8.926  0.00  0.00     0.036 A 
ATOM     38  H3  FC8 d   1       9.184   9.441 -10.110  0.00  0.00     0.089 H 
ATOM     39  C9  FC8 d   1       7.660  12.059  -8.589  0.00  0.00    -0.062 A 
ATOM     40 CL1  FC8 d   1       7.360   9.448  -8.017  0.00  0.00    -0.084 Cl
ATOM     41  C8  FC8 d   1       8.158  13.081  -9.346  0.00  0.00    -0.079 A 
ATOM     42  H6  FC8 d   1       7.010  12.258  -7.744  0.00  0.00     0.086 H 
ATOM     43  C7  FC8 d   1       9.016  12.819 -10.404  0.00  0.00    -0.057 A 
ATOM     44  H5  FC8 d   1       7.881  14.104  -9.118  0.00  0.00     0.083 H 
ATOM     45  H4  FC8 d   1       9.427  13.638 -10.984  0.00  0.00     0.086 H 
ENDBRANCH  33  35
ENDBRANCH   2  33
BRANCH   4  46
ATOM     46  C2  FC8 d   1      14.879   8.689 -14.692  0.00  0.00    -0.001 C 
ATOM     47  H13 FC8 d   1      14.975   8.852 -15.776  0.00  0.00     0.064 H 
ATOM     48  H14 FC8 d   1      14.666   7.627 -14.498  0.00  0.00     0.064 H 
BRANCH  46  49
ATOM     49  C1  FC8 d   1      16.218   9.006 -14.064  0.00  0.00    -0.061 C 
ATOM     50  H10 FC8 d   1      16.991   8.356 -14.500  0.00  0.00     0.029 H 
ATOM     51  H11 FC8 d   1      16.164   8.834 -12.979  0.00  0.00     0.029 H 
ATOM     52  H12 FC8 d   1      16.473  10.059 -14.256  0.00  0.00     0.029 H 
ENDBRANCH  46  49
ENDBRANCH   4  46
TORSDOF 6
