REMARK  6 active torsions:
REMARK  status: ('A' for Active; 'I' for Inactive)
REMARK    1  A    between atoms: C10_6  and  C4_1 
REMARK    2  A    between atoms: C7_3  and  N20_20 
REMARK    3  A    between atoms: C12_7  and  N21_21 
REMARK    4  A    between atoms: N3_8  and  C17_17 
REMARK    5  A    between atoms: C17_17  and  C22_22 
REMARK    6  A    between atoms: C17_17  and  C23_23 
ROOT
ATOM      1  C4  FE5 d   1     -17.165 147.359  28.887  0.00  0.00     0.105 A 
ATOM      2  C5  FE5 d   1     -16.540 148.494  29.485  0.00  0.00     0.088 A 
ATOM      3  N2  FE5 d   1     -18.481 147.439  29.006  0.00  0.00    -0.169 NA
ATOM      4  C12 FE5 d   1     -15.244 149.020  29.706  0.00  0.00     0.139 A 
ATOM      5  N3  FE5 d   1     -18.751 148.603  29.670  0.00  0.00    -0.247 N 
ATOM      6  C1  FE5 d   1     -17.610 149.269  29.977  0.00  0.00     0.164 A 
ATOM      7  N11 FE5 d   1     -17.511 150.440  30.623  0.00  0.00    -0.222 NA
ATOM      8  N14 FE5 d   1     -15.125 150.201  30.357  0.00  0.00    -0.224 NA
ATOM      9  C16 FE5 d   1     -16.238 150.824  30.766  0.00  0.00     0.091 A 
ATOM     10  H2  FE5 d   1     -16.087 151.765  31.282  0.00  0.00     0.146 H 
ENDROOT
BRANCH   1  11
ATOM     11  C10 FE5 d   1     -16.601 146.172  28.195  0.00  0.00    -0.002 A 
ATOM     12  C15 FE5 d   1     -15.750 146.363  27.105  0.00  0.00    -0.040 A 
ATOM     13  C8  FE5 d   1     -15.230 145.239  26.466  0.00  0.00     0.096 A 
ATOM     14  H1  FE5 d   1     -15.500 147.361  26.764  0.00  0.00     0.088 H 
ATOM     15  C13 FE5 d   1     -15.564 143.982  26.921  0.00  0.00     0.108 A 
ATOM     16  N6  FE5 d   1     -14.371 145.121  25.373  0.00  0.00    -0.206 NA
ATOM     17  O9  FE5 d   1     -14.923 143.057  26.123  0.00  0.00    -0.276 OA
ATOM     18  C19 FE5 d   1     -16.402 143.762  27.995  0.00  0.00    -0.047 A 
ATOM     19  C7  FE5 d   1     -14.232 143.823  25.225  0.00  0.00     0.245 A 
ATOM     20  C18 FE5 d   1     -16.920 144.880  28.631  0.00  0.00    -0.068 A 
ATOM     21  H5  FE5 d   1     -16.645 142.759  28.327  0.00  0.00     0.087 H 
ATOM     22  H4  FE5 d   1     -17.582 144.752  29.479  0.00  0.00     0.085 H 
BRANCH  19  23
ATOM     23  N20 FE5 d   1     -13.506 143.172  24.313  0.00  0.00    -0.363 N 
ATOM     24  H6  FE5 d   1     -12.966 143.700  23.613  0.00  0.00     0.159 HD
ATOM     25  H7  FE5 d   1     -13.486 142.142  24.310  0.00  0.00     0.159 HD
ENDBRANCH  19  23
ENDBRANCH   1  11
BRANCH   4  26
ATOM     26  N21 FE5 d   1     -14.124 148.406  29.301  0.00  0.00    -0.383 N 
ATOM     27  H8  FE5 d   1     -13.206 148.833  29.488  0.00  0.00     0.157 HD
ATOM     28  H9  FE5 d   1     -14.181 147.506  28.802  0.00  0.00     0.157 HD
ENDBRANCH   4  26
BRANCH   5  29
ATOM     29  C17 FE5 d   1     -20.178 148.915  29.924  0.00  0.00     0.029 C 
ATOM     30  H3  FE5 d   1     -20.283 149.999  30.080  0.00  0.00     0.074 H 
BRANCH  29  31
ATOM     31  C22 FE5 d   1     -20.652 148.191  31.177  0.00  0.00    -0.056 C 
ATOM     32  H10 FE5 d   1     -21.711 148.427  31.359  0.00  0.00     0.030 H 
ATOM     33  H11 FE5 d   1     -20.051 148.517  32.038  0.00  0.00     0.030 H 
ATOM     34  H12 FE5 d   1     -20.537 147.106  31.039  0.00  0.00     0.030 H 
ENDBRANCH  29  31
BRANCH  29  35
ATOM     35  C23 FE5 d   1     -21.021 148.508  28.723  0.00  0.00    -0.056 C 
ATOM     36  H13 FE5 d   1     -22.077 148.743  28.920  0.00  0.00     0.030 H 
ATOM     37  H14 FE5 d   1     -20.912 147.428  28.548  0.00  0.00     0.030 H 
ATOM     38  H15 FE5 d   1     -20.683 149.060  27.834  0.00  0.00     0.030 H 
ENDBRANCH  29  35
ENDBRANCH   5  29
TORSDOF 6
