REMARK  11 active torsions:
REMARK  status: ('A' for Active; 'I' for Inactive)
REMARK    1  A    between atoms: C3_3  and  O3_4 
REMARK    2  A    between atoms: C7_8  and  O7_9 
REMARK    3  A    between atoms: C10_12  and  C19_21 
REMARK    4  A    between atoms: C13_15  and  C18_20 
REMARK    5  A    between atoms: C17_19  and  C20_22 
REMARK    6  A    between atoms: C20_22  and  C21_23 
REMARK    7  A    between atoms: C20_22  and  C22_24 
REMARK    8  A    between atoms: C22_24  and  C23_25 
REMARK    9  A    between atoms: C23_25  and  C24_26 
REMARK       I    between atoms: C24_26  and  N25_28 
REMARK   10  A    between atoms: N25_28  and  C26_29 
REMARK   11  A    between atoms: C26_29  and  C27_30 
ROOT
ATOM      1  C1  CHO d   1      -9.586 -53.924  16.226  0.00  0.00    -0.055 C 
ATOM      2  C2  CHO d   1     -10.013 -55.290  15.678  0.00  0.00    -0.040 C 
ATOM      3  C3  CHO d   1      -9.045 -55.771  14.611  0.00  0.00     0.036 C 
ATOM      4  C4  CHO d   1      -8.995 -54.728  13.516  0.00  0.00    -0.037 C 
ATOM      5  C5  CHO d   1      -8.599 -53.333  14.011  0.00  0.00    -0.042 C 
ATOM      6  C6  CHO d   1      -8.500 -52.329  12.855  0.00  0.00    -0.037 C 
ATOM      7  C7  CHO d   1      -9.840 -51.839  12.312  0.00  0.00     0.040 C 
ATOM      8  C8  CHO d   1     -10.789 -51.386  13.433  0.00  0.00    -0.021 C 
ATOM      9  C9  CHO d   1     -10.895 -52.427  14.563  0.00  0.00    -0.041 C 
ATOM     10  C10 CHO d   1      -9.499 -52.811  15.163  0.00  0.00    -0.036 C 
ATOM     11  C11 CHO d   1     -11.944 -52.006  15.606  0.00  0.00    -0.060 C 
ATOM     12  C12 CHO d   1     -13.272 -51.492  15.049  0.00  0.00    -0.057 C 
ATOM     13  C13 CHO d   1     -13.117 -50.405  13.973  0.00  0.00    -0.036 C 
ATOM     14  C14 CHO d   1     -12.186 -51.008  12.928  0.00  0.00    -0.041 C 
ATOM     15  C15 CHO d   1     -12.327 -50.041  11.733  0.00  0.00    -0.060 C 
ATOM     16  C16 CHO d   1     -13.796 -49.574  11.777  0.00  0.00    -0.060 C 
ATOM     17  C17 CHO d   1     -14.377 -50.058  13.116  0.00  0.00    -0.044 C 
ATOM     18  H1  CHO d   1      -8.595 -54.034  16.691  0.00  0.00     0.034 H 
ATOM     19  H2  CHO d   1     -10.316 -53.615  16.988  0.00  0.00     0.034 H 
ATOM     20  H3  CHO d   1     -11.018 -55.204  15.240  0.00  0.00     0.036 H 
ATOM     21  H4  CHO d   1     -10.033 -56.019  16.502  0.00  0.00     0.036 H 
ATOM     22  H5  CHO d   1      -8.041 -55.870  15.050  0.00  0.00     0.082 H 
ATOM     23  H7  CHO d   1      -9.991 -54.662  13.053  0.00  0.00     0.037 H 
ATOM     24  H8  CHO d   1      -8.261 -55.050  12.763  0.00  0.00     0.037 H 
ATOM     25  H9  CHO d   1      -7.587 -53.429  14.431  0.00  0.00     0.041 H 
ATOM     26  H10 CHO d   1      -7.953 -52.810  12.031  0.00  0.00     0.037 H 
ATOM     27  H11 CHO d   1      -7.935 -51.455  13.210  0.00  0.00     0.037 H 
ATOM     28  H12 CHO d   1      -9.648 -50.969  11.666  0.00  0.00     0.083 H 
ATOM     29  H14 CHO d   1     -10.348 -50.477  13.869  0.00  0.00     0.045 H 
ATOM     30  H15 CHO d   1     -11.282 -53.347  14.100  0.00  0.00     0.042 H 
ATOM     31  H16 CHO d   1     -11.505 -51.207  16.222  0.00  0.00     0.033 H 
ATOM     32  H17 CHO d   1     -12.160 -52.880  16.238  0.00  0.00     0.033 H 
ATOM     33  H18 CHO d   1     -13.858 -51.075  15.881  0.00  0.00     0.034 H 
ATOM     34  H19 CHO d   1     -13.815 -52.341  14.608  0.00  0.00     0.034 H 
ATOM     35  H20 CHO d   1     -12.626 -51.965  12.609  0.00  0.00     0.042 H 
ATOM     36  H21 CHO d   1     -12.113 -50.560  10.787  0.00  0.00     0.033 H 
ATOM     37  H22 CHO d   1     -11.645 -49.185  11.844  0.00  0.00     0.033 H 
ATOM     38  H23 CHO d   1     -14.358 -50.013  10.940  0.00  0.00     0.033 H 
ATOM     39  H24 CHO d   1     -13.846 -48.477  11.717  0.00  0.00     0.033 H 
ATOM     40  H25 CHO d   1     -14.916 -51.000  12.938  0.00  0.00     0.041 H 
ENDROOT
BRANCH  17  41
ATOM     41  C20 CHO d   1     -15.429 -49.085  13.698  0.00  0.00    -0.053 C 
ATOM     42  H32 CHO d   1     -14.903 -48.140  13.898  0.00  0.00     0.040 H 
BRANCH  41  43
ATOM     43  C21 CHO d   1     -16.001 -49.567  15.031  0.00  0.00    -0.072 C 
ATOM     44  H33 CHO d   1     -16.741 -48.840  15.397  0.00  0.00     0.028 H 
ATOM     45  H34 CHO d   1     -15.188 -49.664  15.765  0.00  0.00     0.028 H 
ATOM     46  H35 CHO d   1     -16.486 -50.544  14.890  0.00  0.00     0.028 H 
ENDBRANCH  41  43
BRANCH  41  47
ATOM     47  C22 CHO d   1     -16.564 -48.764  12.709  0.00  0.00    -0.054 C 
ATOM     48  H36 CHO d   1     -16.119 -48.301  11.816  0.00  0.00     0.034 H 
ATOM     49  H37 CHO d   1     -17.247 -48.049  13.191  0.00  0.00     0.034 H 
BRANCH  47  50
ATOM     50  C23 CHO d   1     -17.377 -49.967  12.263  0.00  0.00     0.010 C 
ATOM     51  H38 CHO d   1     -17.672 -50.532  13.159  0.00  0.00     0.047 H 
ATOM     52  H39 CHO d   1     -16.737 -50.596  11.627  0.00  0.00     0.047 H 
BRANCH  50  53
ATOM     53  C24 CHO d   1     -18.632 -49.631  11.483  0.00  0.00     0.218 C 
ATOM     54  O24 CHO d   1     -19.427 -48.765  11.844  0.00  0.00    -0.274 OA
ATOM     55  N25 CHO d   1     -18.834 -50.345  10.386  0.00  0.00    -0.351 N 
ATOM     56  H40 CHO d   1     -18.169 -51.049  10.136  0.00  0.00     0.163 HD
BRANCH  55  57
ATOM     57  C26 CHO d   1     -19.988 -50.138   9.537  0.00  0.00     0.075 C 
ATOM     58  H41 CHO d   1     -19.831 -50.694   8.601  0.00  0.00     0.080 H 
ATOM     59  H42 CHO d   1     -20.064 -49.063   9.316  0.00  0.00     0.080 H 
BRANCH  57  60
ATOM     60  C27 CHO d   1     -21.297 -50.590  10.140  0.00  0.00     0.191 C 
ATOM     61  OT1 CHO d   1     -22.352 -50.221   9.584  0.00  0.00    -0.647 OA
ATOM     62  OT2 CHO d   1     -21.289 -51.316  11.157  0.00  0.00    -0.647 OA
ENDBRANCH  57  60
ENDBRANCH  55  57
ENDBRANCH  50  53
ENDBRANCH  47  50
ENDBRANCH  41  47
ENDBRANCH  17  41
BRANCH  13  63
ATOM     63  C18 CHO d   1     -12.537 -49.125  14.615  0.00  0.00    -0.068 C 
ATOM     64  H26 CHO d   1     -11.652 -49.384  15.214  0.00  0.00     0.028 H 
ATOM     65  H27 CHO d   1     -13.296 -48.663  15.263  0.00  0.00     0.028 H 
ATOM     66  H28 CHO d   1     -12.250 -48.416  13.825  0.00  0.00     0.028 H 
ENDBRANCH  13  63
BRANCH   7  67
ATOM     67  O7  CHO d   1     -10.431 -52.868  11.512  0.00  0.00    -0.395 OA
ATOM     68  H13 CHO d   1      -9.852 -53.077  10.789  0.00  0.00     0.210 HD
ENDBRANCH   7  67
BRANCH  10  69
ATOM     69  C19 CHO d   1      -8.826 -51.610  15.853  0.00  0.00    -0.068 C 
ATOM     70  H29 CHO d   1      -7.852 -51.919  16.260  0.00  0.00     0.028 H 
ATOM     71  H30 CHO d   1      -9.467 -51.250  16.671  0.00  0.00     0.028 H 
ATOM     72  H31 CHO d   1      -8.678 -50.802  15.121  0.00  0.00     0.028 H 
ENDBRANCH  10  69
BRANCH   3  73
ATOM     73  O3  CHO d   1      -9.452 -57.047  14.132  0.00  0.00    -0.396 OA
ATOM     74  H6  CHO d   1      -8.843 -57.343  13.465  0.00  0.00     0.210 HD
ENDBRANCH   3  73
TORSDOF 11
