REMARK  11 active torsions:
REMARK  status: ('A' for Active; 'I' for Inactive)
REMARK    1  A    between atoms: C3_3  and  O3_4 
REMARK    2  A    between atoms: C7_8  and  O7_9 
REMARK    3  A    between atoms: C10_12  and  C19_21 
REMARK    4  A    between atoms: C13_15  and  C18_20 
REMARK    5  A    between atoms: C17_19  and  C20_22 
REMARK    6  A    between atoms: C20_22  and  C21_23 
REMARK    7  A    between atoms: C20_22  and  C22_24 
REMARK    8  A    between atoms: C22_24  and  C23_25 
REMARK    9  A    between atoms: C23_25  and  C24_26 
REMARK       I    between atoms: C24_26  and  N25_28 
REMARK   10  A    between atoms: N25_28  and  C26_29 
REMARK   11  A    between atoms: C26_29  and  C27_30 
ROOT
ATOM      1  C1  CHO d   1      60.193  -1.620 -12.608  0.00  0.00    -0.055 C 
ATOM      2  C2  CHO d   1      61.364  -1.084 -11.780  0.00  0.00    -0.040 C 
ATOM      3  C3  CHO d   1      62.158  -2.238 -11.205  0.00  0.00     0.036 C 
ATOM      4  C4  CHO d   1      61.263  -3.048 -10.303  0.00  0.00    -0.037 C 
ATOM      5  C5  CHO d   1      60.058  -3.615 -11.059  0.00  0.00    -0.042 C 
ATOM      6  C6  CHO d   1      59.199  -4.494 -10.144  0.00  0.00    -0.037 C 
ATOM      7  C7  CHO d   1      58.222  -3.753  -9.243  0.00  0.00     0.040 C 
ATOM      8  C8  CHO d   1      57.432  -2.684 -10.007  0.00  0.00    -0.021 C 
ATOM      9  C9  CHO d   1      58.329  -1.757 -10.838  0.00  0.00    -0.041 C 
ATOM     10  C10 CHO d   1      59.229  -2.553 -11.840  0.00  0.00    -0.036 C 
ATOM     11  C11 CHO d   1      57.503  -0.640 -11.495  0.00  0.00    -0.060 C 
ATOM     12  C12 CHO d   1      56.531   0.067 -10.553  0.00  0.00    -0.057 C 
ATOM     13  C13 CHO d   1      55.624  -0.896  -9.758  0.00  0.00    -0.036 C 
ATOM     14  C14 CHO d   1      56.567  -1.856  -9.055  0.00  0.00    -0.041 C 
ATOM     15  C15 CHO d   1      55.687  -2.598  -8.035  0.00  0.00    -0.060 C 
ATOM     16  C16 CHO d   1      54.624  -1.561  -7.641  0.00  0.00    -0.060 C 
ATOM     17  C17 CHO d   1      54.858  -0.324  -8.532  0.00  0.00    -0.044 C 
ATOM     18  H1  CHO d   1      60.605  -2.180 -13.460  0.00  0.00     0.034 H 
ATOM     19  H2  CHO d   1      59.615  -0.761 -12.979  0.00  0.00     0.034 H 
ATOM     20  H3  CHO d   1      60.976  -0.463 -10.959  0.00  0.00     0.036 H 
ATOM     21  H4  CHO d   1      62.017  -0.476 -12.423  0.00  0.00     0.036 H 
ATOM     22  H5  CHO d   1      62.523  -2.877 -12.023  0.00  0.00     0.082 H 
ATOM     23  H7  CHO d   1      60.901  -2.404  -9.488  0.00  0.00     0.037 H 
ATOM     24  H8  CHO d   1      61.843  -3.882  -9.881  0.00  0.00     0.037 H 
ATOM     25  H9  CHO d   1      60.472  -4.286 -11.826  0.00  0.00     0.041 H 
ATOM     26  H10 CHO d   1      59.876  -5.076  -9.502  0.00  0.00     0.037 H 
ATOM     27  H11 CHO d   1      58.619  -5.178 -10.780  0.00  0.00     0.037 H 
ATOM     28  H12 CHO d   1      57.506  -4.487  -8.845  0.00  0.00     0.083 H 
ATOM     29  H14 CHO d   1      56.761  -3.208 -10.704  0.00  0.00     0.045 H 
ATOM     30  H15 CHO d   1      59.015  -1.264 -10.134  0.00  0.00     0.042 H 
ATOM     31  H16 CHO d   1      56.923  -1.081 -12.319  0.00  0.00     0.033 H 
ATOM     32  H17 CHO d   1      58.199   0.111 -11.897  0.00  0.00     0.033 H 
ATOM     33  H18 CHO d   1      55.891   0.733 -11.151  0.00  0.00     0.034 H 
ATOM     34  H19 CHO d   1      57.114   0.665  -9.837  0.00  0.00     0.034 H 
ATOM     35  H20 CHO d   1      57.281  -1.254  -8.475  0.00  0.00     0.042 H 
ATOM     36  H21 CHO d   1      56.277  -2.905  -7.159  0.00  0.00     0.033 H 
ATOM     37  H22 CHO d   1      55.220  -3.483  -8.492  0.00  0.00     0.033 H 
ATOM     38  H23 CHO d   1      54.734  -1.290  -6.580  0.00  0.00     0.033 H 
ATOM     39  H24 CHO d   1      53.616  -1.967  -7.814  0.00  0.00     0.033 H 
ATOM     40  H25 CHO d   1      55.548   0.357  -8.013  0.00  0.00     0.041 H 
ENDROOT
BRANCH  17  41
ATOM     41  C20 CHO d   1      53.562   0.489  -8.741  0.00  0.00    -0.053 C 
ATOM     42  H32 CHO d   1      53.040   0.052  -9.605  0.00  0.00     0.040 H 
BRANCH  41  43
ATOM     43  C21 CHO d   1      53.820   1.955  -9.060  0.00  0.00    -0.072 C 
ATOM     44  H33 CHO d   1      52.860   2.475  -9.197  0.00  0.00     0.028 H 
ATOM     45  H34 CHO d   1      54.413   2.030  -9.984  0.00  0.00     0.028 H 
ATOM     46  H35 CHO d   1      54.373   2.419  -8.230  0.00  0.00     0.028 H 
ENDBRANCH  41  43
BRANCH  41  47
ATOM     47  C22 CHO d   1      52.630   0.368  -7.517  0.00  0.00    -0.054 C 
ATOM     48  H36 CHO d   1      52.687  -0.666  -7.146  0.00  0.00     0.034 H 
ATOM     49  H37 CHO d   1      51.603   0.583  -7.848  0.00  0.00     0.034 H 
BRANCH  47  50
ATOM     50  C23 CHO d   1      52.959   1.304  -6.361  0.00  0.00     0.010 C 
ATOM     51  H38 CHO d   1      52.783   2.339  -6.691  0.00  0.00     0.047 H 
ATOM     52  H39 CHO d   1      54.020   1.177  -6.102  0.00  0.00     0.047 H 
BRANCH  50  53
ATOM     53  C24 CHO d   1      52.129   1.050  -5.118  0.00  0.00     0.218 C 
ATOM     54  O24 CHO d   1      52.024  -0.072  -4.619  0.00  0.00    -0.274 OA
ATOM     55  N25 CHO d   1      51.515   2.104  -4.596  0.00  0.00    -0.351 N 
ATOM     56  H40 CHO d   1      50.960   1.974  -3.774  0.00  0.00     0.163 HD
BRANCH  55  57
ATOM     57  C26 CHO d   1      51.612   3.436  -5.163  0.00  0.00     0.075 C 
ATOM     58  H41 CHO d   1      52.466   3.481  -5.855  0.00  0.00     0.080 H 
ATOM     59  H42 CHO d   1      51.754   4.170  -4.356  0.00  0.00     0.080 H 
BRANCH  57  60
ATOM     60  C27 CHO d   1      50.336   3.748  -5.913  0.00  0.00     0.191 C 
ATOM     61  OT1 CHO d   1      50.363   3.772  -7.168  0.00  0.00    -0.647 OA
ATOM     62  OT2 CHO d   1      49.296   3.960  -5.250  0.00  0.00    -0.647 OA
ENDBRANCH  57  60
ENDBRANCH  55  57
ENDBRANCH  50  53
ENDBRANCH  47  50
ENDBRANCH  41  47
ENDBRANCH  17  41
BRANCH  13  63
ATOM     63  C18 CHO d   1      54.654  -1.621 -10.714  0.00  0.00    -0.068 C 
ATOM     64  H26 CHO d   1      55.214  -2.018 -11.573  0.00  0.00     0.028 H 
ATOM     65  H27 CHO d   1      53.891  -0.912 -11.069  0.00  0.00     0.028 H 
ATOM     66  H28 CHO d   1      54.165  -2.450 -10.181  0.00  0.00     0.028 H 
ENDBRANCH  13  63
BRANCH   7  67
ATOM     67  O7  CHO d   1      58.906  -3.149  -8.142  0.00  0.00    -0.395 OA
ATOM     68  H13 CHO d   1      58.279  -2.692  -7.593  0.00  0.00     0.210 HD
ENDBRANCH   7  67
BRANCH  10  69
ATOM     69  C19 CHO d   1      58.361  -3.265 -12.895  0.00  0.00    -0.068 C 
ATOM     70  H29 CHO d   1      59.009  -3.819 -13.590  0.00  0.00     0.028 H 
ATOM     71  H30 CHO d   1      57.777  -2.519 -13.454  0.00  0.00     0.028 H 
ATOM     72  H31 CHO d   1      57.677  -3.966 -12.395  0.00  0.00     0.028 H 
ENDBRANCH  10  69
BRANCH   3  73
ATOM     73  O3  CHO d   1      63.275  -1.727 -10.474  0.00  0.00    -0.396 OA
ATOM     74  H6  CHO d   1      63.774  -2.451 -10.113  0.00  0.00     0.210 HD
ENDBRANCH   3  73
TORSDOF 11
