REMARK  9 active torsions:
REMARK  status: ('A' for Active; 'I' for Inactive)
REMARK       I    between atoms: C1_1  and  N1_34 
REMARK       I    between atoms: C1_1  and  N2_35 
REMARK    1  A    between atoms: C14_6  and  C15_7 
REMARK    2  A    between atoms: N6_39  and  C14_6 
REMARK    3  A    between atoms: C3_23  and  C2_12 
REMARK    4  A    between atoms: C2_12  and  N3_36 
REMARK    5  A    between atoms: C20_13  and  C21_14 
REMARK    6  A    between atoms: C21_14  and  O3_44 
REMARK    7  A    between atoms: C4_28  and  C3_23 
REMARK    8  A    between atoms: C31_25  and  C32_26 
REMARK       I    between atoms: C32_26  and  N7_40 
REMARK    9  A    between atoms: C5_29  and  C4_28 
ROOT
ATOM      1  C10 FE8 d   1      31.954  57.944  14.783  0.00  0.00    -0.048 C 
ATOM      2  C11 FE8 d   1      33.279  57.936  15.535  0.00  0.00    -0.002 C 
ATOM      3  C12 FE8 d   1      33.588  57.604  18.009  0.00  0.00     0.248 C 
ATOM      4  C13 FE8 d   1      32.974  56.785  19.157  0.00  0.00     0.186 C 
ATOM      5  C22 FE8 d   1      34.959  55.857  20.156  0.00  0.00     0.138 C 
ATOM      6  C23 FE8 d   1      35.968  56.173  21.287  0.00  0.00    -0.023 A 
ATOM      7  C24 FE8 d   1      35.891  55.472  22.466  0.00  0.00    -0.075 A 
ATOM      8  C25 FE8 d   1      36.797  55.751  23.526  0.00  0.00    -0.082 A 
ATOM      9  C26 FE8 d   1      37.751  56.728  23.373  0.00  0.00    -0.082 A 
ATOM     10  C27 FE8 d   1      37.831  57.447  22.196  0.00  0.00    -0.076 A 
ATOM     11  C28 FE8 d   1      36.936  57.178  21.146  0.00  0.00    -0.041 A 
ATOM     12  C29 FE8 d   1      37.051  58.016  19.817  0.00  0.00     0.001 C 
ATOM     13  C30 FE8 d   1      38.622  57.917  17.238  0.00  0.00     0.004 C 
ATOM     14  C31 FE8 d   1      37.317  58.155  16.452  0.00  0.00     0.097 C 
ATOM     15  C33 FE8 d   1      37.132  55.670  15.781  0.00  0.00     0.241 C 
ATOM     16  C5  FE8 d   1      36.201  54.509  15.484  0.00  0.00     0.089 C 
ATOM     17  C6  FE8 d   1      33.785  54.854  15.572  0.00  0.00     0.220 C 
ATOM     18  C7  FE8 d   1      32.415  54.950  16.261  0.00  0.00     0.028 C 
ATOM     19  C8  FE8 d   1      31.778  56.363  16.401  0.00  0.00     0.022 C 
ATOM     20  C9  FE8 d   1      31.180  56.743  15.335  0.00  0.00    -0.044 C 
ATOM     21  N4  FE8 d   1      35.011  54.532  16.294  0.00  0.00    -0.348 N 
ATOM     22  N5  FE8 d   1      32.972  57.395  16.660  0.00  0.00    -0.345 N 
ATOM     23  N6  FE8 d   1      33.844  56.748  20.345  0.00  0.00     0.105 N 
ATOM     24  N8  FE8 d   1      36.544  56.919  16.151  0.00  0.00    -0.345 N 
ATOM     25  O1  FE8 d   1      33.853  55.030  14.439  0.00  0.00    -0.274 OA
ATOM     26  O2  FE8 d   1      34.439  58.332  18.162  0.00  0.00    -0.271 OA
ATOM     27  O5  FE8 d   1      38.229  55.553  15.700  0.00  0.00    -0.271 OA
ATOM     28  S1  FE8 d   1      38.282  57.143  18.828  0.00  0.00    -0.162 SA
ATOM     29  H1  FE8 d   1      32.122  57.832  13.702  0.00  0.00     0.035 H 
ATOM     30  H2  FE8 d   1      31.406  58.879  14.974  0.00  0.00     0.035 H 
ATOM     31  H3  FE8 d   1      33.658  58.959  15.679  0.00  0.00     0.064 H 
ATOM     32  H4  FE8 d   1      34.032  57.338  15.002  0.00  0.00     0.064 H 
ATOM     33  H5  FE8 d   1      32.808  55.755  18.808  0.00  0.00     0.094 H 
ATOM     34  H6  FE8 d   1      32.011  57.236  19.438  0.00  0.00     0.094 H 
ATOM     35  H17 FE8 d   1      34.626  54.811  20.225  0.00  0.00     0.087 H 
ATOM     36  H18 FE8 d   1      35.422  56.031  19.174  0.00  0.00     0.087 H 
ATOM     37  H19 FE8 d   1      35.137  54.703  22.589  0.00  0.00     0.084 H 
ATOM     38  H20 FE8 d   1      36.735  55.194  24.454  0.00  0.00     0.083 H 
ATOM     39  H21 FE8 d   1      38.444  56.936  24.180  0.00  0.00     0.083 H 
ATOM     40  H22 FE8 d   1      38.584  58.218  22.082  0.00  0.00     0.084 H 
ATOM     41  H23 FE8 d   1      37.384  59.042  20.033  0.00  0.00     0.056 H 
ATOM     42  H24 FE8 d   1      36.084  58.047  19.293  0.00  0.00     0.056 H 
ATOM     43  H27 FE8 d   1      39.122  58.882  17.407  0.00  0.00     0.052 H 
ATOM     44  H28 FE8 d   1      39.281  57.260  16.651  0.00  0.00     0.052 H 
ATOM     45  H29 FE8 d   1      36.678  58.767  17.105  0.00  0.00     0.088 H 
ATOM     46  H32 FE8 d   1      35.805  54.750  14.487  0.00  0.00     0.087 H 
ATOM     47  H33 FE8 d   1      32.526  54.537  17.274  0.00  0.00     0.050 H 
ATOM     48  H34 FE8 d   1      31.713  54.328  15.687  0.00  0.00     0.050 H 
ATOM     49  H35 FE8 d   1      31.070  56.367  17.243  0.00  0.00     0.073 H 
ATOM     50  H36 FE8 d   1      31.173  55.928  14.596  0.00  0.00     0.036 H 
ATOM     51  H37 FE8 d   1      30.146  57.036  15.568  0.00  0.00     0.036 H 
ATOM     52  H43 FE8 d   1      35.024  54.342  17.276  0.00  0.00     0.163 HD
ATOM     53  H46 FE8 d   1      35.547  56.966  16.212  0.00  0.00     0.163 HD
ENDROOT
BRANCH  16  54
ATOM     54  C4  FE8 d   1      36.913  53.218  15.228  0.00  0.00    -0.036 C 
ATOM     55  H30 FE8 d   1      37.188  53.185  14.164  0.00  0.00     0.036 H 
ATOM     56  H31 FE8 d   1      37.825  53.203  15.843  0.00  0.00     0.036 H 
BRANCH  54  57
ATOM     57  C3  FE8 d   1      36.104  51.964  15.548  0.00  0.00    -0.048 C 
ATOM     58  H25 FE8 d   1      36.184  51.720  16.617  0.00  0.00     0.035 H 
ATOM     59  H26 FE8 d   1      35.047  52.114  15.284  0.00  0.00     0.035 H 
BRANCH  57  60
ATOM     60  C2  FE8 d   1      36.714  50.838  14.695  0.00  0.00     0.009 C 
ATOM     61  H13 FE8 d   1      37.660  51.190  14.257  0.00  0.00     0.064 H 
ATOM     62  H14 FE8 d   1      36.012  50.575  13.890  0.00  0.00     0.064 H 
BRANCH  60  63
ATOM     63  N3  FE8 d   1      36.972  49.668  15.498  0.00  0.00    -0.227 N 
ATOM     64  C1  FE8 d   1      36.010  49.032  15.996  0.00  0.00     0.665 C 
ATOM     65  N1  FE8 d   1      36.250  48.009  16.653  0.00  0.00    -0.235 N 
ATOM     66  N2  FE8 d   1      34.830  49.404  15.835  0.00  0.00    -0.235 N 
ATOM     67  H38 FE8 d   1      35.477  47.472  17.070  0.00  0.00     0.174 HD
ATOM     68  H39 FE8 d   1      37.223  47.696  16.782  0.00  0.00     0.174 HD
ATOM     69  H40 FE8 d   1      34.628  50.254  15.289  0.00  0.00     0.174 HD
ATOM     70  H41 FE8 d   1      34.058  48.861  16.248  0.00  0.00     0.174 HD
ATOM     71  H42 FE8 d   1      37.940  49.356  15.662  0.00  0.00     0.177 HD
ENDBRANCH  60  63
ENDBRANCH  57  60
ENDBRANCH  54  57
ENDBRANCH  16  54
BRANCH  14  72
ATOM     72  C32 FE8 d   1      37.535  58.927  15.235  0.00  0.00     0.239 C 
ATOM     73  N7  FE8 d   1      38.001  60.288  15.342  0.00  0.00    -0.368 N 
ATOM     74  H44 FE8 d   1      38.155  60.830  14.516  0.00  0.00     0.159 HD
ATOM     75  H45 FE8 d   1      38.170  60.689  16.242  0.00  0.00     0.159 HD
ATOM     76  O4  FE8 d   1      37.328  58.485  14.176  0.00  0.00    -0.271 OA
ENDBRANCH  14  72
BRANCH  23  77
ATOM     77  C14 FE8 d   1      33.002  56.318  21.487  0.00  0.00     0.138 C 
ATOM     78  H7  FE8 d   1      32.489  55.380  21.228  0.00  0.00     0.087 H 
ATOM     79  H8  FE8 d   1      33.640  56.156  22.368  0.00  0.00     0.087 H 
BRANCH  77  80
ATOM     80  C15 FE8 d   1      31.953  57.399  21.810  0.00  0.00    -0.022 A 
ATOM     81  C16 FE8 d   1      30.567  57.009  21.854  0.00  0.00    -0.075 A 
ATOM     82  C17 FE8 d   1      29.585  57.935  22.155  0.00  0.00    -0.082 A 
ATOM     83  H9  FE8 d   1      30.291  55.981  21.649  0.00  0.00     0.084 H 
ATOM     84  C18 FE8 d   1      29.930  59.252  22.422  0.00  0.00    -0.082 A 
ATOM     85  H10 FE8 d   1      28.545  57.632  22.182  0.00  0.00     0.083 H 
ATOM     86  C19 FE8 d   1      31.287  59.640  22.378  0.00  0.00    -0.074 A 
ATOM     87  H11 FE8 d   1      29.163  59.979  22.663  0.00  0.00     0.083 H 
ATOM     88  C20 FE8 d   1      32.299  58.714  22.064  0.00  0.00    -0.027 A 
ATOM     89  H12 FE8 d   1      31.554  60.669  22.590  0.00  0.00     0.084 H 
BRANCH  88  90
ATOM     90  C21 FE8 d   1      33.749  59.210  22.069  0.00  0.00     0.041 C 
ATOM     91  H15 FE8 d   1      34.377  58.454  22.562  0.00  0.00     0.081 H 
ATOM     92  H16 FE8 d   1      33.796  60.152  22.635  0.00  0.00     0.081 H 
BRANCH  90  93
ATOM     93  O3  FE8 d   1      34.242  59.433  20.802  0.00  0.00    -0.396 OA
ATOM     94  H47 FE8 d   1      34.214  58.624  20.305  0.00  0.00     0.209 HD
ENDBRANCH  90  93
ENDBRANCH  88  90
ENDBRANCH  77  80
ENDBRANCH  23  77
TORSDOF 9
