REMARK  12 active torsions:
REMARK  status: ('A' for Active; 'I' for Inactive)
REMARK    1  A    between atoms: C13_1  and  C14_18 
REMARK    2  A    between atoms: C23_21  and  C24_6 
REMARK    3  A    between atoms: C02_9  and  C01_8 
REMARK    4  A    between atoms: C02_9  and  C03_10 
REMARK    5  A    between atoms: C04_11  and  C02_9 
REMARK    6  A    between atoms: C07_14  and  C08_15 
REMARK       I    between atoms: C08_15  and  N10_35 
REMARK    7  A    between atoms: N10_35  and  C11_16 
REMARK    8  A    between atoms: C14_18  and  N15_36 
REMARK    9  A    between atoms: N18_37  and  C19_20 
REMARK   10  A    between atoms: C31_24  and  C30_23 
REMARK   11  A    between atoms: C32_25  and  C31_24 
REMARK   12  A    between atoms: C33_26  and  C32_25 
ROOT
ATOM      1  C08 FEW d   1      -3.414  17.767   1.953  0.00  0.00     0.256 C 
ATOM      2  N10 FEW d   1      -3.643  18.236   0.588  0.00  0.00    -0.323 N 
ATOM      3  O09 FEW d   1      -2.775  18.364   2.725  0.00  0.00    -0.267 OA
ATOM      4  H31 FEW d   1      -4.196  17.667  -0.020  0.00  0.00     0.169 HD
ENDROOT
BRANCH   2   5
ATOM      5  C11 FEW d   1      -3.101  19.507   0.056  0.00  0.00     0.036 A 
ATOM      6  C28 FEW d   1      -1.806  19.947   0.453  0.00  0.00    -0.043 A 
ATOM      7  C23 FEW d   1      -1.297  21.093  -0.049  0.00  0.00     0.050 A 
ATOM      8  H8  FEW d   1      -1.228  19.361   1.159  0.00  0.00     0.088 H 
ATOM      9  C22 FEW d   1      -2.049  21.846  -0.988  0.00  0.00    -0.060 A 
ATOM     10  C13 FEW d   1      -3.319  21.415  -1.393  0.00  0.00    -0.030 A 
ATOM     11  H7  FEW d   1      -1.637  22.762  -1.395  0.00  0.00     0.085 H 
ATOM     12  C12 FEW d   1      -3.826  20.228  -0.878  0.00  0.00    -0.049 A 
ATOM     13  H18 FEW d   1      -4.793  19.865  -1.209  0.00  0.00     0.087 H 
BRANCH   7  14
ATOM     14  C24 FEW d   1       0.060  21.552   0.399  0.00  0.00     0.417 C 
ATOM     15  F25 FEW d   1       0.880  20.430   0.536  0.00  0.00    -0.166 F 
ATOM     16  F26 FEW d   1      -0.018  22.187   1.591  0.00  0.00    -0.166 F 
ATOM     17  F27 FEW d   1       0.615  22.422  -0.558  0.00  0.00    -0.166 F 
ENDBRANCH   7  14
BRANCH  10  18
ATOM     18  C14 FEW d   1      -4.120  22.251  -2.444  0.00  0.00     0.107 C 
ATOM     19  H19 FEW d   1      -4.268  21.616  -3.330  0.00  0.00     0.083 H 
ATOM     20  H20 FEW d   1      -3.504  23.121  -2.715  0.00  0.00     0.083 H 
BRANCH  18  21
ATOM     21  N15 FEW d   1      -5.289  22.695  -2.078  0.00  0.00    -0.064 N 
ATOM     22  C21 FEW d   1      -5.375  23.063  -0.787  0.00  0.00     0.106 C 
ATOM     23  C20 FEW d   1      -6.837  23.411  -0.313  0.00  0.00     0.105 C 
ATOM     24  H5  FEW d   1      -4.998  22.237  -0.167  0.00  0.00     0.078 H 
ATOM     25  H6  FEW d   1      -4.743  23.951  -0.638  0.00  0.00     0.078 H 
ATOM     26  N18 FEW d   1      -7.812  23.481  -1.284  0.00  0.00    -0.072 N 
ATOM     27  H3  FEW d   1      -6.799  24.389   0.189  0.00  0.00     0.078 H 
ATOM     28  H4  FEW d   1      -7.144  22.640   0.409  0.00  0.00     0.078 H 
ATOM     29  C17 FEW d   1      -7.669  22.710  -2.392  0.00  0.00     0.105 C 
ATOM     30  H33 FEW d   1      -7.791  24.433  -1.616  0.00  0.00     0.279 HD
ATOM     31  C16 FEW d   1      -6.328  21.901  -2.470  0.00  0.00     0.106 C 
ATOM     32  H1  FEW d   1      -8.502  21.992  -2.418  0.00  0.00     0.078 H 
ATOM     33  H2  FEW d   1      -7.723  23.366  -3.273  0.00  0.00     0.078 H 
ATOM     34  H21 FEW d   1      -6.162  21.566  -3.505  0.00  0.00     0.078 H 
ATOM     35  H22 FEW d   1      -6.390  21.026  -1.807  0.00  0.00     0.078 H 
ATOM     36  H32 FEW d   1      -5.407  23.551  -2.597  0.00  0.00     0.280 HD
BRANCH  26  37
ATOM     37  C19 FEW d   1      -8.964  23.292  -0.766  0.00  0.00     0.066 C 
ATOM     38  H23 FEW d   1      -9.733  23.350  -1.551  0.00  0.00     0.068 H 
ATOM     39  H24 FEW d   1      -9.156  24.064  -0.007  0.00  0.00     0.068 H 
ATOM     40  H25 FEW d   1      -8.996  22.299  -0.295  0.00  0.00     0.068 H 
ENDBRANCH  26  37
ENDBRANCH  18  21
ENDBRANCH  10  18
ENDBRANCH   2   5
BRANCH   1  41
ATOM     41  C07 FEW d   1      -4.006  16.387   2.353  0.00  0.00     0.033 A 
ATOM     42  C06 FEW d   1      -4.892  15.699   1.499  0.00  0.00    -0.067 A 
ATOM     43  C05 FEW d   1      -5.379  14.465   1.880  0.00  0.00    -0.074 A 
ATOM     44  H17 FEW d   1      -5.188  16.135   0.552  0.00  0.00     0.085 H 
ATOM     45  C04 FEW d   1      -4.988  13.923   3.063  0.00  0.00    -0.036 A 
ATOM     46  H16 FEW d   1      -6.070  13.931   1.238  0.00  0.00     0.084 H 
ATOM     47  C30 FEW d   1      -4.103  14.607   3.882  0.00  0.00     0.025 A 
ATOM     48  C29 FEW d   1      -3.616  15.851   3.506  0.00  0.00    -0.049 A 
ATOM     49  H26 FEW d   1      -2.922  16.382   4.148  0.00  0.00     0.087 H 
BRANCH  45  50
ATOM     50  C02 FEW d   1      -5.520  12.505   3.517  0.00  0.00    -0.034 C 
ATOM     51  H12 FEW d   1      -4.793  12.104   4.239  0.00  0.00     0.046 H 
BRANCH  50  52
ATOM     52  C01 FEW d   1      -6.894  12.580   4.256  0.00  0.00    -0.069 C 
ATOM     53  H9  FEW d   1      -7.210  11.567   4.546  0.00  0.00     0.028 H 
ATOM     54  H10 FEW d   1      -7.647  13.022   3.587  0.00  0.00     0.028 H 
ATOM     55  H11 FEW d   1      -6.793  13.204   5.156  0.00  0.00     0.028 H 
ENDBRANCH  50  52
BRANCH  50  56
ATOM     56  C03 FEW d   1      -5.559  11.525   2.311  0.00  0.00    -0.069 C 
ATOM     57  H13 FEW d   1      -4.573  11.505   1.823  0.00  0.00     0.028 H 
ATOM     58  H14 FEW d   1      -6.319  11.861   1.590  0.00  0.00     0.028 H 
ATOM     59  H15 FEW d   1      -5.813  10.515   2.667  0.00  0.00     0.028 H 
ENDBRANCH  50  56
ENDBRANCH  45  50
BRANCH  47  60
ATOM     60  C31 FEW d   1      -3.639  14.036   5.199  0.00  0.00    -0.059 C 
BRANCH  60  61
ATOM     61  C32 FEW d   1      -3.226  13.588   6.310  0.00  0.00    -0.041 C 
BRANCH  61  62
ATOM     62  C33 FEW d   1      -2.687  13.032   7.643  0.00  0.00     0.112 A 
ATOM     63  C34 FEW d   1      -1.407  12.425   7.841  0.00  0.00     0.039 A 
ATOM     64  N35 FEW d   1      -1.340  12.099   9.108  0.00  0.00    -0.238 NA
ATOM     65  H27 FEW d   1      -0.638  12.265   7.086  0.00  0.00     0.119 H 
ATOM     66  C36 FEW d   1      -2.530  12.481   9.723  0.00  0.00     0.152 A 
ATOM     67  C37 FEW d   1      -2.926  12.353  11.009  0.00  0.00     0.046 A 
ATOM     68  N41 FEW d   1      -3.327  13.040   8.841  0.00  0.00    -0.296 N 
ATOM     69  N38 FEW d   1      -4.199  12.826  11.397  0.00  0.00    -0.268 NA
ATOM     70  H28 FEW d   1      -2.268  11.888  11.741  0.00  0.00     0.120 H 
ATOM     71  C39 FEW d   1      -4.998  13.391  10.505  0.00  0.00     0.017 A 
ATOM     72  C40 FEW d   1      -4.610  13.519   9.222  0.00  0.00     0.004 A 
ATOM     73  H29 FEW d   1      -5.977  13.755  10.812  0.00  0.00     0.116 H 
ATOM     74  H30 FEW d   1      -5.268  13.982   8.488  0.00  0.00     0.114 H 
ENDBRANCH  61  62
ENDBRANCH  60  61
ENDBRANCH  47  60
ENDBRANCH   1  41
TORSDOF 12
