REMARK  11 active torsions:
REMARK  status: ('A' for Active; 'I' for Inactive)
REMARK    1  A    between atoms: N4_20  and  C4_4 
REMARK       I    between atoms: C9_6  and  N4_20 
REMARK       I    between atoms: N9_22  and  C9_6 
REMARK    2  A    between atoms: C11_7  and  N9_22 
REMARK    3  A    between atoms: O14_23  and  C14_10 
REMARK    4  A    between atoms: C20_13  and  C19_26 
REMARK    5  A    between atoms: N20_27  and  C20_13 
REMARK    6  A    between atoms: S8_16  and  N10_18 
REMARK    7  A    between atoms: C_19  and  S8_16 
REMARK    8  A    between atoms: C17_24  and  O14_23 
REMARK    9  A    between atoms: C18_25  and  C17_24 
REMARK   10  A    between atoms: C19_26  and  C18_25 
REMARK       I    between atoms: N20_27  and  C21_28 
REMARK   11  A    between atoms: C21_28  and  C22_29 
ROOT
ATOM      1  C11 FF5 d   1      15.764  10.145  11.329  0.00  0.00     0.036 A 
ATOM      2  C12 FF5 d   1      15.918  11.542  11.233  0.00  0.00    -0.054 A 
ATOM      3  C13 FF5 d   1      15.255  12.273  10.277  0.00  0.00    -0.049 A 
ATOM      4  C14 FF5 d   1      14.406  11.599   9.369  0.00  0.00     0.068 A 
ATOM      5  C15 FF5 d   1      14.243  10.234   9.438  0.00  0.00    -0.049 A 
ATOM      6  C16 FF5 d   1      14.904   9.511  10.430  0.00  0.00    -0.054 A 
ATOM      7  H5  FF5 d   1      16.574  12.052  11.929  0.00  0.00     0.087 H 
ATOM      8  H6  FF5 d   1      15.381  13.348  10.220  0.00  0.00     0.087 H 
ATOM      9  H7  FF5 d   1      13.605   9.724   8.725  0.00  0.00     0.087 H 
ATOM     10  H8  FF5 d   1      14.748   8.441  10.505  0.00  0.00     0.087 H 
ENDROOT
BRANCH   1  11
ATOM     11  N9  FF5 d   1      16.405   9.469  12.384  0.00  0.00    -0.309 N 
ATOM     12  C9  FF5 d   1      15.915   8.363  13.022  0.00  0.00     0.325 C 
ATOM     13  N4  FF5 d   1      16.771   7.706  13.910  0.00  0.00    -0.309 N 
ATOM     14  O9  FF5 d   1      14.684   8.139  12.980  0.00  0.00    -0.247 OA
ATOM     15  H13 FF5 d   1      17.693   8.078  14.016  0.00  0.00     0.170 HD
ATOM     16  H14 FF5 d   1      17.288   9.825  12.691  0.00  0.00     0.170 HD
BRANCH  13  17
ATOM     17  C4  FF5 d   1      16.446   6.570  14.665  0.00  0.00     0.036 A 
ATOM     18  C3  FF5 d   1      17.412   5.577  14.896  0.00  0.00    -0.056 A 
ATOM     19  C2  FF5 d   1      17.065   4.408  15.594  0.00  0.00    -0.058 A 
ATOM     20  H3  FF5 d   1      18.425   5.713  14.536  0.00  0.00     0.087 H 
ATOM     21  C   FF5 d   1      15.766   4.180  16.040  0.00  0.00     0.079 A 
ATOM     22  H2  FF5 d   1      17.829   3.664  15.790  0.00  0.00     0.086 H 
ATOM     23  C1  FF5 d   1      14.818   5.213  15.817  0.00  0.00    -0.058 A 
ATOM     24  C5  FF5 d   1      15.149   6.394  15.180  0.00  0.00    -0.056 A 
ATOM     25  H1  FF5 d   1      13.799   5.071  16.158  0.00  0.00     0.086 H 
ATOM     26  H4  FF5 d   1      14.412   7.182  15.078  0.00  0.00     0.087 H 
BRANCH  21  27
ATOM     27  S8  FF5 d   1      15.303   2.741  16.850  0.00  0.00     0.256 S 
ATOM     28  O6  FF5 d   1      15.852   2.803  18.194  0.00  0.00    -0.201 OA
ATOM     29  O7  FF5 d   1      15.898   1.522  16.090  0.00  0.00    -0.201 OA
BRANCH  27  30
ATOM     30  N10 FF5 d   1      13.854   2.697  16.749  0.00  0.00    -0.324 N 
ATOM     31  H11 FF5 d   1      13.301   3.409  17.182  0.00  0.00     0.169 HD
ATOM     32  H12 FF5 d   1      13.410   1.955  16.246  0.00  0.00     0.169 HD
ENDBRANCH  27  30
ENDBRANCH  21  27
ENDBRANCH  13  17
ENDBRANCH   1  11
BRANCH   4  33
ATOM     33  O14 FF5 d   1      13.747  12.337   8.345  0.00  0.00    -0.351 OA
BRANCH  33  34
ATOM     34  C17 FF5 d   1      13.533  13.738   8.570  0.00  0.00     0.026 C 
ATOM     35  H15 FF5 d   1      14.481  14.284   8.455  0.00  0.00     0.075 H 
ATOM     36  H16 FF5 d   1      13.138  13.898   9.584  0.00  0.00     0.075 H 
BRANCH  34  37
ATOM     37  C18 FF5 d   1      12.524  14.228   7.537  0.00  0.00    -0.043 C 
ATOM     38  H17 FF5 d   1      12.956  14.089   6.535  0.00  0.00     0.036 H 
ATOM     39  H18 FF5 d   1      12.339  15.298   7.712  0.00  0.00     0.036 H 
BRANCH  37  40
ATOM     40  C19 FF5 d   1      11.202  13.498   7.593  0.00  0.00    -0.048 C 
ATOM     41  H19 FF5 d   1      11.409  12.430   7.429  0.00  0.00     0.035 H 
ATOM     42  H20 FF5 d   1      10.790  13.641   8.603  0.00  0.00     0.035 H 
BRANCH  40  43
ATOM     43  C20 FF5 d   1      10.141  13.906   6.612  0.00  0.00    -0.005 C 
ATOM     44  H9  FF5 d   1       9.340  13.152   6.643  0.00  0.00     0.064 H 
ATOM     45  H10 FF5 d   1      10.592  13.921   5.609  0.00  0.00     0.064 H 
BRANCH  43  46
ATOM     46  N20 FF5 d   1       9.555  15.182   6.851  0.00  0.00    -0.361 N 
ATOM     47  C21 FF5 d   1       9.164  16.063   5.912  0.00  0.00     0.213 C 
ATOM     48  O21 FF5 d   1       9.229  15.712   4.717  0.00  0.00    -0.274 OA
ATOM     49  H21 FF5 d   1       9.422  15.448   7.806  0.00  0.00     0.162 HD
BRANCH  47  50
ATOM     50  C22 FF5 d   1       8.372  17.264   6.402  0.00  0.00    -0.003 C 
ATOM     51  H22 FF5 d   1       8.480  17.354   7.493  0.00  0.00     0.040 H 
ATOM     52  H23 FF5 d   1       7.310  17.131   6.148  0.00  0.00     0.040 H 
ATOM     53  H24 FF5 d   1       8.753  18.176   5.920  0.00  0.00     0.040 H 
ENDBRANCH  47  50
ENDBRANCH  43  46
ENDBRANCH  40  43
ENDBRANCH  37  40
ENDBRANCH  34  37
ENDBRANCH  33  34
ENDBRANCH   4  33
TORSDOF 11
