REMARK  5 active torsions:
REMARK  status: ('A' for Active; 'I' for Inactive)
REMARK    1  A    between atoms: N4_11  and  C4_3 
REMARK       I    between atoms: C9_4  and  N4_11 
REMARK       I    between atoms: N9_19  and  C9_4 
REMARK    2  A    between atoms: C11_5  and  N9_19 
REMARK    3  A    between atoms: C14_8  and  O14_21 
REMARK    4  A    between atoms: C_13  and  S8_14 
REMARK    5  A    between atoms: S8_14  and  N10_15 
ROOT
ATOM      1  C9  FFH d   1      17.427   9.000  14.058  0.00  0.00     0.325 C 
ATOM      2  O9  FFH d   1      16.505   9.702  14.574  0.00  0.00    -0.247 OA
ATOM      3  N4  FFH d   1      17.451   7.590  14.043  0.00  0.00    -0.309 N 
ATOM      4  N9  FFH d   1      18.698   9.381  13.542  0.00  0.00    -0.309 N 
ATOM      5  H6  FFH d   1      18.084   7.258  13.344  0.00  0.00     0.170 HD
ATOM      6  H11 FFH d   1      18.878   8.888  12.691  0.00  0.00     0.170 HD
ENDROOT
BRANCH   3   7
ATOM      7  C4  FFH d   1      16.840   6.490  14.729  0.00  0.00     0.036 A 
ATOM      8  C3  FFH d   1      17.662   5.374  15.022  0.00  0.00    -0.056 A 
ATOM      9  C2  FFH d   1      17.205   4.244  15.695  0.00  0.00    -0.058 A 
ATOM     10  H7  FFH d   1      18.699   5.401  14.706  0.00  0.00     0.087 H 
ATOM     11  C   FFH d   1      15.862   4.128  16.087  0.00  0.00     0.079 A 
ATOM     12  H2  FFH d   1      17.897   3.441  15.920  0.00  0.00     0.086 H 
ATOM     13  C1  FFH d   1      15.028   5.230  15.789  0.00  0.00    -0.058 A 
ATOM     14  C5  FFH d   1      15.501   6.376  15.141  0.00  0.00    -0.056 A 
ATOM     15  H1  FFH d   1      13.983   5.185  16.073  0.00  0.00     0.086 H 
ATOM     16  H10 FFH d   1      14.818   7.196  14.952  0.00  0.00     0.087 H 
BRANCH  11  17
ATOM     17  S8  FFH d   1      15.327   2.730  16.891  0.00  0.00     0.256 S 
ATOM     18  O6  FFH d   1      13.878   2.758  16.753  0.00  0.00    -0.201 OA
ATOM     19  O7  FFH d   1      15.841   2.816  18.226  0.00  0.00    -0.201 OA
BRANCH  17  20
ATOM     20  N10 FFH d   1      15.897   1.486  16.168  0.00  0.00    -0.324 N 
ATOM     21  H8  FFH d   1      15.684   0.570  16.506  0.00  0.00     0.169 HD
ATOM     22  H9  FFH d   1      16.479   1.599  15.363  0.00  0.00     0.169 HD
ENDBRANCH  17  20
ENDBRANCH  11  17
ENDBRANCH   3   7
BRANCH   4  23
ATOM     23  C11 FFH d   1      19.793  10.234  13.843  0.00  0.00     0.036 A 
ATOM     24  C12 FFH d   1      19.882  11.373  14.679  0.00  0.00    -0.054 A 
ATOM     25  C13 FFH d   1      21.102  12.046  14.786  0.00  0.00    -0.049 A 
ATOM     26  H3  FFH d   1      19.015  11.719  15.229  0.00  0.00     0.087 H 
ATOM     27  C14 FFH d   1      22.264  11.604  14.093  0.00  0.00     0.065 A 
ATOM     28  H4  FFH d   1      21.165  12.928  15.413  0.00  0.00     0.087 H 
ATOM     29  C15 FFH d   1      22.177  10.482  13.286  0.00  0.00    -0.049 A 
ATOM     30  C16 FFH d   1      20.966   9.822  13.180  0.00  0.00    -0.054 A 
ATOM     31  H12 FFH d   1      23.046  10.126  12.745  0.00  0.00     0.087 H 
ATOM     32  H5  FFH d   1      20.917   8.940  12.553  0.00  0.00     0.087 H 
BRANCH  27  33
ATOM     33  O14 FFH d   1      23.422  12.350  14.270  0.00  0.00    -0.361 OA
ATOM     34  H13 FFH d   1      23.246  13.070  14.864  0.00  0.00     0.217 HD
ENDBRANCH  27  33
ENDBRANCH   4  23
TORSDOF 5
