REMARK  2 active torsions:
REMARK  status: ('A' for Active; 'I' for Inactive)
REMARK    1  A    between atoms: C01_1  and  C02_2 
REMARK    2  A    between atoms: C07_11  and  C08_12 
ROOT
ATOM      1  C02 FFN d   1      -2.187   0.322  24.804  0.00  0.00     0.104 A 
ATOM      2  N03 FFN d   1      -3.106  -0.217  24.005  0.00  0.00    -0.228 NA
ATOM      3  N18 FFN d   1      -1.724  -0.397  25.875  0.00  0.00    -0.311 N 
ATOM      4  C16 FFN d   1      -2.205  -1.677  26.112  0.00  0.00     0.260 A 
ATOM      5  O17 FFN d   1      -1.694  -2.245  27.081  0.00  0.00    -0.267 OA
ATOM      6  C15 FFN d   1      -3.137  -2.239  25.290  0.00  0.00     0.079 A 
ATOM      7  C04 FFN d   1      -3.565  -1.451  24.227  0.00  0.00     0.116 A 
ATOM      8  S05 FFN d   1      -4.665  -2.282  23.309  0.00  0.00    -0.080 SA
ATOM      9  C06 FFN d   1      -4.620  -3.629  24.277  0.00  0.00    -0.031 A 
ATOM     10  C07 FFN d   1      -3.735  -3.469  25.290  0.00  0.00    -0.001 A 
ATOM     11  H4  FFN d   1      -1.039   0.001  26.486  0.00  0.00     0.170 HD
ATOM     12  H5  FFN d   1      -5.222  -4.523  24.119  0.00  0.00     0.096 H 
ENDROOT
BRANCH  10  13
ATOM     13  C08 FFN d   1      -3.640  -4.498  26.202  0.00  0.00    -0.024 A 
ATOM     14  C09 FFN d   1      -3.859  -4.257  27.566  0.00  0.00    -0.069 A 
ATOM     15  C10 FFN d   1      -3.839  -5.246  28.556  0.00  0.00    -0.045 A 
ATOM     16  H6  FFN d   1      -4.057  -3.237  27.874  0.00  0.00     0.085 H 
ATOM     17  C11 FFN d   1      -3.628  -6.566  28.194  0.00  0.00     0.116 A 
ATOM     18  H7  FFN d   1      -3.987  -4.981  29.597  0.00  0.00     0.088 H 
ATOM     19  F12 FFN d   1      -3.613  -7.548  29.173  0.00  0.00    -0.206 F 
ATOM     20  C13 FFN d   1      -3.437  -6.851  26.841  0.00  0.00    -0.045 A 
ATOM     21  C14 FFN d   1      -3.448  -5.842  25.856  0.00  0.00    -0.069 A 
ATOM     22  H8  FFN d   1      -3.275  -7.879  26.538  0.00  0.00     0.088 H 
ATOM     23  H9  FFN d   1      -3.306  -6.110  24.815  0.00  0.00     0.085 H 
ENDBRANCH  10  13
BRANCH   1  24
ATOM     24  C01 FFN d   1      -1.691   1.576  24.613  0.00  0.00    -0.021 C 
ATOM     25  H1  FFN d   1      -2.155   2.022  23.721  0.00  0.00     0.037 H 
ATOM     26  H2  FFN d   1      -0.602   1.522  24.471  0.00  0.00     0.037 H 
ATOM     27  H3  FFN d   1      -1.916   2.197  25.493  0.00  0.00     0.037 H 
ENDBRANCH   1  24
TORSDOF 2
