REMARK  10 active torsions:
REMARK  status: ('A' for Active; 'I' for Inactive)
REMARK    1  A    between atoms: O1_32  and  C1_1 
REMARK    2  A    between atoms: C11_7  and  C12_2 
REMARK    3  A    between atoms: C9_28  and  C10_6 
REMARK       I    between atoms: C10_6  and  N1_29 
REMARK    4  A    between atoms: N1_29  and  C11_7 
REMARK    5  A    between atoms: C5_24  and  C18_10 
REMARK    6  A    between atoms: C19_11  and  C20_13 
REMARK    7  A    between atoms: C19_11  and  C21_14 
REMARK    8  A    between atoms: N3_31  and  C19_11 
REMARK    9  A    between atoms: C2_12  and  O1_32 
REMARK   10  A    between atoms: C8_27  and  C7_26 
ROOT
ATOM      1  C2  FFZ d   1     121.523  12.876  63.948  0.00  0.00     0.086 A 
ATOM      2  C3  FFZ d   1     121.297  11.513  64.139  0.00  0.00    -0.049 A 
ATOM      3  C4  FFZ d   1     120.805  10.728  63.107  0.00  0.00    -0.068 A 
ATOM      4  C5  FFZ d   1     120.531  11.284  61.859  0.00  0.00    -0.008 A 
ATOM      5  C6  FFZ d   1     120.747  12.650  61.659  0.00  0.00    -0.050 A 
ATOM      6  C7  FFZ d   1     121.232  13.453  62.691  0.00  0.00     0.052 A 
ATOM      7  H26 FFZ d   1     121.508  11.063  65.103  0.00  0.00     0.087 H 
ATOM      8  H27 FFZ d   1     120.632   9.671  63.273  0.00  0.00     0.085 H 
ATOM      9  H28 FFZ d   1     120.535  13.090  60.691  0.00  0.00     0.087 H 
ENDROOT
BRANCH   4  10
ATOM     10  C18 FFZ d   1     119.983  10.521  60.696  0.00  0.00     0.070 C 
ATOM     11  C28 FFZ d   1     120.016   8.984  60.681  0.00  0.00     0.006 C 
ATOM     12  C23 FFZ d   1     120.192   8.517  59.216  0.00  0.00     0.037 C 
ATOM     13  C27 FFZ d   1     118.757   8.348  61.318  0.00  0.00    -0.041 C 
ATOM     14  H25 FFZ d   1     120.889   8.653  61.263  0.00  0.00     0.051 H 
ATOM     15  C22 FFZ d   1     119.149   9.230  58.386  0.00  0.00     0.245 C 
ATOM     16  C24 FFZ d   1     120.173   6.986  59.074  0.00  0.00    -0.038 C 
ATOM     17  H18 FFZ d   1     121.181   8.853  58.870  0.00  0.00     0.056 H 
ATOM     18  N3  FFZ d   1     118.881  10.547  58.715  0.00  0.00    -0.234 N 
ATOM     19  O3  FFZ d   1     118.548   8.682  57.475  0.00  0.00    -0.271 OA
ATOM     20  N2  FFZ d   1     119.495  11.223  59.729  0.00  0.00    -0.173 NA
ATOM     21  C25 FFZ d   1     119.075   6.355  59.855  0.00  0.00    -0.106 C 
ATOM     22  H19 FFZ d   1     121.134   6.587  59.430  0.00  0.00     0.040 H 
ATOM     23  H20 FFZ d   1     120.042   6.732  58.012  0.00  0.00     0.040 H 
ATOM     24  C26 FFZ d   1     118.465   6.956  60.855  0.00  0.00    -0.106 C 
ATOM     25  H21 FFZ d   1     118.761   5.348  59.587  0.00  0.00     0.076 H 
ATOM     26  H22 FFZ d   1     117.692   6.399  61.383  0.00  0.00     0.076 H 
ATOM     27  H23 FFZ d   1     118.898   8.325  62.409  0.00  0.00     0.040 H 
ATOM     28  H24 FFZ d   1     117.891   8.981  61.073  0.00  0.00     0.040 H 
BRANCH  18  29
ATOM     29  C19 FFZ d   1     117.891  11.329  57.927  0.00  0.00     0.031 C 
ATOM     30  H11 FFZ d   1     117.372  10.640  57.244  0.00  0.00     0.074 H 
BRANCH  29  31
ATOM     31  C20 FFZ d   1     116.837  11.950  58.840  0.00  0.00    -0.056 C 
ATOM     32  H12 FFZ d   1     116.118  12.522  58.234  0.00  0.00     0.030 H 
ATOM     33  H13 FFZ d   1     117.326  12.622  59.560  0.00  0.00     0.030 H 
ATOM     34  H14 FFZ d   1     116.307  11.154  59.383  0.00  0.00     0.030 H 
ENDBRANCH  29  31
BRANCH  29  35
ATOM     35  C21 FFZ d   1     118.628  12.354  57.083  0.00  0.00    -0.056 C 
ATOM     36  H15 FFZ d   1     119.370  11.844  56.451  0.00  0.00     0.030 H 
ATOM     37  H16 FFZ d   1     119.139  13.072  57.741  0.00  0.00     0.030 H 
ATOM     38  H17 FFZ d   1     117.909  12.889  56.445  0.00  0.00     0.030 H 
ENDBRANCH  29  35
ENDBRANCH  18  29
ENDBRANCH   4  10
BRANCH   6  39
ATOM     39  C8  FFZ d   1     121.473  14.844  62.449  0.00  0.00    -0.054 C 
ATOM     40  C9  FFZ d   1     121.729  15.973  62.169  0.00  0.00    -0.000 C 
BRANCH  40  41
ATOM     41  C10 FFZ d   1     121.959  17.317  61.768  0.00  0.00     0.297 C 
ATOM     42  N1  FFZ d   1     121.639  17.574  60.488  0.00  0.00    -0.346 N 
ATOM     43  H29 FFZ d   1     122.140  17.117  59.753  0.00  0.00     0.163 HD
ATOM     44  O2  FFZ d   1     122.441  18.133  62.554  0.00  0.00    -0.258 OA
BRANCH  42  45
ATOM     45  C11 FFZ d   1     120.572  18.509  60.156  0.00  0.00     0.020 C 
ATOM     46  H7  FFZ d   1     120.428  19.191  61.007  0.00  0.00     0.071 H 
ATOM     47  H8  FFZ d   1     120.876  19.086  59.270  0.00  0.00     0.071 H 
BRANCH  45  48
ATOM     48  C12 FFZ d   1     119.253  17.829  59.857  0.00  0.00    -0.041 A 
ATOM     49  C13 FFZ d   1     118.070  18.559  59.830  0.00  0.00    -0.075 A 
ATOM     50  C14 FFZ d   1     116.861  17.943  59.538  0.00  0.00    -0.082 A 
ATOM     51  H4  FFZ d   1     118.092  19.622  60.040  0.00  0.00     0.084 H 
ATOM     52  C15 FFZ d   1     116.820  16.593  59.271  0.00  0.00    -0.083 A 
ATOM     53  H9  FFZ d   1     115.947  18.526  59.520  0.00  0.00     0.083 H 
ATOM     54  C16 FFZ d   1     117.982  15.858  59.290  0.00  0.00    -0.082 A 
ATOM     55  H10 FFZ d   1     115.875  16.111  59.047  0.00  0.00     0.083 H 
ATOM     56  C17 FFZ d   1     119.195  16.467  59.585  0.00  0.00    -0.075 A 
ATOM     57  H5  FFZ d   1     117.951  14.796  59.073  0.00  0.00     0.083 H 
ATOM     58  H6  FFZ d   1     120.103  15.876  59.603  0.00  0.00     0.084 H 
ENDBRANCH  45  48
ENDBRANCH  42  45
ENDBRANCH  40  41
ENDBRANCH   6  39
BRANCH   1  59
ATOM     59  O1  FFZ d   1     122.008  13.731  64.910  0.00  0.00    -0.354 OA
BRANCH  59  60
ATOM     60  C1  FFZ d   1     122.858  13.198  65.930  0.00  0.00     0.010 C 
ATOM     61  H1  FFZ d   1     123.158  14.004  66.616  0.00  0.00     0.066 H 
ATOM     62  H2  FFZ d   1     123.754  12.758  65.468  0.00  0.00     0.066 H 
ATOM     63  H3  FFZ d   1     122.316  12.422  66.491  0.00  0.00     0.066 H 
ENDBRANCH  59  60
ENDBRANCH   1  59
TORSDOF 10
