REMARK  7 active torsions:
REMARK  status: ('A' for Active; 'I' for Inactive)
REMARK    1  A    between atoms: C7_5  and  C8_16 
REMARK    2  A    between atoms: C4_7  and  N1_8 
REMARK    3  A    between atoms: N1_8  and  C3_9 
REMARK    4  A    between atoms: C_14  and  N_15 
REMARK    5  A    between atoms: N3_19  and  C14_20 
REMARK    6  A    between atoms: C9_21  and  C10_22 
REMARK    7  A    between atoms: C10_22  and  C11_23 
ROOT
ATOM      1  F   LCI d   1      -1.780 -16.137  -6.664  0.00  0.00    -0.202 F 
ATOM      2  C6  LCI d   1      -2.669 -16.164  -7.653  0.00  0.00     0.164 A 
ATOM      3  C5  LCI d   1      -2.757 -15.109  -8.540  0.00  0.00     0.060 A 
ATOM      4  N2  LCI d   1      -3.679 -15.133  -9.569  0.00  0.00    -0.072 NA
ATOM      5  C7  LCI d   1      -3.514 -17.247  -7.807  0.00  0.00     0.129 A 
ATOM      6  N5  LCI d   1      -4.433 -17.266  -8.834  0.00  0.00    -0.059 NA
ATOM      7  C4  LCI d   1      -4.521 -16.216  -9.718  0.00  0.00     0.723 A 
ATOM      8  H1  LCI d   1      -2.098 -14.256  -8.428  0.00  0.00     0.120 H 
ENDROOT
BRANCH   7   9
ATOM      9  N1  LCI d   1      -5.470 -16.266 -10.755  0.00  0.00    -0.218 N 
ATOM     10  H2  LCI d   1      -5.579 -15.465 -11.394  0.00  0.00     0.178 HD
BRANCH   9  11
ATOM     11  C3  LCI d   1      -6.310 -17.467 -10.927  0.00  0.00     0.026 C 
ATOM     12  C2  LCI d   1      -7.553 -17.098 -11.738  0.00  0.00    -0.044 C 
ATOM     13  C1  LCI d   1      -8.484 -18.311 -11.860  0.00  0.00    -0.037 C 
ATOM     14  H4  LCI d   1      -7.248 -16.772 -12.743  0.00  0.00     0.036 H 
ATOM     15  H5  LCI d   1      -8.087 -16.279 -11.233  0.00  0.00     0.036 H 
ATOM     16  C   LCI d   1      -7.745 -19.490 -12.514  0.00  0.00     0.100 C 
ATOM     17  H6  LCI d   1      -9.353 -18.040 -12.478  0.00  0.00     0.036 H 
ATOM     18  H7  LCI d   1      -8.825 -18.608 -10.857  0.00  0.00     0.036 H 
ATOM     19  C17 LCI d   1      -6.482 -19.843 -11.713  0.00  0.00    -0.037 C 
ATOM     20  H12 LCI d   1      -7.458 -19.215 -13.540  0.00  0.00     0.083 H 
ATOM     21  C16 LCI d   1      -5.560 -18.618 -11.626  0.00  0.00    -0.044 C 
ATOM     22  H10 LCI d   1      -6.769 -20.156 -10.698  0.00  0.00     0.036 H 
ATOM     23  H11 LCI d   1      -5.950 -20.665 -12.214  0.00  0.00     0.036 H 
ATOM     24  H8  LCI d   1      -4.660 -18.875 -11.048  0.00  0.00     0.036 H 
ATOM     25  H9  LCI d   1      -5.268 -18.305 -12.639  0.00  0.00     0.036 H 
ATOM     26  H3  LCI d   1      -6.624 -17.815  -9.932  0.00  0.00     0.073 H 
BRANCH  16  27
ATOM     27  N   LCI d   1      -8.641 -20.654 -12.551  0.00  0.00    -0.075 N 
ATOM     28  H13 LCI d   1      -9.470 -20.423 -13.076  0.00  0.00     0.274 HD
ATOM     29  H14 LCI d   1      -8.899 -20.909 -11.611  0.00  0.00     0.274 HD
ATOM     30  H15 LCI d   1      -8.169 -21.428 -12.992  0.00  0.00     0.274 HD
ENDBRANCH  16  27
ENDBRANCH   9  11
ENDBRANCH   7   9
BRANCH   5  31
ATOM     31  C8  LCI d   1      -3.468 -18.400  -6.893  0.00  0.00     0.040 A 
ATOM     32  C15 LCI d   1      -2.729 -18.448  -5.735  0.00  0.00     0.036 A 
ATOM     33  N4  LCI d   1      -2.954 -19.660  -5.192  0.00  0.00    -0.184 NA
ATOM     34  H16 LCI d   1      -2.089 -17.663  -5.336  0.00  0.00     0.118 H 
ATOM     35  N3  LCI d   1      -3.744 -20.316  -5.919  0.00  0.00    -0.278 N 
ATOM     36  C9  LCI d   1      -4.108 -19.604  -6.995  0.00  0.00     0.044 A 
BRANCH  35  37
ATOM     37  C14 LCI d   1      -4.194 -21.682  -5.611  0.00  0.00     0.003 C 
ATOM     38  H17 LCI d   1      -4.877 -22.029  -6.400  0.00  0.00     0.059 H 
ATOM     39  H18 LCI d   1      -4.718 -21.686  -4.644  0.00  0.00     0.059 H 
ATOM     40  H19 LCI d   1      -3.323 -22.352  -5.559  0.00  0.00     0.059 H 
ENDBRANCH  35  37
BRANCH  36  41
ATOM     41  C10 LCI d   1      -5.042 -20.039  -8.103  0.00  0.00    -0.021 C 
ATOM     42  H20 LCI d   1      -4.883 -21.107  -8.314  0.00  0.00     0.043 H 
ATOM     43  H21 LCI d   1      -4.830 -19.451  -9.008  0.00  0.00     0.043 H 
BRANCH  41  44
ATOM     44  C11 LCI d   1      -6.494 -19.818  -7.686  0.00  0.00    -0.049 A 
ATOM     45  C13 LCI d   1      -7.319 -21.057  -8.041  0.00  0.00    -0.061 A 
ATOM     46  C12 LCI d   1      -6.856 -20.833  -6.602  0.00  0.00    -0.061 A 
ATOM     47  H23 LCI d   1      -6.872 -21.861  -8.644  0.00  0.00     0.033 H 
ATOM     48  H24 LCI d   1      -8.383 -20.954  -8.299  0.00  0.00     0.033 H 
ATOM     49  H25 LCI d   1      -7.587 -20.569  -5.824  0.00  0.00     0.033 H 
ATOM     50  H26 LCI d   1      -6.076 -21.477  -6.169  0.00  0.00     0.033 H 
ATOM     51  H22 LCI d   1      -6.857 -18.781  -7.733  0.00  0.00     0.040 H 
ENDBRANCH  41  44
ENDBRANCH  36  41
ENDBRANCH   5  31
TORSDOF 7
