REMARK  7 active torsions:
REMARK  status: ('A' for Active; 'I' for Inactive)
REMARK    1  A    between atoms: C7_5  and  C8_16 
REMARK    2  A    between atoms: C4_7  and  N1_8 
REMARK    3  A    between atoms: N1_8  and  C3_9 
REMARK    4  A    between atoms: C_14  and  N_15 
REMARK    5  A    between atoms: N3_19  and  C14_20 
REMARK    6  A    between atoms: C9_21  and  C10_22 
REMARK    7  A    between atoms: C10_22  and  C11_23 
ROOT
ATOM      1  F   LCI d   1      -2.993   2.902  -4.643  0.00  0.00    -0.202 F 
ATOM      2  C6  LCI d   1      -1.945   2.829  -3.832  0.00  0.00     0.164 A 
ATOM      3  C5  LCI d   1      -1.966   1.790  -2.924  0.00  0.00     0.060 A 
ATOM      4  N2  LCI d   1      -0.913   1.608  -2.044  0.00  0.00    -0.072 NA
ATOM      5  C7  LCI d   1      -0.878   3.723  -3.843  0.00  0.00     0.129 A 
ATOM      6  N5  LCI d   1       0.182   3.531  -2.976  0.00  0.00    -0.059 NA
ATOM      7  C4  LCI d   1       0.151   2.494  -2.088  0.00  0.00     0.723 A 
ATOM      8  H1  LCI d   1      -2.812   1.113  -2.900  0.00  0.00     0.120 H 
ENDROOT
BRANCH   7   9
ATOM      9  N1  LCI d   1       1.224   2.331  -1.242  0.00  0.00    -0.218 N 
ATOM     10  H2  LCI d   1       1.188   1.594  -0.523  0.00  0.00     0.178 HD
BRANCH   9  11
ATOM     11  C3  LCI d   1       2.401   3.166  -1.334  0.00  0.00     0.026 C 
ATOM     12  C2  LCI d   1       3.087   2.998   0.029  0.00  0.00    -0.044 C 
ATOM     13  C1  LCI d   1       4.427   3.695   0.031  0.00  0.00    -0.037 C 
ATOM     14  H4  LCI d   1       3.235   1.927   0.231  0.00  0.00     0.036 H 
ATOM     15  H5  LCI d   1       2.450   3.434   0.812  0.00  0.00     0.036 H 
ATOM     16  C   LCI d   1       5.363   3.226  -1.093  0.00  0.00     0.100 C 
ATOM     17  H6  LCI d   1       4.918   3.502   0.996  0.00  0.00     0.036 H 
ATOM     18  H7  LCI d   1       4.258   4.776  -0.085  0.00  0.00     0.036 H 
ATOM     19  C17 LCI d   1       4.702   3.458  -2.464  0.00  0.00    -0.037 C 
ATOM     20  H12 LCI d   1       5.595   2.158  -0.966  0.00  0.00     0.083 H 
ATOM     21  C16 LCI d   1       3.357   2.751  -2.482  0.00  0.00    -0.044 C 
ATOM     22  H10 LCI d   1       4.556   4.536  -2.627  0.00  0.00     0.036 H 
ATOM     23  H11 LCI d   1       5.345   3.051  -3.259  0.00  0.00     0.036 H 
ATOM     24  H8  LCI d   1       2.863   2.975  -3.439  0.00  0.00     0.036 H 
ATOM     25  H9  LCI d   1       3.536   1.668  -2.406  0.00  0.00     0.036 H 
ATOM     26  H3  LCI d   1       2.104   4.214  -1.487  0.00  0.00     0.073 H 
BRANCH  16  27
ATOM     27  N   LCI d   1       6.593   4.024  -1.029  0.00  0.00    -0.075 N 
ATOM     28  H13 LCI d   1       7.039   3.883  -0.136  0.00  0.00     0.274 HD
ATOM     29  H14 LCI d   1       6.367   5.000  -1.141  0.00  0.00     0.274 HD
ATOM     30  H15 LCI d   1       7.218   3.737  -1.766  0.00  0.00     0.274 HD
ENDBRANCH  16  27
ENDBRANCH   9  11
ENDBRANCH   7   9
BRANCH   5  31
ATOM     31  C8  LCI d   1      -0.791   4.829  -4.843  0.00  0.00     0.040 A 
ATOM     32  C15 LCI d   1      -1.886   5.273  -5.612  0.00  0.00     0.036 A 
ATOM     33  N4  LCI d   1      -1.449   6.218  -6.436  0.00  0.00    -0.184 NA
ATOM     34  H16 LCI d   1      -2.909   4.906  -5.543  0.00  0.00     0.118 H 
ATOM     35  N3  LCI d   1      -0.189   6.357  -6.261  0.00  0.00    -0.278 N 
ATOM     36  C9  LCI d   1       0.315   5.536  -5.310  0.00  0.00     0.044 A 
BRANCH  35  37
ATOM     37  C14 LCI d   1       0.564   7.320  -7.096  0.00  0.00     0.003 C 
ATOM     38  H17 LCI d   1       1.625   7.304  -6.807  0.00  0.00     0.059 H 
ATOM     39  H18 LCI d   1       0.158   8.331  -6.946  0.00  0.00     0.059 H 
ATOM     40  H19 LCI d   1       0.468   7.040  -8.155  0.00  0.00     0.059 H 
ENDBRANCH  35  37
BRANCH  36  41
ATOM     41  C10 LCI d   1       1.768   5.455  -4.864  0.00  0.00    -0.021 C 
ATOM     42  H20 LCI d   1       2.410   5.781  -5.696  0.00  0.00     0.043 H 
ATOM     43  H21 LCI d   1       2.000   4.410  -4.609  0.00  0.00     0.043 H 
BRANCH  41  44
ATOM     44  C11 LCI d   1       2.066   6.343  -3.631  0.00  0.00    -0.049 A 
ATOM     45  C13 LCI d   1       3.528   6.808  -3.586  0.00  0.00    -0.061 A 
ATOM     46  C12 LCI d   1       2.438   7.761  -4.035  0.00  0.00    -0.061 A 
ATOM     47  H23 LCI d   1       4.253   6.417  -4.316  0.00  0.00     0.033 H 
ATOM     48  H24 LCI d   1       4.028   6.960  -2.618  0.00  0.00     0.033 H 
ATOM     49  H25 LCI d   1       2.151   8.607  -3.393  0.00  0.00     0.033 H 
ATOM     50  H26 LCI d   1       2.376   8.064  -5.090  0.00  0.00     0.033 H 
ATOM     51  H22 LCI d   1       1.475   6.091  -2.738  0.00  0.00     0.040 H 
ENDBRANCH  41  44
ENDBRANCH  36  41
ENDBRANCH   5  31
TORSDOF 7
