REMARK  4 active torsions:
REMARK  status: ('A' for Active; 'I' for Inactive)
REMARK    1  A    between atoms: N_1  and  CA_2 
REMARK    2  A    between atoms: CA_2  and  C_3 
REMARK    3  A    between atoms: CA_2  and  CB_5 
REMARK    4  A    between atoms: CB_5  and  CG_6 
ROOT
ATOM      1  CA  ASP d   1     -12.597 -15.014  14.195  0.00  0.00     0.191 C 
ATOM      2  H4  ASP d   1     -11.788 -15.103  14.935  0.00  0.00     0.102 H 
ENDROOT
BRANCH   1   3
ATOM      3  N   ASP d   1     -13.795 -14.540  14.878  0.00  0.00    -0.065 N 
ATOM      4  H1  ASP d   1     -14.068 -15.209  15.581  0.00  0.00     0.275 HD
ATOM      5  H2  ASP d   1     -14.542 -14.431  14.210  0.00  0.00     0.275 HD
ATOM      6  H3  ASP d   1     -13.604 -13.652  15.315  0.00  0.00     0.275 HD
ENDBRANCH   1   3
BRANCH   1   7
ATOM      7  C   ASP d   1     -12.165 -14.018  13.126  0.00  0.00     0.205 C 
ATOM      8  O   ASP d   1     -11.318 -14.334  12.286  0.00  0.00    -0.646 OA
ATOM      9  OXT ASP d   1     -12.683 -12.892  13.116  0.00  0.00    -0.646 OA
ENDBRANCH   1   7
BRANCH   1  10
ATOM     10  CB  ASP d   1     -12.840 -16.406  13.570  0.00  0.00     0.051 C 
ATOM     11  H5  ASP d   1     -13.240 -17.075  14.346  0.00  0.00     0.053 H 
ATOM     12  H6  ASP d   1     -11.880 -16.800  13.205  0.00  0.00     0.053 H 
BRANCH  10  13
ATOM     13  CG  ASP d   1     -13.820 -16.366  12.411  0.00  0.00     0.175 C 
ATOM     14  OD1 ASP d   1     -13.917 -17.374  11.679  0.00  0.00    -0.648 OA
ATOM     15  OD2 ASP d   1     -14.510 -15.344  12.233  0.00  0.00    -0.648 OA
ENDBRANCH  10  13
ENDBRANCH   1  10
TORSDOF 4
