REMARK  5 active torsions:
REMARK  status: ('A' for Active; 'I' for Inactive)
REMARK    1  A    between atoms: N_1  and  CA_2 
REMARK    2  A    between atoms: CA_2  and  C_3 
REMARK    3  A    between atoms: CA_2  and  CB_5 
REMARK    4  A    between atoms: CB_5  and  CG_6 
REMARK    5  A    between atoms: CG_6  and  CD_7 
ROOT
ATOM      1  CA  GLU d   1     -11.784 -14.072  14.188  0.00  0.00     0.183 C 
ATOM      2  H4  GLU d   1     -11.009 -13.881  14.945  0.00  0.00     0.101 H 
ENDROOT
BRANCH   1   3
ATOM      3  N   GLU d   1     -13.091 -13.744  14.776  0.00  0.00    -0.065 N 
ATOM      4  H1  GLU d   1     -13.261 -14.339  15.571  0.00  0.00     0.275 HD
ATOM      5  H2  GLU d   1     -13.814 -13.887  14.089  0.00  0.00     0.275 HD
ATOM      6  H3  GLU d   1     -13.094 -12.780  15.071  0.00  0.00     0.275 HD
ENDBRANCH   1   3
BRANCH   1   7
ATOM      7  C   GLU d   1     -11.503 -13.182  12.979  0.00  0.00     0.204 C 
ATOM      8  O   GLU d   1     -10.704 -13.505  12.091  0.00  0.00    -0.646 OA
ATOM      9  OXT GLU d   1     -12.096 -12.102  12.893  0.00  0.00    -0.646 OA
ENDBRANCH   1   7
BRANCH   1  10
ATOM     10  CB  GLU d   1     -11.712 -15.562  13.790  0.00  0.00    -0.020 C 
ATOM     11  H5  GLU d   1     -11.369 -16.130  14.667  0.00  0.00     0.037 H 
ATOM     12  H6  GLU d   1     -10.976 -15.660  12.979  0.00  0.00     0.037 H 
BRANCH  10  13
ATOM     13  CG  GLU d   1     -13.023 -16.184  13.312  0.00  0.00     0.018 C 
ATOM     14  H7  GLU d   1     -13.791 -16.015  14.081  0.00  0.00     0.049 H 
ATOM     15  H8  GLU d   1     -12.869 -17.265  13.180  0.00  0.00     0.049 H 
BRANCH  13  16
ATOM     16  CD  GLU d   1     -13.519 -15.603  11.999  0.00  0.00     0.172 C 
ATOM     17  OE1 GLU d   1     -13.583 -16.341  10.980  0.00  0.00    -0.648 OA
ATOM     18  OE2 GLU d   1     -13.885 -14.413  11.994  0.00  0.00    -0.648 OA
ENDBRANCH  13  16
ENDBRANCH  10  13
ENDBRANCH   1  10
TORSDOF 5
