REMARK  4 active torsions:
REMARK  status: ('A' for Active; 'I' for Inactive)
REMARK    1  A    between atoms: C1_1  and  S1_19 
REMARK    2  A    between atoms: C7_7  and  C4_4 
REMARK       I    between atoms: N2_23  and  C7_7 
REMARK    3  A    between atoms: C10_10  and  C13_13 
REMARK    4  A    between atoms: S1_19  and  N1_24 
ROOT
ATOM      1  C7  FKE d   1      -3.746   5.408  12.896  0.00  0.00     0.253 C 
ATOM      2  C8  FKE d   1      -1.854   6.481  11.797  0.00  0.00    -0.002 C 
ATOM      3  C9  FKE d   1      -1.820   7.965  12.122  0.00  0.00    -0.043 C 
ATOM      4  C10 FKE d   1      -1.044   8.231  13.412  0.00  0.00    -0.026 C 
ATOM      5  C11 FKE d   1      -1.685   7.403  14.524  0.00  0.00    -0.043 C 
ATOM      6  C12 FKE d   1      -1.718   5.929  14.160  0.00  0.00    -0.002 C 
ATOM      7  O3  FKE d   1      -4.525   5.934  12.120  0.00  0.00    -0.267 OA
ATOM      8  N2  FKE d   1      -2.435   5.697  12.898  0.00  0.00    -0.348 N 
ATOM      9  H5  FKE d   1      -0.827   6.132  11.614  0.00  0.00     0.064 H 
ATOM     10  H6  FKE d   1      -2.460   6.328  10.892  0.00  0.00     0.064 H 
ATOM     11  H7  FKE d   1      -2.851   8.330  12.242  0.00  0.00     0.036 H 
ATOM     12  H8  FKE d   1      -1.335   8.503  11.294  0.00  0.00     0.036 H 
ATOM     13  H9  FKE d   1      -0.003   7.902  13.276  0.00  0.00     0.047 H 
ATOM     14  H10 FKE d   1      -2.714   7.756  14.687  0.00  0.00     0.036 H 
ATOM     15  H11 FKE d   1      -1.103   7.532  15.448  0.00  0.00     0.036 H 
ATOM     16  H12 FKE d   1      -2.223   5.374  14.964  0.00  0.00     0.064 H 
ATOM     17  H13 FKE d   1      -0.685   5.564  14.056  0.00  0.00     0.064 H 
ENDROOT
BRANCH   1  18
ATOM     18  C4  FKE d   1      -4.237   4.363  13.847  0.00  0.00     0.032 A 
ATOM     19  C3  FKE d   1      -5.548   4.385  14.309  0.00  0.00    -0.066 A 
ATOM     20  C2  FKE d   1      -6.017   3.399  15.159  0.00  0.00    -0.059 A 
ATOM     21  H2  FKE d   1      -6.211   5.185  13.999  0.00  0.00     0.085 H 
ATOM     22  C1  FKE d   1      -5.166   2.379  15.554  0.00  0.00     0.079 A 
ATOM     23  H1  FKE d   1      -7.041   3.424  15.513  0.00  0.00     0.085 H 
ATOM     24  C6  FKE d   1      -3.854   2.347  15.110  0.00  0.00    -0.059 A 
ATOM     25  C5  FKE d   1      -3.396   3.336  14.259  0.00  0.00    -0.066 A 
ATOM     26  H4  FKE d   1      -3.190   1.551  15.428  0.00  0.00     0.085 H 
ATOM     27  H3  FKE d   1      -2.370   3.310  13.909  0.00  0.00     0.085 H 
BRANCH  22  28
ATOM     28  S1  FKE d   1      -5.777   1.071  16.572  0.00  0.00     0.256 S 
ATOM     29  O1  FKE d   1      -5.203   1.245  17.873  0.00  0.00    -0.201 OA
ATOM     30  O2  FKE d   1      -7.204   1.064  16.453  0.00  0.00    -0.201 OA
BRANCH  28  31
ATOM     31  N1  FKE d   1      -5.238  -0.321  15.991  0.00  0.00    -0.324 N 
ATOM     32  H19 FKE d   1      -5.484  -1.179  16.441  0.00  0.00     0.169 HD
ATOM     33  H20 FKE d   1      -4.656  -0.332  15.178  0.00  0.00     0.169 HD
ENDBRANCH  28  31
ENDBRANCH  22  28
ENDBRANCH   1  18
BRANCH   4  34
ATOM     34  C13 FKE d   1      -1.034   9.716  13.762  0.00  0.00    -0.054 A 
ATOM     35  C14 FKE d   1      -1.968  10.588  13.214  0.00  0.00    -0.076 A 
ATOM     36  C15 FKE d   1      -1.924  11.944  13.491  0.00  0.00    -0.082 A 
ATOM     37  H14 FKE d   1      -2.742  10.201  12.561  0.00  0.00     0.084 H 
ATOM     38  C16 FKE d   1      -0.948  12.451  14.322  0.00  0.00    -0.083 A 
ATOM     39  H15 FKE d   1      -2.659  12.609  13.053  0.00  0.00     0.083 H 
ATOM     40  C17 FKE d   1      -0.017  11.600  14.880  0.00  0.00    -0.082 A 
ATOM     41  H16 FKE d   1      -0.912  13.513  14.536  0.00  0.00     0.083 H 
ATOM     42  C18 FKE d   1      -0.061  10.243  14.602  0.00  0.00    -0.076 A 
ATOM     43  H17 FKE d   1       0.750  11.993  15.537  0.00  0.00     0.083 H 
ATOM     44  H18 FKE d   1       0.675   9.583  15.047  0.00  0.00     0.084 H 
ENDBRANCH   4  34
TORSDOF 4
