REMARK  5 active torsions:
REMARK  status: ('A' for Active; 'I' for Inactive)
REMARK    1  A    between atoms: C1_3  and  S1_4 
REMARK    2  A    between atoms: S1_4  and  N1_25 
REMARK    3  A    between atoms: C4_9  and  C7_10 
REMARK       I    between atoms: C7_10  and  N2_12 
REMARK    4  A    between atoms: C10_17  and  O4_18 
REMARK    5  A    between atoms: C10_17  and  C13_19 
ROOT
ATOM      1  C7  FKQ d   1      -3.771   5.367  12.893  0.00  0.00     0.253 C 
ATOM      2  O3  FKQ d   1      -4.537   5.829  12.065  0.00  0.00    -0.267 OA
ATOM      3  N2  FKQ d   1      -2.467   5.689  12.918  0.00  0.00    -0.348 N 
ATOM      4  C12 FKQ d   1      -1.778   5.957  14.190  0.00  0.00     0.001 C 
ATOM      5  C11 FKQ d   1      -1.753   7.440  14.517  0.00  0.00    -0.017 C 
ATOM      6  C8  FKQ d   1      -1.874   6.456  11.808  0.00  0.00     0.001 C 
ATOM      7  C9  FKQ d   1      -1.830   7.948  12.103  0.00  0.00    -0.017 C 
ATOM      8  C10 FKQ d   1      -1.078   8.235  13.402  0.00  0.00     0.088 C 
ATOM      9  H5  FKQ d   1      -0.743   5.591  14.118  0.00  0.00     0.064 H 
ATOM     10  H6  FKQ d   1      -2.301   5.423  14.997  0.00  0.00     0.064 H 
ATOM     11  H7  FKQ d   1      -1.198   7.592  15.454  0.00  0.00     0.040 H 
ATOM     12  H8  FKQ d   1      -2.786   7.799  14.640  0.00  0.00     0.040 H 
ATOM     13  H9  FKQ d   1      -2.475   6.291  10.902  0.00  0.00     0.064 H 
ATOM     14  H10 FKQ d   1      -0.848   6.098  11.637  0.00  0.00     0.064 H 
ATOM     15  H11 FKQ d   1      -2.859   8.326  12.194  0.00  0.00     0.040 H 
ATOM     16  H12 FKQ d   1      -1.322   8.462  11.274  0.00  0.00     0.040 H 
ENDROOT
BRANCH   1  17
ATOM     17  C4  FKQ d   1      -4.267   4.340  13.867  0.00  0.00     0.032 A 
ATOM     18  C3  FKQ d   1      -5.585   4.359  14.310  0.00  0.00    -0.066 A 
ATOM     19  C2  FKQ d   1      -6.060   3.382  15.169  0.00  0.00    -0.059 A 
ATOM     20  H1  FKQ d   1      -6.249   5.149  13.979  0.00  0.00     0.085 H 
ATOM     21  C1  FKQ d   1      -5.209   2.372  15.592  0.00  0.00     0.079 A 
ATOM     22  H2  FKQ d   1      -7.089   3.407  15.508  0.00  0.00     0.085 H 
ATOM     23  C6  FKQ d   1      -3.891   2.342  15.166  0.00  0.00    -0.059 A 
ATOM     24  C5  FKQ d   1      -3.427   3.323  14.307  0.00  0.00    -0.066 A 
ATOM     25  H3  FKQ d   1      -3.227   1.555  15.504  0.00  0.00     0.085 H 
ATOM     26  H4  FKQ d   1      -2.396   3.298  13.973  0.00  0.00     0.085 H 
BRANCH  21  27
ATOM     27  S1  FKQ d   1      -5.819   1.094  16.655  0.00  0.00     0.256 S 
ATOM     28  O1  FKQ d   1      -5.192   1.274  17.932  0.00  0.00    -0.201 OA
ATOM     29  O2  FKQ d   1      -7.248   1.130  16.591  0.00  0.00    -0.201 OA
BRANCH  27  30
ATOM     30  N1  FKQ d   1      -5.341  -0.321  16.085  0.00  0.00    -0.324 N 
ATOM     31  H19 FKQ d   1      -5.595  -1.163  16.561  0.00  0.00     0.169 HD
ATOM     32  H20 FKQ d   1      -4.788  -0.364  15.253  0.00  0.00     0.169 HD
ENDBRANCH  27  30
ENDBRANCH  21  27
ENDBRANCH   1  17
BRANCH   8  33
ATOM     33  O4  FKQ d   1       0.244   7.720  13.252  0.00  0.00    -0.385 OA
ATOM     34  H13 FKQ d   1       0.202   6.785  13.091  0.00  0.00     0.211 HD
ENDBRANCH   8  33
BRANCH   8  35
ATOM     35  C13 FKQ d   1      -1.039   9.728  13.718  0.00  0.00    -0.024 A 
ATOM     36  C14 FKQ d   1      -1.839  10.630  13.027  0.00  0.00    -0.074 A 
ATOM     37  C15 FKQ d   1      -1.748  11.992  13.266  0.00  0.00    -0.082 A 
ATOM     38  H14 FKQ d   1      -2.545  10.263  12.290  0.00  0.00     0.084 H 
ATOM     39  C16 FKQ d   1      -0.857  12.473  14.203  0.00  0.00    -0.083 A 
ATOM     40  H15 FKQ d   1      -2.378  12.681  12.716  0.00  0.00     0.083 H 
ATOM     41  C17 FKQ d   1      -0.058  11.593  14.901  0.00  0.00    -0.082 A 
ATOM     42  H16 FKQ d   1      -0.785  13.538  14.389  0.00  0.00     0.083 H 
ATOM     43  C18 FKQ d   1      -0.149  10.231  14.661  0.00  0.00    -0.074 A 
ATOM     44  H17 FKQ d   1       0.643  11.967  15.639  0.00  0.00     0.083 H 
ATOM     45  H18 FKQ d   1       0.483   9.548  15.217  0.00  0.00     0.084 H 
ENDBRANCH   8  35
TORSDOF 5
