REMARK  5 active torsions:
REMARK  status: ('A' for Active; 'I' for Inactive)
REMARK    1  A    between atoms: C1_1  and  S1_8 
REMARK       I    between atoms: N2_2  and  C7_13 
REMARK    2  A    between atoms: N3_5  and  C12_18 
REMARK    3  A    between atoms: S1_8  and  N1_26 
REMARK    4  A    between atoms: C7_13  and  C4_12 
REMARK    5  A    between atoms: C12_18  and  C13_19 
ROOT
ATOM      1  N2  FKK d   1      -3.434   5.891  12.687  0.00  0.00    -0.345 N 
ATOM      2  N3  FKK d   1      -0.775   6.719  12.026  0.00  0.00    -0.064 N 
ATOM      3  O3  FKK d   1      -5.655   6.045  12.445  0.00  0.00    -0.267 OA
ATOM      4  C7  FKK d   1      -4.690   5.531  12.988  0.00  0.00     0.253 C 
ATOM      5  C11 FKK d   1      -2.347   5.760  13.656  0.00  0.00     0.021 C 
ATOM      6  C10 FKK d   1      -1.039   5.583  12.917  0.00  0.00     0.099 C 
ATOM      7  C8  FKK d   1      -3.197   7.071  11.856  0.00  0.00     0.021 C 
ATOM      8  C9  FKK d   1      -1.901   6.898  11.103  0.00  0.00     0.099 C 
ATOM      9  H2  FKK d   1      -0.679   7.552  12.585  0.00  0.00     0.280 HD
ATOM     10  H6  FKK d   1      -2.529   4.884  14.296  0.00  0.00     0.067 H 
ATOM     11  H7  FKK d   1      -2.298   6.666  14.278  0.00  0.00     0.067 H 
ATOM     12  H8  FKK d   1      -0.222   5.503  13.649  0.00  0.00     0.078 H 
ATOM     13  H9  FKK d   1      -1.087   4.661  12.319  0.00  0.00     0.078 H 
ATOM     14  H10 FKK d   1      -3.134   7.964  12.495  0.00  0.00     0.067 H 
ATOM     15  H11 FKK d   1      -4.024   7.189  11.141  0.00  0.00     0.067 H 
ATOM     16  H12 FKK d   1      -1.978   6.013  10.454  0.00  0.00     0.078 H 
ATOM     17  H13 FKK d   1      -1.722   7.791  10.486  0.00  0.00     0.078 H 
ENDROOT
BRANCH   4  18
ATOM     18  C4  FKK d   1      -4.912   4.457  14.003  0.00  0.00     0.032 A 
ATOM     19  C3  FKK d   1      -6.075   4.460  14.760  0.00  0.00    -0.066 A 
ATOM     20  C2  FKK d   1      -6.368   3.417  15.613  0.00  0.00    -0.059 A 
ATOM     21  H3  FKK d   1      -6.763   5.294  14.680  0.00  0.00     0.085 H 
ATOM     22  C1  FKK d   1      -5.489   2.353  15.716  0.00  0.00     0.079 A 
ATOM     23  H1  FKK d   1      -7.280   3.430  16.199  0.00  0.00     0.085 H 
ATOM     24  C6  FKK d   1      -4.314   2.332  14.979  0.00  0.00    -0.059 A 
ATOM     25  C5  FKK d   1      -4.030   3.386  14.125  0.00  0.00    -0.066 A 
ATOM     26  H4  FKK d   1      -3.625   1.500  15.070  0.00  0.00     0.085 H 
ATOM     27  H5  FKK d   1      -3.113   3.377  13.547  0.00  0.00     0.085 H 
BRANCH  22  28
ATOM     28  S1  FKK d   1      -5.922   1.000  16.751  0.00  0.00     0.256 S 
ATOM     29  O2  FKK d   1      -5.244   1.190  18.000  0.00  0.00    -0.201 OA
ATOM     30  O1  FKK d   1      -7.353   0.930  16.757  0.00  0.00    -0.201 OA
BRANCH  28  31
ATOM     31  N1  FKK d   1      -5.373  -0.357  16.102  0.00  0.00    -0.324 N 
ATOM     32  H20 FKK d   1      -5.531  -1.231  16.562  0.00  0.00     0.169 HD
ATOM     33  H21 FKK d   1      -4.872  -0.331  15.237  0.00  0.00     0.169 HD
ENDBRANCH  28  31
ENDBRANCH  22  28
ENDBRANCH   4  18
BRANCH   2  34
ATOM     34  C12 FKK d   1       0.472   6.514  11.274  0.00  0.00     0.107 C 
ATOM     35  H14 FKK d   1       0.518   7.258  10.465  0.00  0.00     0.083 H 
ATOM     36  H15 FKK d   1       0.456   5.503  10.841  0.00  0.00     0.083 H 
BRANCH  34  37
ATOM     37  C13 FKK d   1       1.713   6.652  12.122  0.00  0.00    -0.032 A 
ATOM     38  C14 FKK d   1       2.517   5.553  12.384  0.00  0.00    -0.072 A 
ATOM     39  C15 FKK d   1       3.696   5.683  13.097  0.00  0.00    -0.045 A 
ATOM     40  H16 FKK d   1       2.217   4.575  12.024  0.00  0.00     0.084 H 
ATOM     41  C16 FKK d   1       4.048   6.928  13.541  0.00  0.00     0.116 A 
ATOM     42  H17 FKK d   1       4.323   4.822  13.298  0.00  0.00     0.088 H 
ATOM     43  F   FKK d   1       5.216   7.069  14.224  0.00  0.00    -0.206 F 
ATOM     44  C17 FKK d   1       3.284   8.040  13.315  0.00  0.00    -0.045 A 
ATOM     45  C18 FKK d   1       2.110   7.892  12.599  0.00  0.00    -0.072 A 
ATOM     46  H18 FKK d   1       3.591   9.011  13.687  0.00  0.00     0.088 H 
ATOM     47  H19 FKK d   1       1.490   8.760  12.408  0.00  0.00     0.084 H 
ENDBRANCH  34  37
ENDBRANCH   2  34
TORSDOF 5
