REMARK  4 active torsions:
REMARK  status: ('A' for Active; 'I' for Inactive)
REMARK    1  A    between atoms: C1_1  and  S1_19 
REMARK    2  A    between atoms: C7_7  and  C4_4 
REMARK       I    between atoms: N2_23  and  C7_7 
REMARK    3  A    between atoms: C10_10  and  C13_13 
REMARK    4  A    between atoms: S1_19  and  N1_24 
ROOT
ATOM      1  C7  FKE d   1      17.256  24.347   3.229  0.00  0.00     0.253 C 
ATOM      2  C8  FKE d   1      18.318  22.497   2.054  0.00  0.00    -0.002 C 
ATOM      3  C9  FKE d   1      19.698  22.900   1.559  0.00  0.00    -0.043 C 
ATOM      4  C10 FKE d   1      20.760  22.645   2.626  0.00  0.00    -0.026 C 
ATOM      5  C11 FKE d   1      20.351  23.411   3.881  0.00  0.00    -0.043 C 
ATOM      6  C12 FKE d   1      18.965  22.996   4.343  0.00  0.00    -0.002 C 
ATOM      7  O3  FKE d   1      16.814  24.774   2.175  0.00  0.00    -0.267 OA
ATOM      8  N2  FKE d   1      17.957  23.204   3.293  0.00  0.00    -0.348 N 
ATOM      9  H5  FKE d   1      18.310  21.414   2.246  0.00  0.00     0.064 H 
ATOM     10  H6  FKE d   1      17.577  22.737   1.278  0.00  0.00     0.064 H 
ATOM     11  H7  FKE d   1      19.691  23.971   1.308  0.00  0.00     0.036 H 
ATOM     12  H8  FKE d   1      19.943  22.314   0.661  0.00  0.00     0.036 H 
ATOM     13  H9  FKE d   1      20.782  21.570   2.856  0.00  0.00     0.047 H 
ATOM     14  H10 FKE d   1      20.349  24.489   3.660  0.00  0.00     0.036 H 
ATOM     15  H11 FKE d   1      21.075  23.202   4.682  0.00  0.00     0.036 H 
ATOM     16  H12 FKE d   1      18.689  23.593   5.225  0.00  0.00     0.064 H 
ATOM     17  H13 FKE d   1      18.984  21.930   4.613  0.00  0.00     0.064 H 
ENDROOT
BRANCH   1  18
ATOM     18  C4  FKE d   1      16.960  25.075   4.505  0.00  0.00     0.032 A 
ATOM     19  C3  FKE d   1      16.957  26.464   4.539  0.00  0.00    -0.066 A 
ATOM     20  C2  FKE d   1      16.664  27.144   5.708  0.00  0.00    -0.059 A 
ATOM     21  H2  FKE d   1      17.187  27.022   3.639  0.00  0.00     0.085 H 
ATOM     22  C1  FKE d   1      16.376  26.432   6.861  0.00  0.00     0.079 A 
ATOM     23  H1  FKE d   1      16.660  28.228   5.721  0.00  0.00     0.085 H 
ATOM     24  C6  FKE d   1      16.372  25.047   6.848  0.00  0.00    -0.059 A 
ATOM     25  C5  FKE d   1      16.663  24.376   5.671  0.00  0.00    -0.066 A 
ATOM     26  H4  FKE d   1      16.143  24.493   7.751  0.00  0.00     0.085 H 
ATOM     27  H3  FKE d   1      16.659  23.292   5.658  0.00  0.00     0.085 H 
BRANCH  22  28
ATOM     28  S1  FKE d   1      16.024  27.303   8.363  0.00  0.00     0.256 S 
ATOM     29  O1  FKE d   1      17.259  27.859   8.827  0.00  0.00    -0.201 OA
ATOM     30  O2  FKE d   1      14.935  28.192   8.090  0.00  0.00    -0.201 OA
BRANCH  28  31
ATOM     31  N1  FKE d   1      15.526  26.256   9.469  0.00  0.00    -0.324 N 
ATOM     32  H19 FKE d   1      15.281  26.575  10.385  0.00  0.00     0.169 HD
ATOM     33  H20 FKE d   1      15.460  25.284   9.243  0.00  0.00     0.169 HD
ENDBRANCH  28  31
ENDBRANCH  22  28
ENDBRANCH   1  18
BRANCH   4  34
ATOM     34  C13 FKE d   1      22.149  23.057   2.147  0.00  0.00    -0.054 A 
ATOM     35  C14 FKE d   1      22.484  24.397   1.982  0.00  0.00    -0.076 A 
ATOM     36  C15 FKE d   1      23.759  24.766   1.589  0.00  0.00    -0.082 A 
ATOM     37  H14 FKE d   1      21.737  25.162   2.163  0.00  0.00     0.084 H 
ATOM     38  C16 FKE d   1      24.718  23.802   1.353  0.00  0.00    -0.083 A 
ATOM     39  H15 FKE d   1      24.005  25.815   1.466  0.00  0.00     0.083 H 
ATOM     40  C17 FKE d   1      24.403  22.469   1.510  0.00  0.00    -0.082 A 
ATOM     41  H16 FKE d   1      25.716  24.092   1.045  0.00  0.00     0.083 H 
ATOM     42  C18 FKE d   1      23.127  22.099   1.903  0.00  0.00    -0.076 A 
ATOM     43  H17 FKE d   1      25.154  21.710   1.326  0.00  0.00     0.083 H 
ATOM     44  H18 FKE d   1      22.888  21.048   2.022  0.00  0.00     0.084 H 
ENDBRANCH   4  34
TORSDOF 4
