REMARK  5 active torsions:
REMARK  status: ('A' for Active; 'I' for Inactive)
REMARK    1  A    between atoms: C1_3  and  S1_4 
REMARK    2  A    between atoms: S1_4  and  N1_25 
REMARK    3  A    between atoms: C4_9  and  C7_10 
REMARK       I    between atoms: C7_10  and  N2_12 
REMARK    4  A    between atoms: C10_17  and  O4_18 
REMARK    5  A    between atoms: C10_17  and  C13_19 
ROOT
ATOM      1  C7  FKQ d   1      16.779  24.532   3.167  0.00  0.00     0.253 C 
ATOM      2  O3  FKQ d   1      16.415  25.060   2.131  0.00  0.00    -0.267 OA
ATOM      3  N2  FKQ d   1      17.375  23.328   3.178  0.00  0.00    -0.348 N 
ATOM      4  C12 FKQ d   1      18.364  22.982   4.209  0.00  0.00     0.001 C 
ATOM      5  C11 FKQ d   1      19.776  23.336   3.771  0.00  0.00    -0.017 C 
ATOM      6  C8  FKQ d   1      17.684  22.658   1.905  0.00  0.00     0.001 C 
ATOM      7  C9  FKQ d   1      19.080  23.010   1.416  0.00  0.00    -0.017 C 
ATOM      8  C10 FKQ d   1      20.140  22.646   2.456  0.00  0.00     0.088 C 
ATOM      9  H5  FKQ d   1      18.312  21.901   4.405  0.00  0.00     0.064 H 
ATOM     10  H6  FKQ d   1      18.127  23.534   5.130  0.00  0.00     0.064 H 
ATOM     11  H7  FKQ d   1      20.483  23.017   4.551  0.00  0.00     0.040 H 
ATOM     12  H8  FKQ d   1      19.846  24.425   3.635  0.00  0.00     0.040 H 
ATOM     13  H9  FKQ d   1      16.950  22.972   1.148  0.00  0.00     0.064 H 
ATOM     14  H10 FKQ d   1      17.619  21.569   2.049  0.00  0.00     0.064 H 
ATOM     15  H11 FKQ d   1      19.128  24.091   1.218  0.00  0.00     0.040 H 
ATOM     16  H12 FKQ d   1      19.285  22.457   0.487  0.00  0.00     0.040 H 
ENDROOT
BRANCH   1  17
ATOM     17  C4  FKQ d   1      16.507  25.207   4.478  0.00  0.00     0.032 A 
ATOM     18  C3  FKQ d   1      16.611  26.588   4.593  0.00  0.00    -0.066 A 
ATOM     19  C2  FKQ d   1      16.337  27.221   5.793  0.00  0.00    -0.059 A 
ATOM     20  H1  FKQ d   1      16.910  27.176   3.733  0.00  0.00     0.085 H 
ATOM     21  C1  FKQ d   1      15.958  26.468   6.892  0.00  0.00     0.079 A 
ATOM     22  H2  FKQ d   1      16.419  28.299   5.872  0.00  0.00     0.085 H 
ATOM     23  C6  FKQ d   1      15.844  25.090   6.796  0.00  0.00    -0.059 A 
ATOM     24  C5  FKQ d   1      16.119  24.468   5.590  0.00  0.00    -0.066 A 
ATOM     25  H3  FKQ d   1      15.542  24.505   7.657  0.00  0.00     0.085 H 
ATOM     26  H4  FKQ d   1      16.031  23.390   5.512  0.00  0.00     0.085 H 
BRANCH  21  27
ATOM     27  S1  FKQ d   1      15.656  27.271   8.439  0.00  0.00     0.256 S 
ATOM     28  O1  FKQ d   1      16.907  27.803   8.890  0.00  0.00    -0.201 OA
ATOM     29  O2  FKQ d   1      14.562  28.175   8.242  0.00  0.00    -0.201 OA
BRANCH  27  30
ATOM     30  N1  FKQ d   1      15.185  26.174   9.504  0.00  0.00    -0.324 N 
ATOM     31  H19 FKQ d   1      14.968  26.448  10.441  0.00  0.00     0.169 HD
ATOM     32  H20 FKQ d   1      15.107  25.215   9.233  0.00  0.00     0.169 HD
ENDBRANCH  27  30
ENDBRANCH  21  27
ENDBRANCH   1  17
BRANCH   8  33
ATOM     33  O4  FKQ d   1      20.055  21.239   2.675  0.00  0.00    -0.385 OA
ATOM     34  H13 FKQ d   1      20.704  20.980   3.319  0.00  0.00     0.211 HD
ENDBRANCH   8  33
BRANCH   8  35
ATOM     35  C13 FKQ d   1      21.540  23.035   1.989  0.00  0.00    -0.024 A 
ATOM     36  C14 FKQ d   1      21.874  24.362   1.749  0.00  0.00    -0.074 A 
ATOM     37  C15 FKQ d   1      23.147  24.712   1.329  0.00  0.00    -0.082 A 
ATOM     38  H14 FKQ d   1      21.128  25.135   1.893  0.00  0.00     0.084 H 
ATOM     39  C16 FKQ d   1      24.107  23.739   1.143  0.00  0.00    -0.083 A 
ATOM     40  H15 FKQ d   1      23.389  25.753   1.146  0.00  0.00     0.083 H 
ATOM     41  C17 FKQ d   1      23.794  22.417   1.376  0.00  0.00    -0.082 A 
ATOM     42  H16 FKQ d   1      25.103  24.013   0.815  0.00  0.00     0.083 H 
ATOM     43  C18 FKQ d   1      22.521  22.067   1.796  0.00  0.00    -0.074 A 
ATOM     44  H17 FKQ d   1      24.546  21.649   1.230  0.00  0.00     0.083 H 
ATOM     45  H18 FKQ d   1      22.286  21.024   1.977  0.00  0.00     0.084 H 
ENDBRANCH   8  35
TORSDOF 5
