REMARK  5 active torsions:
REMARK  status: ('A' for Active; 'I' for Inactive)
REMARK    1  A    between atoms: C1_1  and  S1_8 
REMARK       I    between atoms: N2_2  and  C7_13 
REMARK    2  A    between atoms: N3_5  and  C12_18 
REMARK    3  A    between atoms: S1_8  and  N1_26 
REMARK    4  A    between atoms: C7_13  and  C4_12 
REMARK    5  A    between atoms: C12_18  and  C13_19 
ROOT
ATOM      1  N2  FKK d   1      17.790  23.891   2.997  0.00  0.00    -0.345 N 
ATOM      2  N3  FKK d   1      19.922  22.022   2.569  0.00  0.00    -0.064 N 
ATOM      3  O3  FKK d   1      16.005  25.021   2.263  0.00  0.00    -0.267 OA
ATOM      4  C7  FKK d   1      16.792  24.776   3.160  0.00  0.00     0.253 C 
ATOM      5  C11 FKK d   1      18.995  23.930   3.823  0.00  0.00     0.021 C 
ATOM      6  C10 FKK d   1      19.594  22.542   3.903  0.00  0.00     0.099 C 
ATOM      7  C8  FKK d   1      18.148  23.448   1.650  0.00  0.00     0.021 C 
ATOM      8  C9  FKK d   1      18.729  22.058   1.717  0.00  0.00     0.099 C 
ATOM      9  H2  FKK d   1      20.634  22.606   2.159  0.00  0.00     0.280 HD
ATOM     10  H6  FKK d   1      18.736  24.277   4.834  0.00  0.00     0.067 H 
ATOM     11  H7  FKK d   1      19.725  24.620   3.375  0.00  0.00     0.067 H 
ATOM     12  H8  FKK d   1      20.512  22.583   4.507  0.00  0.00     0.078 H 
ATOM     13  H9  FKK d   1      18.870  21.867   4.382  0.00  0.00     0.078 H 
ATOM     14  H10 FKK d   1      18.892  24.136   1.223  0.00  0.00     0.067 H 
ATOM     15  H11 FKK d   1      17.250  23.440   1.016  0.00  0.00     0.067 H 
ATOM     16  H12 FKK d   1      17.973  21.373   2.129  0.00  0.00     0.078 H 
ATOM     17  H13 FKK d   1      19.003  21.735   0.702  0.00  0.00     0.078 H 
ENDROOT
BRANCH   4  18
ATOM     18  C4  FKK d   1      16.618  25.444   4.490  0.00  0.00     0.032 A 
ATOM     19  C3  FKK d   1      16.191  26.766   4.550  0.00  0.00    -0.066 A 
ATOM     20  C2  FKK d   1      15.870  27.355   5.758  0.00  0.00    -0.059 A 
ATOM     21  H3  FKK d   1      16.109  27.343   3.636  0.00  0.00     0.085 H 
ATOM     22  C1  FKK d   1      15.981  26.621   6.927  0.00  0.00     0.079 A 
ATOM     23  H1  FKK d   1      15.534  28.385   5.790  0.00  0.00     0.085 H 
ATOM     24  C6  FKK d   1      16.419  25.306   6.893  0.00  0.00    -0.059 A 
ATOM     25  C5  FKK d   1      16.735  24.725   5.675  0.00  0.00    -0.066 A 
ATOM     26  H4  FKK d   1      16.514  24.737   7.811  0.00  0.00     0.085 H 
ATOM     27  H5  FKK d   1      17.078  23.697   5.646  0.00  0.00     0.085 H 
BRANCH  22  28
ATOM     28  S1  FKK d   1      15.533  27.370   8.465  0.00  0.00     0.256 S 
ATOM     29  O2  FKK d   1      16.721  27.968   9.000  0.00  0.00    -0.201 OA
ATOM     30  O1  FKK d   1      14.401  28.211   8.209  0.00  0.00    -0.201 OA
BRANCH  28  31
ATOM     31  N1  FKK d   1      15.067  26.226   9.486  0.00  0.00    -0.324 N 
ATOM     32  H20 FKK d   1      14.776  26.470  10.411  0.00  0.00     0.169 HD
ATOM     33  H21 FKK d   1      15.067  25.268   9.198  0.00  0.00     0.169 HD
ENDBRANCH  28  31
ENDBRANCH  22  28
ENDBRANCH   4  18
BRANCH   2  34
ATOM     34  C12 FKK d   1      20.433  20.647   2.659  0.00  0.00     0.107 C 
ATOM     35  H14 FKK d   1      20.357  20.182   1.665  0.00  0.00     0.083 H 
ATOM     36  H15 FKK d   1      19.809  20.090   3.373  0.00  0.00     0.083 H 
BRANCH  34  37
ATOM     37  C13 FKK d   1      21.870  20.566   3.116  0.00  0.00    -0.032 A 
ATOM     38  C14 FKK d   1      22.897  21.049   2.318  0.00  0.00    -0.072 A 
ATOM     39  C15 FKK d   1      24.221  20.907   2.693  0.00  0.00    -0.045 A 
ATOM     40  H16 FKK d   1      22.658  21.546   1.385  0.00  0.00     0.084 H 
ATOM     41  C16 FKK d   1      24.495  20.278   3.877  0.00  0.00     0.116 A 
ATOM     42  H17 FKK d   1      25.020  21.284   2.065  0.00  0.00     0.088 H 
ATOM     43  F   FKK d   1      25.793  20.131   4.251  0.00  0.00    -0.206 F 
ATOM     44  C17 FKK d   1      23.518  19.790   4.699  0.00  0.00    -0.045 A 
ATOM     45  C18 FKK d   1      22.199  19.939   4.309  0.00  0.00    -0.072 A 
ATOM     46  H18 FKK d   1      23.770  19.299   5.632  0.00  0.00     0.088 H 
ATOM     47  H19 FKK d   1      21.409  19.559   4.947  0.00  0.00     0.084 H 
ENDBRANCH  34  37
ENDBRANCH   2  34
TORSDOF 5
