REMARK  6 active torsions:
REMARK  status: ('A' for Active; 'I' for Inactive)
REMARK    1  A    between atoms: C9_19  and  C10_2 
REMARK    2  A    between atoms: C11_3  and  C12_4 
REMARK       I    between atoms: N2_21  and  C11_3 
REMARK    3  A    between atoms: C12_4  and  C13_5 
REMARK    4  A    between atoms: C12_4  and  S2_27 
REMARK    5  A    between atoms: C13_5  and  C14_6 
REMARK    6  A    between atoms: C3_13  and  N2_21 
ROOT
ATOM      1  C1  FT8 d   1     -54.032  96.474  22.547  0.00  0.00     0.060 C 
ATOM      2  C2  FT8 d   1     -51.788  95.421  23.241  0.00  0.00     0.244 C 
ATOM      3  C3  FT8 d   1     -51.949  96.170  24.557  0.00  0.00     0.090 C 
ATOM      4  C4  FT8 d   1     -51.415  97.602  24.546  0.00  0.00    -0.030 C 
ATOM      5  C5  FT8 d   1     -51.795  98.383  23.291  0.00  0.00    -0.019 C 
ATOM      6  C6  FT8 d   1     -55.134  96.434  21.484  0.00  0.00    -0.037 C 
ATOM      7  C7  FT8 d   1     -54.604  96.238  20.130  0.00  0.00    -0.060 C 
ATOM      8  C8  FT8 d   1     -53.866  94.969  19.988  0.00  0.00    -0.036 C 
ATOM      9  C9  FT8 d   1     -52.680  94.882  20.946  0.00  0.00     0.100 C 
ATOM     10  N1  FT8 d   1     -52.831  95.587  22.265  0.00  0.00    -0.322 N 
ATOM     11  O3  FT8 d   1     -50.869  94.723  23.001  0.00  0.00    -0.271 OA
ATOM     12  S1  FT8 d   1     -53.548  98.235  22.828  0.00  0.00    -0.143 SA
ATOM     13  H1  FT8 d   1     -54.476  96.101  23.482  0.00  0.00     0.090 H 
ATOM     14  H10 FT8 d   1     -53.028  96.224  24.766  0.00  0.00     0.087 H 
ATOM     15  H11 FT8 d   1     -50.318  97.565  24.614  0.00  0.00     0.037 H 
ATOM     16  H12 FT8 d   1     -51.819  98.131  25.421  0.00  0.00     0.037 H 
ATOM     17  H13 FT8 d   1     -51.184  98.012  22.455  0.00  0.00     0.049 H 
ATOM     18  H14 FT8 d   1     -51.572  99.446  23.465  0.00  0.00     0.049 H 
ATOM     19  H15 FT8 d   1     -55.686  97.385  21.512  0.00  0.00     0.037 H 
ATOM     20  H16 FT8 d   1     -55.819  95.606  21.718  0.00  0.00     0.037 H 
ATOM     21  H17 FT8 d   1     -53.924  97.070  19.894  0.00  0.00     0.033 H 
ATOM     22  H18 FT8 d   1     -55.444  96.239  19.419  0.00  0.00     0.033 H 
ATOM     23  H19 FT8 d   1     -53.494  94.889  18.956  0.00  0.00     0.036 H 
ATOM     24  H20 FT8 d   1     -54.552  94.135  20.197  0.00  0.00     0.036 H 
ATOM     25  H21 FT8 d   1     -52.503  93.815  21.146  0.00  0.00     0.090 H 
ENDROOT
BRANCH   3  26
ATOM     26  N2  FT8 d   1     -51.313  95.440  25.643  0.00  0.00    -0.347 N 
ATOM     27  C11 FT8 d   1     -51.811  94.128  25.927  0.00  0.00     0.232 C 
ATOM     28  O4  FT8 d   1     -52.703  93.646  25.314  0.00  0.00    -0.272 OA
ATOM     29  H22 FT8 d   1     -50.561  95.837  26.168  0.00  0.00     0.163 HD
BRANCH  27  30
ATOM     30  C12 FT8 d   1     -51.184  93.404  27.093  0.00  0.00     0.069 C 
ATOM     31  H2  FT8 d   1     -50.271  93.908  27.443  0.00  0.00     0.071 H 
BRANCH  30  32
ATOM     32  C13 FT8 d   1     -50.840  91.974  26.697  0.00  0.00    -0.021 C 
ATOM     33  H3  FT8 d   1     -50.441  91.983  25.672  0.00  0.00     0.042 H 
ATOM     34  H4  FT8 d   1     -51.761  91.373  26.727  0.00  0.00     0.042 H 
BRANCH  32  35
ATOM     35  C14 FT8 d   1     -49.804  91.318  27.614  0.00  0.00    -0.057 A 
ATOM     36  C15 FT8 d   1     -48.507  91.805  27.690  0.00  0.00    -0.077 A 
ATOM     37  C16 FT8 d   1     -47.588  91.187  28.527  0.00  0.00    -0.082 A 
ATOM     38  H5  FT8 d   1     -48.213  92.664  27.098  0.00  0.00     0.084 H 
ATOM     39  C17 FT8 d   1     -47.962  90.085  29.276  0.00  0.00    -0.083 A 
ATOM     40  H6  FT8 d   1     -46.575  91.568  28.594  0.00  0.00     0.083 H 
ATOM     41  C18 FT8 d   1     -49.257  89.598  29.193  0.00  0.00    -0.082 A 
ATOM     42  H7  FT8 d   1     -47.242  89.603  29.927  0.00  0.00     0.083 H 
ATOM     43  C19 FT8 d   1     -50.176  90.214  28.360  0.00  0.00    -0.077 A 
ATOM     44  H8  FT8 d   1     -49.550  88.735  29.780  0.00  0.00     0.083 H 
ATOM     45  H9  FT8 d   1     -51.188  89.831  28.293  0.00  0.00     0.084 H 
ENDBRANCH  32  35
ENDBRANCH  30  32
BRANCH  30  46
ATOM     46  S2  FT8 d   1     -52.514  93.548  28.323  0.00  0.00    -0.168 SA
ATOM     47  H23 FT8 d   1     -52.677  94.522  28.527  0.00  0.00     0.102 HD
ENDBRANCH  30  46
ENDBRANCH  27  30
ENDBRANCH   3  26
BRANCH   9  48
ATOM     48  C10 FT8 d   1     -51.448  95.485  20.317  0.00  0.00     0.197 C 
ATOM     49  O1  FT8 d   1     -51.120  96.686  20.551  0.00  0.00    -0.646 OA
ATOM     50  O2  FT8 d   1     -50.722  94.784  19.564  0.00  0.00    -0.646 OA
ENDBRANCH   9  48
TORSDOF 6
