REMARK  10 active torsions:
REMARK  status: ('A' for Active; 'I' for Inactive)
REMARK    1  A    between atoms: O3B_8  and  PG_1 
REMARK    2  A    between atoms: PB_5  and  O3B_8 
REMARK    3  A    between atoms: O3A_12  and  PB_5 
REMARK    4  A    between atoms: PA_9  and  O3A_12 
REMARK    5  A    between atoms: PA_9  and  O5'_13 
REMARK    6  A    between atoms: O5'_13  and  C5'_14 
REMARK    7  A    between atoms: C5'_14  and  C4'_15 
REMARK    8  A    between atoms: C3'_17  and  O3'_18 
REMARK    9  A    between atoms: C2'_19  and  O2'_20 
REMARK   10  A    between atoms: C1'_21  and  N9_22 
ROOT
ATOM      1  C4' ATP d   1      18.774   1.974  25.989  0.00  0.00     0.089 C 
ATOM      2  O4' ATP d   1      19.171   1.327  24.799  0.00  0.00    -0.353 OA
ATOM      3  C3' ATP d   1      19.891   2.919  26.367  0.00  0.00     0.091 C 
ATOM      4  C2' ATP d   1      20.995   2.484  25.436  0.00  0.00     0.105 C 
ATOM      5  C1' ATP d   1      20.550   1.102  24.936  0.00  0.00     0.139 C 
ATOM      6  H3  ATP d   1      18.765   1.199  26.769  0.00  0.00     0.090 H 
ATOM      7  H4  ATP d   1      19.649   3.989  26.281  0.00  0.00     0.091 H 
ATOM      8  H6  ATP d   1      21.027   3.170  24.577  0.00  0.00     0.093 H 
ATOM      9  H8  ATP d   1      20.752   0.288  25.648  0.00  0.00     0.122 H 
ENDROOT
BRANCH   1  10
ATOM     10  C5' ATP d   1      17.347   2.521  25.995  0.00  0.00     0.058 C 
ATOM     11  H1  ATP d   1      16.730   1.855  25.374  0.00  0.00     0.079 H 
ATOM     12  H2  ATP d   1      16.982   2.497  27.032  0.00  0.00     0.079 H 
BRANCH  10  13
ATOM     13  O5' ATP d   1      17.187   3.812  25.520  0.00  0.00    -0.287 OA
BRANCH  13  14
ATOM     14  PA  ATP d   1      16.680   5.002  26.487  0.00  0.00     0.417 P 
ATOM     15  O1A ATP d   1      16.440   6.096  25.484  0.00  0.00    -0.624 OA
ATOM     16  O2A ATP d   1      15.553   4.767  27.421  0.00  0.00    -0.624 OA
BRANCH  14  17
ATOM     17  O3A ATP d   1      17.985   5.430  27.341  0.00  0.00    -0.180 OA
BRANCH  17  18
ATOM     18  PB  ATP d   1      18.766   6.830  27.202  0.00  0.00     0.428 P 
ATOM     19  O1B ATP d   1      19.298   6.928  25.862  0.00  0.00    -0.624 OA
ATOM     20  O2B ATP d   1      19.756   6.732  28.296  0.00  0.00    -0.624 OA
BRANCH  18  21
ATOM     21  O3B ATP d   1      17.682   7.984  27.416  0.00  0.00    -0.173 OA
BRANCH  21  22
ATOM     22  PG  ATP d   1      17.677   9.382  26.666  0.00  0.00     0.431 P 
ATOM     23  O1G ATP d   1      17.339   9.093  25.251  0.00  0.00    -0.616 OA
ATOM     24  O2G ATP d   1      16.643  10.195  27.351  0.00  0.00    -0.616 OA
ATOM     25  O3G ATP d   1      19.051   9.919  26.855  0.00  0.00    -0.616 OA
ENDBRANCH  21  22
ENDBRANCH  18  21
ENDBRANCH  17  18
ENDBRANCH  14  17
ENDBRANCH  13  14
ENDBRANCH  10  13
ENDBRANCH   1  10
BRANCH   3  26
ATOM     26  O3' ATP d   1      20.161   2.507  27.706  0.00  0.00    -0.390 OA
ATOM     27  H5  ATP d   1      20.421   1.593  27.709  0.00  0.00     0.210 HD
ENDBRANCH   3  26
BRANCH   5  28
ATOM     28  N9  ATP d   1      21.302   0.889  23.692  0.00  0.00    -0.294 N 
ATOM     29  C8  ATP d   1      21.237   1.611  22.564  0.00  0.00     0.071 A 
ATOM     30  N7  ATP d   1      22.107   1.164  21.650  0.00  0.00    -0.236 NA
ATOM     31  H9  ATP d   1      20.563   2.453  22.411  0.00  0.00     0.144 H 
ATOM     32  C5  ATP d   1      22.765   0.140  22.202  0.00  0.00     0.149 A 
ATOM     33  C6  ATP d   1      23.848  -0.770  21.803  0.00  0.00     0.155 A 
ATOM     34  C4  ATP d   1      22.215  -0.043  23.546  0.00  0.00     0.167 A 
ATOM     35  N6  ATP d   1      24.414  -0.699  20.601  0.00  0.00    -0.382 N 
ATOM     36  N1  ATP d   1      24.228  -1.707  22.682  0.00  0.00    -0.222 NA
ATOM     37  H10 ATP d   1      25.171  -1.350  20.349  0.00  0.00     0.157 HD
ATOM     38  H11 ATP d   1      24.095   0.007  19.922  0.00  0.00     0.157 HD
ATOM     39  C2  ATP d   1      23.660  -1.840  23.909  0.00  0.00     0.091 A 
ATOM     40  N3  ATP d   1      22.690  -1.026  24.354  0.00  0.00    -0.222 NA
ATOM     41  H12 ATP d   1      24.005  -2.638  24.556  0.00  0.00     0.146 H 
ENDBRANCH   5  28
BRANCH   4  42
ATOM     42  O2' ATP d   1      22.297   2.527  26.049  0.00  0.00    -0.388 OA
ATOM     43  H7  ATP d   1      22.310   1.949  26.803  0.00  0.00     0.210 HD
ENDBRANCH   4  42
TORSDOF 10
