REMARK  3 active torsions:
REMARK  status: ('A' for Active; 'I' for Inactive)
REMARK    1  A    between atoms: C10_6  and  C6_4 
REMARK    2  A    between atoms: N7_20  and  C8_5 
REMARK    3  A    between atoms: C12_10  and  C14_11 
REMARK       I    between atoms: C18_12  and  N19_18 
REMARK       I    between atoms: C18_12  and  N20_19 
ROOT
ATOM      1  C8  FSZ d   1       5.447  15.303  11.391  0.00  0.00     0.050 A 
ATOM      2  C10 FSZ d   1       4.505  14.989   9.183  0.00  0.00    -0.051 A 
ATOM      3  C13 FSZ d   1       4.839  16.547  11.492  0.00  0.00    -0.042 A 
ATOM      4  C11 FSZ d   1       3.895  16.237   9.296  0.00  0.00    -0.062 A 
ATOM      5  C12 FSZ d   1       4.053  17.015  10.440  0.00  0.00     0.050 A 
ATOM      6  C9  FSZ d   1       5.300  14.544  10.237  0.00  0.00    -0.050 A 
ATOM      7  H8  FSZ d   1       4.974  17.150  12.383  0.00  0.00     0.088 H 
ATOM      8  H11 FSZ d   1       3.287  16.608   8.479  0.00  0.00     0.085 H 
ATOM      9  H14 FSZ d   1       5.811  13.592  10.155  0.00  0.00     0.087 H 
ENDROOT
BRANCH   2  10
ATOM     10  C6  FSZ d   1       4.313  14.131   7.946  0.00  0.00    -0.025 C 
ATOM     11  C5  FSZ d   1       3.498  14.819   6.841  0.00  0.00    -0.035 C 
ATOM     12  C4  FSZ d   1       3.362  13.930   5.618  0.00  0.00     0.082 C 
ATOM     13  H5  FSZ d   1       2.495  15.051   7.228  0.00  0.00     0.036 H 
ATOM     14  H6  FSZ d   1       4.004  15.752   6.551  0.00  0.00     0.036 H 
ATOM     15  N3  FSZ d   1       2.750  12.624   5.989  0.00  0.00    -0.075 N 
ATOM     16  H3  FSZ d   1       2.724  14.431   4.875  0.00  0.00     0.075 H 
ATOM     17  H4  FSZ d   1       4.358  13.754   5.186  0.00  0.00     0.075 H 
ATOM     18  C2  FSZ d   1       3.558  11.912   7.018  0.00  0.00     0.082 C 
ATOM     19  H1  FSZ d   1       2.687  12.046   5.165  0.00  0.00     0.277 HD
ATOM     20  H2  FSZ d   1       1.825  12.788   6.355  0.00  0.00     0.277 HD
ATOM     21  C1  FSZ d   1       3.692  12.764   8.267  0.00  0.00    -0.035 C 
ATOM     22  H12 FSZ d   1       4.559  11.703   6.612  0.00  0.00     0.075 H 
ATOM     23  H13 FSZ d   1       3.062  10.965   7.277  0.00  0.00     0.075 H 
ATOM     24  H9  FSZ d   1       2.695  12.917   8.705  0.00  0.00     0.036 H 
ATOM     25  H10 FSZ d   1       4.333  12.240   8.991  0.00  0.00     0.036 H 
ATOM     26  H7  FSZ d   1       5.317  13.945   7.537  0.00  0.00     0.047 H 
ENDBRANCH   2  10
BRANCH   5  27
ATOM     27  C14 FSZ d   1       3.416  18.367  10.517  0.00  0.00     0.417 C 
ATOM     28  F15 FSZ d   1       2.255  18.431   9.864  0.00  0.00    -0.166 F 
ATOM     29  F16 FSZ d   1       3.151  18.751  11.754  0.00  0.00    -0.166 F 
ATOM     30  F17 FSZ d   1       4.178  19.323  10.010  0.00  0.00    -0.166 F 
ENDBRANCH   5  27
BRANCH   1  31
ATOM     31  N7  FSZ d   1       6.226  14.776  12.463  0.00  0.00    -0.193 N 
ATOM     32  C18 FSZ d   1       5.947  13.604  13.097  0.00  0.00     0.669 C 
ATOM     33  N19 FSZ d   1       4.901  12.879  12.752  0.00  0.00    -0.235 N 
ATOM     34  N20 FSZ d   1       6.747  13.209  14.064  0.00  0.00    -0.235 N 
ATOM     35  H15 FSZ d   1       4.703  11.995  13.241  0.00  0.00     0.174 HD
ATOM     36  H16 FSZ d   1       4.282  13.197  11.993  0.00  0.00     0.174 HD
ATOM     37  H17 FSZ d   1       7.561  13.783  14.325  0.00  0.00     0.174 HD
ATOM     38  H18 FSZ d   1       6.559  12.326  14.559  0.00  0.00     0.174 HD
ATOM     39  H19 FSZ d   1       7.047  15.313  12.776  0.00  0.00     0.184 HD
ENDBRANCH   1  31
TORSDOF 3
