REMARK  19 active torsions:
REMARK  status: ('A' for Active; 'I' for Inactive)
REMARK    1  A    between atoms: C15_2  and  C14_17 
REMARK       I    between atoms: N16_46  and  C15_2 
REMARK    2  A    between atoms: C17_3  and  N16_46 
REMARK    3  A    between atoms: C27_22  and  C26_6 
REMARK    4  A    between atoms: C02_7  and  O01_50 
REMARK    5  A    between atoms: C06_11  and  C05_10 
REMARK    6  A    between atoms: C07_12  and  C08_13 
REMARK    7  A    between atoms: C09_14  and  C07_12 
REMARK       I    between atoms: N10_45  and  C09_14 
REMARK    8  A    between atoms: C11_15  and  N10_45 
REMARK    9  A    between atoms: C23_20  and  N22_47 
REMARK       I    between atoms: N28_48  and  C27_22 
REMARK   10  A    between atoms: C29_23  and  N28_48 
REMARK   11  A    between atoms: C33_27  and  C32_26 
REMARK       I    between atoms: N34_49  and  C33_27 
REMARK   12  A    between atoms: C35_28  and  N34_49 
REMARK   13  A    between atoms: C38_31  and  C39_32 
REMARK   14  A    between atoms: C42_33  and  O43_54 
REMARK   15  A    between atoms: C44_34  and  O45_55 
REMARK   16  A    between atoms: O45_55  and  C46_35 
REMARK   17  A    between atoms: C48_36  and  O49_57 
REMARK   18  A    between atoms: C50_37  and  O51_58 
REMARK   19  A    between atoms: O51_58  and  C52_38 
ROOT
ATOM      1  C24 FWW d   1      -4.421  88.313  57.562  0.00  0.00    -0.056 A 
ATOM      2  C26 FWW d   1      -3.493  90.358  56.593  0.00  0.00     0.032 A 
ATOM      3  C23 FWW d   1      -5.656  88.508  56.956  0.00  0.00     0.045 A 
ATOM      4  C25 FWW d   1      -3.390  89.195  57.379  0.00  0.00    -0.066 A 
ATOM      5  C54 FWW d   1      -4.723  90.549  56.011  0.00  0.00    -0.066 A 
ATOM      6  C55 FWW d   1      -5.778  89.660  56.181  0.00  0.00    -0.056 A 
ATOM      7  H3  FWW d   1      -4.271  87.444  58.193  0.00  0.00     0.087 H 
ATOM      8  H13 FWW d   1      -2.444  88.987  57.865  0.00  0.00     0.085 H 
ATOM      9  H24 FWW d   1      -4.877  91.428  55.395  0.00  0.00     0.085 H 
ATOM     10  H25 FWW d   1      -6.725  89.869  55.696  0.00  0.00     0.087 H 
ENDROOT
BRANCH   3  11
ATOM     11  N22 FWW d   1      -6.721  87.641  57.162  0.00  0.00    -0.251 N 
ATOM     12  C21 FWW d   1      -7.949  87.959  57.697  0.00  0.00     0.254 A 
ATOM     13  C17 FWW d   1      -8.897  86.755  57.836  0.00  0.00     0.098 A 
ATOM     14  O56 FWW d   1      -8.275  89.108  57.988  0.00  0.00    -0.270 OA
ATOM     15  C18 FWW d   1      -8.061  85.634  57.291  0.00  0.00     0.037 A 
ATOM     16  H2  FWW d   1      -9.173  86.550  58.881  0.00  0.00     0.088 H 
ATOM     17  C19 FWW d   1      -6.740  86.245  56.912  0.00  0.00     0.233 A 
ATOM     18  H11 FWW d   1      -8.544  85.192  56.407  0.00  0.00     0.051 H 
ATOM     19  H12 FWW d   1      -7.917  84.858  58.057  0.00  0.00     0.051 H 
ATOM     20  O20 FWW d   1      -5.792  85.618  56.448  0.00  0.00    -0.273 OA
BRANCH  13  21
ATOM     21  N16 FWW d   1     -10.072  87.112  57.087  0.00  0.00    -0.343 N 
ATOM     22  C15 FWW d   1     -10.052  87.510  55.743  0.00  0.00     0.252 C 
ATOM     23  O57 FWW d   1      -8.967  87.554  55.161  0.00  0.00    -0.268 OA
ATOM     24  H31 FWW d   1     -10.956  87.074  57.553  0.00  0.00     0.163 HD
BRANCH  22  25
ATOM     25  C14 FWW d   1     -11.261  87.866  55.005  0.00  0.00     0.032 A 
ATOM     26  C13 FWW d   1     -12.281  88.613  55.569  0.00  0.00    -0.066 A 
ATOM     27  C12 FWW d   1     -13.440  88.956  54.885  0.00  0.00    -0.056 A 
ATOM     28  H1  FWW d   1     -12.170  88.946  56.594  0.00  0.00     0.085 H 
ATOM     29  C11 FWW d   1     -13.674  88.589  53.560  0.00  0.00     0.035 A 
ATOM     30  H10 FWW d   1     -14.196  89.534  55.404  0.00  0.00     0.086 H 
ATOM     31  C59 FWW d   1     -12.642  87.813  52.986  0.00  0.00    -0.056 A 
ATOM     32  C58 FWW d   1     -11.484  87.478  53.679  0.00  0.00    -0.066 A 
ATOM     33  H27 FWW d   1     -12.758  87.465  51.966  0.00  0.00     0.086 H 
ATOM     34  H26 FWW d   1     -10.724  86.894  53.172  0.00  0.00     0.085 H 
BRANCH  29  35
ATOM     35  N10 FWW d   1     -14.894  88.936  52.871  0.00  0.00    -0.323 N 
ATOM     36  C09 FWW d   1     -16.031  89.582  53.374  0.00  0.00     0.251 C 
ATOM     37  O60 FWW d   1     -16.011  89.892  54.554  0.00  0.00    -0.268 OA
ATOM     38  H30 FWW d   1     -14.933  88.681  51.905  0.00  0.00     0.169 HD
BRANCH  36  39
ATOM     39  C07 FWW d   1     -17.309  89.904  52.632  0.00  0.00     0.007 C 
ATOM     40  C06 FWW d   1     -17.556  89.957  51.315  0.00  0.00    -0.062 C 
ATOM     41  H6  FWW d   1     -16.717  89.757  50.650  0.00  0.00     0.085 H 
BRANCH  40  42
ATOM     42  C05 FWW d   1     -18.874  90.265  50.667  0.00  0.00    -0.035 A 
ATOM     43  C04 FWW d   1     -19.562  91.465  50.900  0.00  0.00    -0.070 A 
ATOM     44  C03 FWW d   1     -20.790  91.769  50.323  0.00  0.00    -0.050 A 
ATOM     45  H5  FWW d   1     -19.113  92.194  51.565  0.00  0.00     0.084 H 
ATOM     46  C02 FWW d   1     -21.400  90.855  49.476  0.00  0.00     0.065 A 
ATOM     47  H4  FWW d   1     -21.270  92.718  50.534  0.00  0.00     0.087 H 
ATOM     48  C62 FWW d   1     -20.761  89.642  49.223  0.00  0.00    -0.050 A 
ATOM     49  C61 FWW d   1     -19.529  89.368  49.817  0.00  0.00    -0.070 A 
ATOM     50  H29 FWW d   1     -21.221  88.913  48.566  0.00  0.00     0.087 H 
ATOM     51  H28 FWW d   1     -19.057  88.415  49.610  0.00  0.00     0.084 H 
BRANCH  46  52
ATOM     52  O01 FWW d   1     -22.606  91.131  48.898  0.00  0.00    -0.361 OA
ATOM     53  H34 FWW d   1     -22.899  91.992  49.174  0.00  0.00     0.217 HD
ENDBRANCH  46  52
ENDBRANCH  40  42
BRANCH  39  54
ATOM     54  C08 FWW d   1     -18.455  90.134  53.469  0.00  0.00    -0.046 C 
ATOM     55  H7  FWW d   1     -19.329  90.359  52.840  0.00  0.00     0.033 H 
ATOM     56  H8  FWW d   1     -18.256  90.984  54.138  0.00  0.00     0.033 H 
ATOM     57  H9  FWW d   1     -18.657  89.235  54.069  0.00  0.00     0.033 H 
ENDBRANCH  39  54
ENDBRANCH  36  39
ENDBRANCH  29  35
ENDBRANCH  22  25
ENDBRANCH  13  21
ENDBRANCH   3  11
BRANCH   2  58
ATOM     58  C27 FWW d   1      -2.336  91.238  56.485  0.00  0.00     0.256 C 
ATOM     59  N28 FWW d   1      -1.044  90.765  56.542  0.00  0.00    -0.320 N 
ATOM     60  H32 FWW d   1      -0.963  89.771  56.621  0.00  0.00     0.169 HD
ATOM     61  O53 FWW d   1      -2.532  92.438  56.408  0.00  0.00    -0.267 OA
BRANCH  59  62
ATOM     62  C29 FWW d   1       0.161  91.447  56.507  0.00  0.00     0.071 A 
ATOM     63  C30 FWW d   1       0.225  92.793  56.917  0.00  0.00    -0.053 A 
ATOM     64  C31 FWW d   1       1.397  93.533  56.925  0.00  0.00    -0.063 A 
ATOM     65  H14 FWW d   1      -0.690  93.275  57.243  0.00  0.00     0.087 H 
ATOM     66  C32 FWW d   1       2.619  93.016  56.545  0.00  0.00     0.068 A 
ATOM     67  H15 FWW d   1       1.352  94.568  57.245  0.00  0.00     0.085 H 
ATOM     68  C48 FWW d   1       2.559  91.650  56.151  0.00  0.00     0.117 A 
ATOM     69  C50 FWW d   1       1.379  90.893  56.137  0.00  0.00     0.129 A 
BRANCH  66  70
ATOM     70  C33 FWW d   1       3.903  93.784  56.550  0.00  0.00     0.259 C 
ATOM     71  N34 FWW d   1       5.085  93.261  56.072  0.00  0.00    -0.320 N 
ATOM     72  H33 FWW d   1       5.013  92.332  55.709  0.00  0.00     0.169 HD
ATOM     73  O47 FWW d   1       3.869  94.927  57.027  0.00  0.00    -0.267 OA
BRANCH  71  74
ATOM     74  C35 FWW d   1       6.399  93.826  56.009  0.00  0.00     0.071 A 
ATOM     75  C36 FWW d   1       6.682  95.131  56.435  0.00  0.00    -0.053 A 
ATOM     76  C37 FWW d   1       7.970  95.675  56.379  0.00  0.00    -0.061 A 
ATOM     77  H16 FWW d   1       5.874  95.741  56.822  0.00  0.00     0.087 H 
ATOM     78  C38 FWW d   1       9.062  94.951  55.905  0.00  0.00     0.076 A 
ATOM     79  H17 FWW d   1       8.123  96.694  56.716  0.00  0.00     0.085 H 
ATOM     80  C42 FWW d   1       8.790  93.650  55.485  0.00  0.00     0.118 A 
ATOM     81  C44 FWW d   1       7.505  93.094  55.533  0.00  0.00     0.129 A 
BRANCH  78  82
ATOM     82  C39 FWW d   1      10.486  95.545  55.843  0.00  0.00     0.212 C 
ATOM     83  O40 FWW d   1      10.784  96.400  56.703  0.00  0.00    -0.644 OA
ATOM     84  O41 FWW d   1      11.223  95.110  54.942  0.00  0.00    -0.644 OA
ENDBRANCH  78  82
BRANCH  80  85
ATOM     85  O43 FWW d   1       9.801  92.868  55.002  0.00  0.00    -0.357 OA
ATOM     86  H35 FWW d   1      10.615  93.357  55.022  0.00  0.00     0.217 HD
ENDBRANCH  80  85
BRANCH  81  87
ATOM     87  O45 FWW d   1       7.256  91.807  55.106  0.00  0.00    -0.351 OA
BRANCH  87  88
ATOM     88  C46 FWW d   1       7.014  90.869  56.157  0.00  0.00     0.011 C 
ATOM     89  H18 FWW d   1       6.826  89.875  55.725  0.00  0.00     0.067 H 
ATOM     90  H19 FWW d   1       6.136  91.188  56.738  0.00  0.00     0.067 H 
ATOM     91  H20 FWW d   1       7.893  90.822  56.816  0.00  0.00     0.067 H 
ENDBRANCH  87  88
ENDBRANCH  81  87
ENDBRANCH  71  74
ENDBRANCH  66  70
BRANCH  68  92
ATOM     92  O49 FWW d   1       3.692  90.998  55.751  0.00  0.00    -0.357 OA
ATOM     93  H36 FWW d   1       4.431  91.593  55.796  0.00  0.00     0.217 HD
ENDBRANCH  68  92
BRANCH  69  94
ATOM     94  O51 FWW d   1       1.369  89.576  55.737  0.00  0.00    -0.351 OA
BRANCH  94  95
ATOM     95  C52 FWW d   1       1.533  88.557  56.821  0.00  0.00     0.011 C 
ATOM     96  H21 FWW d   1       1.509  87.548  56.383  0.00  0.00     0.067 H 
ATOM     97  H22 FWW d   1       0.714  88.660  57.548  0.00  0.00     0.067 H 
ATOM     98  H23 FWW d   1       2.496  88.713  57.329  0.00  0.00     0.067 H 
ENDBRANCH  94  95
ENDBRANCH  69  94
ENDBRANCH  59  62
ENDBRANCH   2  58
TORSDOF 19
