REMARK  23 active torsions:
REMARK  status: ('A' for Active; 'I' for Inactive)
REMARK    1  A    between atoms: C2_15  and  N1_1 
REMARK       I    between atoms: N1_1  and  C31_31 
REMARK    2  A    between atoms: C4_2  and  C2_15 
REMARK       I    between atoms: N8_17  and  C4_2 
REMARK    3  A    between atoms: C3_16  and  C5_3 
REMARK    4  A    between atoms: C3_16  and  C6_4 
REMARK    5  A    between atoms: C3_16  and  C7_5 
REMARK    6  A    between atoms: C15_8  and  C10_6 
REMARK       I    between atoms: N17_23  and  C15_8 
REMARK    7  A    between atoms: O37_37  and  C20_9 
REMARK    8  A    between atoms: C22_11  and  C25_27 
REMARK    9  A    between atoms: C26_13  and  C30_30 
REMARK   10  A    between atoms: C2_15  and  C3_16 
REMARK   11  A    between atoms: C12_20  and  O14_21 
REMARK   12  A    between atoms: C18_24  and  N17_23 
REMARK   13  A    between atoms: C19_25  and  C18_24 
REMARK   14  A    between atoms: C31_31  and  C32_32 
REMARK   15  A    between atoms: C38_38  and  O37_37 
REMARK   16  A    between atoms: C39_39  and  C38_38 
REMARK   17  A    between atoms: C61_61  and  C39_39 
REMARK   18  A    between atoms: C40_40  and  N41_41 
REMARK   19  A    between atoms: C64_64  and  C40_40 
REMARK   20  A    between atoms: N44_44  and  C47_47 
REMARK   21  A    between atoms: C49_49  and  C54_54 
REMARK   22  A    between atoms: C52_52  and  N53_53 
REMARK   23  A    between atoms: C55_55  and  O60_60 
ROOT
ATOM      1  C20 FWZ d   1     -37.347  13.521 -23.786  0.00  0.00     0.077 A 
ATOM      2  C21 FWZ d   1     -36.713  13.471 -22.547  0.00  0.00    -0.039 A 
ATOM      3  C22 FWZ d   1     -35.510  12.787 -22.400  0.00  0.00    -0.014 A 
ATOM      4  C24 FWZ d   1     -35.599  12.181 -24.729  0.00  0.00    -0.072 A 
ATOM      5  C19 FWZ d   1     -36.799  12.870 -24.897  0.00  0.00    -0.007 A 
ATOM      6  C23 FWZ d   1     -34.955  12.154 -23.506  0.00  0.00    -0.071 A 
ATOM      7  H14 FWZ d   1     -37.159  13.967 -21.693  0.00  0.00     0.089 H 
ATOM      8  H15 FWZ d   1     -35.163  11.657 -25.572  0.00  0.00     0.084 H 
ATOM      9  H25 FWZ d   1     -34.009  11.634 -23.409  0.00  0.00     0.084 H 
ENDROOT
BRANCH   1  10
ATOM     10  O37 FWZ d   1     -38.540  14.170 -24.018  0.00  0.00    -0.350 OA
BRANCH  10  11
ATOM     11  C38 FWZ d   1     -39.176  14.888 -22.942  0.00  0.00     0.030 C 
ATOM     12  H33 FWZ d   1     -39.035  14.335 -22.002  0.00  0.00     0.075 H 
ATOM     13  H34 FWZ d   1     -40.251  14.984 -23.153  0.00  0.00     0.075 H 
BRANCH  11  14
ATOM     14  C39 FWZ d   1     -38.566  16.267 -22.809  0.00  0.00    -0.021 C 
ATOM     15  H35 FWZ d   1     -37.485  16.148 -22.643  0.00  0.00     0.043 H 
ATOM     16  H36 FWZ d   1     -39.020  16.758 -21.936  0.00  0.00     0.043 H 
BRANCH  14  17
ATOM     17  C61 FWZ d   1     -38.760  17.168 -24.008  0.00  0.00    -0.056 A 
ATOM     18  C62 FWZ d   1     -37.924  17.090 -25.119  0.00  0.00    -0.076 A 
ATOM     19  C63 FWZ d   1     -38.071  17.969 -26.183  0.00  0.00    -0.075 A 
ATOM     20  H56 FWZ d   1     -37.149  16.333 -25.153  0.00  0.00     0.084 H 
ATOM     21  C64 FWZ d   1     -39.014  18.992 -26.139  0.00  0.00    -0.033 A 
ATOM     22  H57 FWZ d   1     -37.443  17.857 -27.060  0.00  0.00     0.084 H 
ATOM     23  C65 FWZ d   1     -39.847  19.067 -25.033  0.00  0.00    -0.075 A 
ATOM     24  C66 FWZ d   1     -39.705  18.189 -23.973  0.00  0.00    -0.076 A 
ATOM     25  H58 FWZ d   1     -40.621  19.825 -24.998  0.00  0.00     0.084 H 
ATOM     26  H59 FWZ d   1     -40.340  18.298 -23.101  0.00  0.00     0.084 H 
BRANCH  21  27
ATOM     27  C40 FWZ d   1     -39.240  19.906 -27.322  0.00  0.00     0.107 C 
ATOM     28  H37 FWZ d   1     -39.552  20.893 -26.950  0.00  0.00     0.083 H 
ATOM     29  H38 FWZ d   1     -38.295  20.005 -27.877  0.00  0.00     0.083 H 
BRANCH  27  30
ATOM     30  N41 FWZ d   1     -40.275  19.399 -28.239  0.00  0.00    -0.064 N 
ATOM     31  C42 FWZ d   1     -39.813  19.420 -29.636  0.00  0.00     0.098 C 
ATOM     32  C43 FWZ d   1     -40.992  19.307 -30.606  0.00  0.00     0.018 C 
ATOM     33  H40 FWZ d   1     -39.129  18.575 -29.801  0.00  0.00     0.078 H 
ATOM     34  H41 FWZ d   1     -39.281  20.364 -29.825  0.00  0.00     0.078 H 
ATOM     35  N44 FWZ d   1     -42.139  18.659 -29.962  0.00  0.00    -0.374 N 
ATOM     36  H42 FWZ d   1     -40.685  18.711 -31.478  0.00  0.00     0.066 H 
ATOM     37  H43 FWZ d   1     -41.286  20.315 -30.935  0.00  0.00     0.066 H 
ATOM     38  C45 FWZ d   1     -42.665  19.462 -28.852  0.00  0.00     0.018 C 
ATOM     39  C46 FWZ d   1     -41.529  20.160 -28.109  0.00  0.00     0.098 C 
ATOM     40  H44 FWZ d   1     -43.204  18.805 -28.154  0.00  0.00     0.066 H 
ATOM     41  H45 FWZ d   1     -43.356  20.220 -29.250  0.00  0.00     0.066 H 
ATOM     42  H46 FWZ d   1     -41.386  21.166 -28.531  0.00  0.00     0.078 H 
ATOM     43  H47 FWZ d   1     -41.792  20.243 -27.044  0.00  0.00     0.078 H 
ATOM     44  H39 FWZ d   1     -40.465  18.441 -27.988  0.00  0.00     0.280 HD
BRANCH  35  45
ATOM     45  C47 FWZ d   1     -43.061  18.001 -30.825  0.00  0.00     0.080 A 
ATOM     46  C48 FWZ d   1     -44.355  18.466 -31.055  0.00  0.00    -0.023 A 
ATOM     47  C49 FWZ d   1     -45.163  17.771 -31.962  0.00  0.00     0.094 A 
ATOM     48  H48 FWZ d   1     -44.727  19.346 -30.543  0.00  0.00     0.090 H 
ATOM     49  N50 FWZ d   1     -44.701  16.709 -32.636  0.00  0.00    -0.147 NA
ATOM     50  N51 FWZ d   1     -43.464  16.227 -32.398  0.00  0.00    -0.130 NA
ATOM     51  C52 FWZ d   1     -42.648  16.834 -31.528  0.00  0.00     0.170 A 
BRANCH  47  52
ATOM     52  C54 FWZ d   1     -46.539  18.221 -32.314  0.00  0.00     0.028 A 
ATOM     53  C55 FWZ d   1     -47.360  17.483 -33.186  0.00  0.00     0.078 A 
ATOM     54  C56 FWZ d   1     -48.671  17.895 -33.446  0.00  0.00    -0.050 A 
ATOM     55  C57 FWZ d   1     -49.172  19.037 -32.844  0.00  0.00    -0.080 A 
ATOM     56  H51 FWZ d   1     -49.296  17.320 -34.120  0.00  0.00     0.087 H 
ATOM     57  C58 FWZ d   1     -48.400  19.737 -31.942  0.00  0.00    -0.082 A 
ATOM     58  H52 FWZ d   1     -50.172  19.381 -33.082  0.00  0.00     0.083 H 
ATOM     59  C59 FWZ d   1     -47.094  19.341 -31.685  0.00  0.00    -0.068 A 
ATOM     60  H53 FWZ d   1     -48.813  20.599 -31.432  0.00  0.00     0.083 H 
ATOM     61  H54 FWZ d   1     -46.494  19.910 -30.984  0.00  0.00     0.085 H 
BRANCH  53  62
ATOM     62  O60 FWZ d   1     -46.904  16.417 -33.893  0.00  0.00    -0.360 OA
ATOM     63  H55 FWZ d   1     -46.009  16.227 -33.636  0.00  0.00     0.217 HD
ENDBRANCH  53  62
ENDBRANCH  47  52
BRANCH  51  64
ATOM     64  N53 FWZ d   1     -41.463  16.232 -31.368  0.00  0.00    -0.381 N 
ATOM     65  H49 FWZ d   1     -41.236  15.389 -31.914  0.00  0.00     0.157 HD
ATOM     66  H50 FWZ d   1     -40.779  16.612 -30.699  0.00  0.00     0.157 HD
ENDBRANCH  51  64
ENDBRANCH  35  45
ENDBRANCH  27  30
ENDBRANCH  21  27
ENDBRANCH  14  17
ENDBRANCH  11  14
ENDBRANCH  10  11
ENDBRANCH   1  10
BRANCH   5  67
ATOM     67  C18 FWZ d   1     -37.516  12.889 -26.221  0.00  0.00     0.021 C 
ATOM     68  H23 FWZ d   1     -38.291  12.108 -26.218  0.00  0.00     0.071 H 
ATOM     69  H24 FWZ d   1     -37.987  13.873 -26.357  0.00  0.00     0.071 H 
BRANCH  67  70
ATOM     70  N17 FWZ d   1     -36.605  12.645 -27.329  0.00  0.00    -0.355 N 
ATOM     71  C15 FWZ d   1     -36.026  13.634 -28.011  0.00  0.00     0.241 C 
ATOM     72  O16 FWZ d   1     -36.284  14.828 -27.827  0.00  0.00    -0.271 OA
ATOM     73  H22 FWZ d   1     -36.406  11.700 -27.589  0.00  0.00     0.162 HD
BRANCH  71  74
ATOM     74  C10 FWZ d   1     -34.987  13.195 -29.044  0.00  0.00     0.094 C 
ATOM     75  N8  FWZ d   1     -34.895  14.112 -30.187  0.00  0.00    -0.334 N 
ATOM     76  C4  FWZ d   1     -35.993  14.321 -30.940  0.00  0.00     0.244 C 
ATOM     77  C13 FWZ d   1     -33.545  14.659 -30.349  0.00  0.00     0.022 C 
ATOM     78  O9  FWZ d   1     -37.053  13.769 -30.685  0.00  0.00    -0.271 OA
ATOM     79  C12 FWZ d   1     -32.676  13.673 -29.578  0.00  0.00     0.053 C 
ATOM     80  H12 FWZ d   1     -33.474  15.668 -29.918  0.00  0.00     0.068 H 
ATOM     81  H13 FWZ d   1     -33.257  14.692 -31.410  0.00  0.00     0.068 H 
ATOM     82  C11 FWZ d   1     -33.574  13.241 -28.429  0.00  0.00    -0.012 C 
ATOM     83  H20 FWZ d   1     -31.768  14.167 -29.201  0.00  0.00     0.085 H 
ATOM     84  H18 FWZ d   1     -33.279  12.249 -28.056  0.00  0.00     0.040 H 
ATOM     85  H19 FWZ d   1     -33.531  13.970 -27.606  0.00  0.00     0.040 H 
ATOM     86  H11 FWZ d   1     -35.231  12.179 -29.389  0.00  0.00     0.088 H 
BRANCH  76  87
ATOM     87  C2  FWZ d   1     -35.900  15.248 -32.163  0.00  0.00     0.096 C 
ATOM     88  H17 FWZ d   1     -34.836  15.374 -32.413  0.00  0.00     0.088 H 
BRANCH  87  89
ATOM     89  N1  FWZ d   1     -36.560  14.567 -33.267  0.00  0.00    -0.344 N 
ATOM     90  C31 FWZ d   1     -36.109  14.072 -34.425  0.00  0.00     0.258 C 
ATOM     91  O33 FWZ d   1     -34.936  14.083 -34.772  0.00  0.00    -0.270 OA
ATOM     92  H1  FWZ d   1     -37.544  14.445 -33.134  0.00  0.00     0.163 HD
BRANCH  90  93
ATOM     93  C32 FWZ d   1     -37.190  13.443 -35.335  0.00  0.00     0.183 A 
ATOM     94  F34 FWZ d   1     -38.413  13.334 -34.648  0.00  0.00    -0.233 F 
ATOM     95  C35 FWZ d   1     -37.329  13.758 -36.770  0.00  0.00    -0.019 A 
ATOM     96  C36 FWZ d   1     -36.940  12.376 -36.326  0.00  0.00    -0.019 A 
ATOM     97  H29 FWZ d   1     -36.591  14.406 -37.266  0.00  0.00     0.038 H 
ATOM     98  H30 FWZ d   1     -38.325  13.939 -37.201  0.00  0.00     0.038 H 
ATOM     99  H31 FWZ d   1     -37.650  11.543 -36.431  0.00  0.00     0.038 H 
ATOM    100  H32 FWZ d   1     -35.917  12.009 -36.496  0.00  0.00     0.038 H 
ENDBRANCH  90  93
ENDBRANCH  87  89
BRANCH  87 101
ATOM    101  C3  FWZ d   1     -36.494  16.675 -31.943  0.00  0.00    -0.022 C 
BRANCH 101 102
ATOM    102  C5  FWZ d   1     -35.800  17.401 -30.781  0.00  0.00    -0.067 C 
ATOM    103  H2  FWZ d   1     -36.243  18.400 -30.656  0.00  0.00     0.028 H 
ATOM    104  H3  FWZ d   1     -34.727  17.501 -31.000  0.00  0.00     0.028 H 
ATOM    105  H4  FWZ d   1     -35.933  16.822 -29.855  0.00  0.00     0.028 H 
ENDBRANCH 101 102
BRANCH 101 106
ATOM    106  C6  FWZ d   1     -36.291  17.507 -33.210  0.00  0.00    -0.067 C 
ATOM    107  H5  FWZ d   1     -36.780  17.007 -34.059  0.00  0.00     0.028 H 
ATOM    108  H6  FWZ d   1     -35.215  17.608 -33.414  0.00  0.00     0.028 H 
ATOM    109  H7  FWZ d   1     -36.732  18.505 -33.068  0.00  0.00     0.028 H 
ENDBRANCH 101 106
BRANCH 101 110
ATOM    110  C7  FWZ d   1     -38.004  16.604 -31.659  0.00  0.00    -0.067 C 
ATOM    111  H8  FWZ d   1     -38.179  16.009 -30.750  0.00  0.00     0.028 H 
ATOM    112  H9  FWZ d   1     -38.515  16.131 -32.510  0.00  0.00     0.028 H 
ATOM    113  H10 FWZ d   1     -38.398  17.621 -31.513  0.00  0.00     0.028 H 
ENDBRANCH 101 110
ENDBRANCH  87 101
ENDBRANCH  76  87
BRANCH  79 114
ATOM    114  O14 FWZ d   1     -32.299  12.548 -30.388  0.00  0.00    -0.394 OA
ATOM    115  H21 FWZ d   1     -31.740  12.843 -31.097  0.00  0.00     0.210 HD
ENDBRANCH  79 114
ENDBRANCH  71  74
ENDBRANCH  67  70
ENDBRANCH   5  67
BRANCH   3 116
ATOM    116  C25 FWZ d   1     -34.864  12.686 -21.076  0.00  0.00     0.040 A 
ATOM    117  C26 FWZ d   1     -35.341  12.198 -19.885  0.00  0.00     0.049 A 
ATOM    118  N27 FWZ d   1     -34.431  12.218 -18.847  0.00  0.00    -0.258 NA
ATOM    119  C28 FWZ d   1     -33.281  12.654 -19.250  0.00  0.00     0.041 A 
ATOM    120  S29 FWZ d   1     -33.185  13.113 -20.902  0.00  0.00    -0.080 SA
ATOM    121  H16 FWZ d   1     -32.425  12.726 -18.581  0.00  0.00     0.126 H 
BRANCH 117 122
ATOM    122  C30 FWZ d   1     -36.721  11.695 -19.607  0.00  0.00    -0.034 C 
ATOM    123  H26 FWZ d   1     -36.789  11.373 -18.557  0.00  0.00     0.035 H 
ATOM    124  H27 FWZ d   1     -36.941  10.843 -20.267  0.00  0.00     0.035 H 
ATOM    125  H28 FWZ d   1     -37.449  12.499 -19.792  0.00  0.00     0.035 H 
ENDBRANCH 117 122
ENDBRANCH   3 116
TORSDOF 23
