REMARK  27 active torsions:
REMARK  status: ('A' for Active; 'I' for Inactive)
REMARK    1  A    between atoms: C2_15  and  N1_1 
REMARK       I    between atoms: N1_1  and  C31_31 
REMARK    2  A    between atoms: C4_2  and  C2_15 
REMARK       I    between atoms: N8_17  and  C4_2 
REMARK    3  A    between atoms: C3_16  and  C5_3 
REMARK    4  A    between atoms: C3_16  and  C6_4 
REMARK    5  A    between atoms: C3_16  and  C7_5 
REMARK    6  A    between atoms: C15_8  and  C10_6 
REMARK       I    between atoms: N17_23  and  C15_8 
REMARK    7  A    between atoms: O37_37  and  C20_9 
REMARK    8  A    between atoms: C22_11  and  C25_27 
REMARK    9  A    between atoms: C26_13  and  C30_30 
REMARK   10  A    between atoms: C2_15  and  C3_16 
REMARK   11  A    between atoms: C12_20  and  O14_21 
REMARK   12  A    between atoms: C18_24  and  N17_23 
REMARK   13  A    between atoms: C19_25  and  C18_24 
REMARK   14  A    between atoms: C31_31  and  C32_32 
REMARK   15  A    between atoms: C38_38  and  O37_37 
REMARK   16  A    between atoms: C43_43  and  C38_38 
REMARK   17  A    between atoms: O39_39  and  C40_40 
REMARK   18  A    between atoms: O39_39  and  C43_43 
REMARK   19  A    between atoms: C40_40  and  C41_41 
REMARK   20  A    between atoms: C41_41  and  O42_42 
REMARK   21  A    between atoms: O42_42  and  C44_44 
REMARK   22  A    between atoms: C44_44  and  C45_45 
REMARK   23  A    between atoms: C45_45  and  N46_46 
REMARK   24  A    between atoms: N49_49  and  C52_52 
REMARK   25  A    between atoms: C54_54  and  C59_59 
REMARK   26  A    between atoms: C57_57  and  N58_58 
REMARK   27  A    between atoms: C60_60  and  O65_65 
ROOT
ATOM      1  C20 FX8 d   1     -30.441  11.457 -23.208  0.00  0.00     0.077 A 
ATOM      2  C21 FX8 d   1     -29.808  11.354 -21.976  0.00  0.00    -0.039 A 
ATOM      3  C22 FX8 d   1     -28.572  10.715 -21.872  0.00  0.00    -0.014 A 
ATOM      4  C24 FX8 d   1     -28.595  10.334 -24.250  0.00  0.00    -0.072 A 
ATOM      5  C19 FX8 d   1     -29.846  10.938 -24.365  0.00  0.00    -0.007 A 
ATOM      6  C23 FX8 d   1     -27.974  10.207 -23.021  0.00  0.00    -0.071 A 
ATOM      7  H14 FX8 d   1     -30.276  11.772 -21.092  0.00  0.00     0.089 H 
ATOM      8  H15 FX8 d   1     -28.101   9.958 -25.139  0.00  0.00     0.084 H 
ATOM      9  H25 FX8 d   1     -27.014   9.708 -22.952  0.00  0.00     0.084 H 
ENDROOT
BRANCH   1  10
ATOM     10  O37 FX8 d   1     -31.627  12.126 -23.429  0.00  0.00    -0.348 OA
BRANCH  10  11
ATOM     11  C38 FX8 d   1     -32.308  12.793 -22.355  0.00  0.00     0.046 C 
ATOM     12  H33 FX8 d   1     -32.108  12.268 -21.409  0.00  0.00     0.078 H 
ATOM     13  H34 FX8 d   1     -33.391  12.797 -22.550  0.00  0.00     0.078 H 
BRANCH  11  14
ATOM     14  C43 FX8 d   1     -31.806  14.208 -22.263  0.00  0.00     0.040 C 
ATOM     15  H39 FX8 d   1     -30.780  14.192 -21.866  0.00  0.00     0.077 H 
ATOM     16  H40 FX8 d   1     -32.457  14.768 -21.575  0.00  0.00     0.077 H 
BRANCH  14  17
ATOM     17  O39 FX8 d   1     -31.796  14.876 -23.528  0.00  0.00    -0.387 OA
BRANCH  17  18
ATOM     18  C40 FX8 d   1     -30.489  15.248 -23.935  0.00  0.00     0.039 C 
ATOM     19  H35 FX8 d   1     -30.207  14.639 -24.807  0.00  0.00     0.077 H 
ATOM     20  H36 FX8 d   1     -29.794  15.047 -23.107  0.00  0.00     0.077 H 
BRANCH  18  21
ATOM     21  C41 FX8 d   1     -30.382  16.683 -24.305  0.00  0.00     0.039 C 
ATOM     22  H37 FX8 d   1     -29.318  16.962 -24.334  0.00  0.00     0.077 H 
ATOM     23  H38 FX8 d   1     -30.898  17.284 -23.542  0.00  0.00     0.077 H 
BRANCH  21  24
ATOM     24  O42 FX8 d   1     -30.964  16.961 -25.578  0.00  0.00    -0.387 OA
BRANCH  24  25
ATOM     25  C44 FX8 d   1     -31.821  18.080 -25.521  0.00  0.00     0.042 C 
ATOM     26  H41 FX8 d   1     -31.385  18.831 -24.846  0.00  0.00     0.076 H 
ATOM     27  H42 FX8 d   1     -32.800  17.762 -25.133  0.00  0.00     0.076 H 
BRANCH  25  28
ATOM     28  C45 FX8 d   1     -32.010  18.697 -26.890  0.00  0.00     0.103 C 
ATOM     29  H43 FX8 d   1     -31.018  18.793 -27.355  0.00  0.00     0.079 H 
ATOM     30  H44 FX8 d   1     -32.448  19.697 -26.751  0.00  0.00     0.079 H 
BRANCH  28  31
ATOM     31  N46 FX8 d   1     -32.876  17.952 -27.824  0.00  0.00    -0.066 N 
ATOM     32  C47 FX8 d   1     -33.992  17.264 -27.169  0.00  0.00     0.098 C 
ATOM     33  C48 FX8 d   1     -34.718  16.379 -28.175  0.00  0.00     0.018 C 
ATOM     34  H46 FX8 d   1     -34.694  18.009 -26.766  0.00  0.00     0.078 H 
ATOM     35  H47 FX8 d   1     -33.606  16.642 -26.348  0.00  0.00     0.078 H 
ATOM     36  N49 FX8 d   1     -35.171  17.164 -29.329  0.00  0.00    -0.374 N 
ATOM     37  H48 FX8 d   1     -35.590  15.919 -27.687  0.00  0.00     0.066 H 
ATOM     38  H49 FX8 d   1     -34.034  15.591 -28.522  0.00  0.00     0.066 H 
ATOM     39  C50 FX8 d   1     -34.145  18.028 -29.925  0.00  0.00     0.018 C 
ATOM     40  C51 FX8 d   1     -33.424  18.840 -28.854  0.00  0.00     0.098 C 
ATOM     41  H50 FX8 d   1     -34.624  18.717 -30.637  0.00  0.00     0.066 H 
ATOM     42  H51 FX8 d   1     -33.412  17.403 -30.456  0.00  0.00     0.066 H 
ATOM     43  H52 FX8 d   1     -32.603  19.406 -29.319  0.00  0.00     0.078 H 
ATOM     44  H53 FX8 d   1     -34.135  19.539 -28.389  0.00  0.00     0.078 H 
ATOM     45  H45 FX8 d   1     -32.304  17.255 -28.275  0.00  0.00     0.280 HD
BRANCH  36  46
ATOM     46  C52 FX8 d   1     -36.094  16.555 -30.214  0.00  0.00     0.080 A 
ATOM     47  C53 FX8 d   1     -37.424  16.963 -30.246  0.00  0.00    -0.023 A 
ATOM     48  C54 FX8 d   1     -38.316  16.326 -31.105  0.00  0.00     0.094 A 
ATOM     49  H54 FX8 d   1     -37.763  17.770 -29.607  0.00  0.00     0.090 H 
ATOM     50  N55 FX8 d   1     -37.917  15.345 -31.925  0.00  0.00    -0.147 NA
ATOM     51  N56 FX8 d   1     -36.623  14.957 -31.953  0.00  0.00    -0.130 NA
ATOM     52  C57 FX8 d   1     -35.718  15.511 -31.120  0.00  0.00     0.170 A 
BRANCH  48  53
ATOM     53  C59 FX8 d   1     -39.759  16.698 -31.163  0.00  0.00     0.028 A 
ATOM     54  C60 FX8 d   1     -40.655  16.064 -32.039  0.00  0.00     0.078 A 
ATOM     55  C61 FX8 d   1     -41.986  16.487 -32.121  0.00  0.00    -0.050 A 
ATOM     56  C62 FX8 d   1     -42.443  17.506 -31.301  0.00  0.00    -0.080 A 
ATOM     57  H57 FX8 d   1     -42.661  16.017 -32.827  0.00  0.00     0.087 H 
ATOM     58  C63 FX8 d   1     -41.582  18.118 -30.411  0.00  0.00    -0.082 A 
ATOM     59  H58 FX8 d   1     -43.478  17.823 -31.358  0.00  0.00     0.083 H 
ATOM     60  C64 FX8 d   1     -40.251  17.732 -30.352  0.00  0.00    -0.068 A 
ATOM     61  H59 FX8 d   1     -41.947  18.902 -29.757  0.00  0.00     0.083 H 
ATOM     62  H60 FX8 d   1     -39.580  18.238 -29.668  0.00  0.00     0.085 H 
BRANCH  54  63
ATOM     63  O65 FX8 d   1     -40.253  15.106 -32.916  0.00  0.00    -0.360 OA
ATOM     64  H61 FX8 d   1     -39.337  14.903 -32.764  0.00  0.00     0.217 HD
ENDBRANCH  54  63
ENDBRANCH  48  53
BRANCH  52  65
ATOM     65  N58 FX8 d   1     -34.488  14.989 -31.226  0.00  0.00    -0.381 N 
ATOM     66  H55 FX8 d   1     -34.304  14.238 -31.907  0.00  0.00     0.157 HD
ATOM     67  H56 FX8 d   1     -33.727  15.339 -30.627  0.00  0.00     0.157 HD
ENDBRANCH  52  65
ENDBRANCH  36  46
ENDBRANCH  28  31
ENDBRANCH  25  28
ENDBRANCH  24  25
ENDBRANCH  21  24
ENDBRANCH  18  21
ENDBRANCH  17  18
ENDBRANCH  14  17
ENDBRANCH  11  14
ENDBRANCH  10  11
ENDBRANCH   1  10
BRANCH   5  68
ATOM     68  C18 FX8 d   1     -30.548  11.090 -25.695  0.00  0.00     0.021 C 
ATOM     69  H23 FX8 d   1     -31.368  10.358 -25.740  0.00  0.00     0.071 H 
ATOM     70  H24 FX8 d   1     -30.961  12.108 -25.755  0.00  0.00     0.071 H 
BRANCH  68  71
ATOM     71  N17 FX8 d   1     -29.680  10.878 -26.843  0.00  0.00    -0.355 N 
ATOM     72  C15 FX8 d   1     -29.181  11.895 -27.541  0.00  0.00     0.241 C 
ATOM     73  O16 FX8 d   1     -29.503  13.062 -27.351  0.00  0.00    -0.271 OA
ATOM     74  H22 FX8 d   1     -29.452   9.943 -27.115  0.00  0.00     0.162 HD
BRANCH  72  75
ATOM     75  C10 FX8 d   1     -28.129  11.530 -28.584  0.00  0.00     0.094 C 
ATOM     76  N8  FX8 d   1     -28.065  12.479 -29.707  0.00  0.00    -0.334 N 
ATOM     77  C4  FX8 d   1     -29.167  12.701 -30.449  0.00  0.00     0.244 C 
ATOM     78  C13 FX8 d   1     -26.729  13.058 -29.861  0.00  0.00     0.022 C 
ATOM     79  O9  FX8 d   1     -30.201  12.085 -30.244  0.00  0.00    -0.271 OA
ATOM     80  C12 FX8 d   1     -25.841  12.058 -29.135  0.00  0.00     0.053 C 
ATOM     81  H12 FX8 d   1     -26.672  14.052 -29.392  0.00  0.00     0.068 H 
ATOM     82  H13 FX8 d   1     -26.451  13.136 -30.922  0.00  0.00     0.068 H 
ATOM     83  C11 FX8 d   1     -26.715  11.594 -27.978  0.00  0.00    -0.012 C 
ATOM     84  H20 FX8 d   1     -24.921  12.541 -28.773  0.00  0.00     0.085 H 
ATOM     85  H18 FX8 d   1     -26.397  10.603 -27.620  0.00  0.00     0.040 H 
ATOM     86  H19 FX8 d   1     -26.678  12.313 -27.147  0.00  0.00     0.040 H 
ATOM     87  H11 FX8 d   1     -28.343  10.518 -28.959  0.00  0.00     0.088 H 
BRANCH  77  88
ATOM     88  C2  FX8 d   1     -29.069  13.613 -31.680  0.00  0.00     0.096 C 
ATOM     89  H17 FX8 d   1     -28.010  13.689 -31.967  0.00  0.00     0.088 H 
BRANCH  88  90
ATOM     90  N1  FX8 d   1     -29.795  12.945 -32.747  0.00  0.00    -0.344 N 
ATOM     91  C31 FX8 d   1     -29.375  12.568 -33.958  0.00  0.00     0.258 C 
ATOM     92  O33 FX8 d   1     -28.211  12.628 -34.340  0.00  0.00    -0.270 OA
ATOM     93  H1  FX8 d   1     -30.752  12.736 -32.545  0.00  0.00     0.163 HD
BRANCH  91  94
ATOM     94  C32 FX8 d   1     -30.513  12.055 -34.858  0.00  0.00     0.183 A 
ATOM     95  F34 FX8 d   1     -31.712  11.824 -34.140  0.00  0.00    -0.233 F 
ATOM     96  C35 FX8 d   1     -30.708  12.564 -36.229  0.00  0.00    -0.019 A 
ATOM     97  C36 FX8 d   1     -30.287  11.137 -35.993  0.00  0.00    -0.019 A 
ATOM     98  H29 FX8 d   1     -29.996  13.286 -36.656  0.00  0.00     0.038 H 
ATOM     99  H30 FX8 d   1     -31.721  12.787 -36.596  0.00  0.00     0.038 H 
ATOM    100  H31 FX8 d   1     -30.991  10.315 -36.187  0.00  0.00     0.038 H 
ATOM    101  H32 FX8 d   1     -29.267  10.813 -36.246  0.00  0.00     0.038 H 
ENDBRANCH  91  94
ENDBRANCH  88  90
BRANCH  88 102
ATOM    102  C3  FX8 d   1     -29.591  15.067 -31.452  0.00  0.00    -0.022 C 
BRANCH 102 103
ATOM    103  C5  FX8 d   1     -28.965  15.706 -30.210  0.00  0.00    -0.067 C 
ATOM    104  H2  FX8 d   1     -29.358  16.726 -30.085  0.00  0.00     0.028 H 
ATOM    105  H3  FX8 d   1     -27.872  15.746 -30.329  0.00  0.00     0.028 H 
ATOM    106  H4  FX8 d   1     -29.215  15.106 -29.323  0.00  0.00     0.028 H 
ENDBRANCH 102 103
BRANCH 102 107
ATOM    107  C6  FX8 d   1     -31.113  15.080 -31.288  0.00  0.00    -0.067 C 
ATOM    108  H5  FX8 d   1     -31.581  14.624 -32.173  0.00  0.00     0.028 H 
ATOM    109  H6  FX8 d   1     -31.462  16.118 -31.183  0.00  0.00     0.028 H 
ATOM    110  H7  FX8 d   1     -31.390  14.508 -30.390  0.00  0.00     0.028 H 
ENDBRANCH 102 107
BRANCH 102 111
ATOM    111  C7  FX8 d   1     -29.234  15.930 -32.668  0.00  0.00    -0.067 C 
ATOM    112  H8  FX8 d   1     -28.143  15.936 -32.806  0.00  0.00     0.028 H 
ATOM    113  H9  FX8 d   1     -29.588  16.959 -32.504  0.00  0.00     0.028 H 
ATOM    114  H10 FX8 d   1     -29.715  15.515 -33.566  0.00  0.00     0.028 H 
ENDBRANCH 102 111
ENDBRANCH  88 102
ENDBRANCH  77  88
BRANCH  80 115
ATOM    115  O14 FX8 d   1     -25.502  10.941 -29.964  0.00  0.00    -0.394 OA
ATOM    116  H21 FX8 d   1     -25.028  10.298 -29.449  0.00  0.00     0.210 HD
ENDBRANCH  80 115
ENDBRANCH  72  75
ENDBRANCH  68  71
ENDBRANCH   5  68
BRANCH   3 117
ATOM    117  C25 FX8 d   1     -27.936  10.547 -20.547  0.00  0.00     0.040 A 
ATOM    118  C26 FX8 d   1     -28.440  10.070 -19.360  0.00  0.00     0.049 A 
ATOM    119  N27 FX8 d   1     -27.531  10.033 -18.319  0.00  0.00    -0.258 NA
ATOM    120  C28 FX8 d   1     -26.370  10.449 -18.710  0.00  0.00     0.041 A 
ATOM    121  S29 FX8 d   1     -26.261  10.923 -20.356  0.00  0.00    -0.080 SA
ATOM    122  H16 FX8 d   1     -25.515  10.495 -18.037  0.00  0.00     0.126 H 
BRANCH 118 123
ATOM    123  C30 FX8 d   1     -29.834   9.603 -19.094  0.00  0.00    -0.034 C 
ATOM    124  H26 FX8 d   1     -29.919   9.283 -18.045  0.00  0.00     0.035 H 
ATOM    125  H27 FX8 d   1     -30.070   8.757 -19.756  0.00  0.00     0.035 H 
ATOM    126  H28 FX8 d   1     -30.539  10.426 -19.285  0.00  0.00     0.035 H 
ENDBRANCH 118 123
ENDBRANCH   3 117
TORSDOF 27
