REMARK  4 active torsions:
REMARK  status: ('A' for Active; 'I' for Inactive)
REMARK    1  A    between atoms: C7_4  and  C5_2 
REMARK    2  A    between atoms: C6_3  and  O13_20 
REMARK    3  A    between atoms: C10_6  and  N14_17 
REMARK    4  A    between atoms: C9_15  and  N15_18 
ROOT
ATOM      1  C7  FX5 d   1       5.964  -8.104   1.388  0.00  0.00     0.094 A 
ATOM      2  C8  FX5 d   1       4.825  -7.283   1.446  0.00  0.00    -0.023 A 
ATOM      3  C10 FX5 d   1       6.340  -5.384   1.499  0.00  0.00     0.170 A 
ATOM      4  N12 FX5 d   1       7.199  -7.577   1.420  0.00  0.00    -0.147 NA
ATOM      5  C9  FX5 d   1       5.019  -5.898   1.515  0.00  0.00     0.080 A 
ATOM      6  N11 FX5 d   1       7.382  -6.229   1.444  0.00  0.00    -0.130 NA
ATOM      7  H2  FX5 d   1       3.828  -7.708   1.438  0.00  0.00     0.090 H 
ENDROOT
BRANCH   5   8
ATOM      8  N15 FX5 d   1       3.966  -4.940   1.706  0.00  0.00    -0.374 N 
ATOM      9  C20 FX5 d   1       2.730  -5.355   2.372  0.00  0.00     0.018 C 
ATOM     10  C19 FX5 d   1       1.954  -4.148   2.860  0.00  0.00     0.096 C 
ATOM     11  H5  FX5 d   1       2.109  -5.920   1.661  0.00  0.00     0.066 H 
ATOM     12  H6  FX5 d   1       2.980  -5.995   3.231  0.00  0.00     0.066 H 
ATOM     13  N18 FX5 d   1       1.715  -3.194   1.741  0.00  0.00    -0.072 N 
ATOM     14  H10 FX5 d   1       2.529  -3.643   3.650  0.00  0.00     0.078 H 
ATOM     15  H11 FX5 d   1       0.987  -4.479   3.266  0.00  0.00     0.078 H 
ATOM     16  C17 FX5 d   1       2.989  -2.797   1.086  0.00  0.00     0.096 C 
ATOM     17  H16 FX5 d   1       1.118  -3.633   1.058  0.00  0.00     0.277 HD
ATOM     18  H17 FX5 d   1       1.262  -2.370   2.104  0.00  0.00     0.277 HD
ATOM     19  C16 FX5 d   1       3.714  -4.027   0.590  0.00  0.00     0.018 C 
ATOM     20  H3  FX5 d   1       2.771  -2.134   0.236  0.00  0.00     0.078 H 
ATOM     21  H4  FX5 d   1       3.623  -2.267   1.812  0.00  0.00     0.078 H 
ATOM     22  H8  FX5 d   1       4.672  -3.729   0.139  0.00  0.00     0.066 H 
ATOM     23  H9  FX5 d   1       3.096  -4.535  -0.165  0.00  0.00     0.066 H 
ENDBRANCH   5   8
BRANCH   3  24
ATOM     24  N14 FX5 d   1       6.633  -4.072   1.620  0.00  0.00    -0.381 N 
ATOM     25  H14 FX5 d   1       7.614  -3.760   1.601  0.00  0.00     0.157 HD
ATOM     26  H15 FX5 d   1       5.875  -3.383   1.731  0.00  0.00     0.157 HD
ENDBRANCH   3  24
BRANCH   1  27
ATOM     27  C5  FX5 d   1       5.905  -9.594   1.299  0.00  0.00     0.028 A 
ATOM     28  C4  FX5 d   1       4.677 -10.270   1.365  0.00  0.00    -0.068 A 
ATOM     29  C3  FX5 d   1       4.616 -11.661   1.310  0.00  0.00    -0.082 A 
ATOM     30  H1  FX5 d   1       3.760  -9.700   1.460  0.00  0.00     0.085 H 
ATOM     31  C2  FX5 d   1       5.774 -12.405   1.189  0.00  0.00    -0.080 A 
ATOM     32  H13 FX5 d   1       3.656 -12.162   1.362  0.00  0.00     0.083 H 
ATOM     33  C1  FX5 d   1       6.999 -11.770   1.107  0.00  0.00    -0.050 A 
ATOM     34  H12 FX5 d   1       5.722 -13.487   1.158  0.00  0.00     0.083 H 
ATOM     35  C6  FX5 d   1       7.070 -10.370   1.158  0.00  0.00     0.078 A 
ATOM     36  H7  FX5 d   1       7.906 -12.355   1.003  0.00  0.00     0.087 H 
BRANCH  35  37
ATOM     37  O13 FX5 d   1       8.319  -9.825   1.046  0.00  0.00    -0.360 OA
ATOM     38  H18 FX5 d   1       8.255  -8.878   1.093  0.00  0.00     0.217 HD
ENDBRANCH  35  37
ENDBRANCH   1  27
TORSDOF 4
