REMARK  6 active torsions:
REMARK  status: ('A' for Active; 'I' for Inactive)
REMARK    1  A    between atoms: O5_18  and  C2_1 
REMARK    2  A    between atoms: C11_4  and  N16_22 
REMARK    3  A    between atoms: C18_7  and  C20_8 
REMARK       I    between atoms: N16_22  and  C18_7 
REMARK    4  A    between atoms: C23_10  and  C30_14 
REMARK    5  A    between atoms: C30_14  and  N33_24 
REMARK    6  A    between atoms: O5_18  and  C6_19 
ROOT
ATOM      1  C20 FYH d   1      22.281  44.003  55.357  0.00  0.00     0.032 A 
ATOM      2  C21 FYH d   1      23.338  44.926  55.208  0.00  0.00    -0.060 A 
ATOM      3  C23 FYH d   1      23.827  45.657  56.315  0.00  0.00    -0.032 A 
ATOM      4  C24 FYH d   1      23.241  45.434  57.572  0.00  0.00    -0.075 A 
ATOM      5  C26 FYH d   1      22.201  44.516  57.738  0.00  0.00    -0.081 A 
ATOM      6  C28 FYH d   1      21.731  43.799  56.633  0.00  0.00    -0.068 A 
ATOM      7  H7  FYH d   1      23.782  45.077  54.230  0.00  0.00     0.086 H 
ATOM      8  H8  FYH d   1      23.604  45.986  58.432  0.00  0.00     0.084 H 
ATOM      9  H9  FYH d   1      21.761  44.361  58.717  0.00  0.00     0.083 H 
ATOM     10  H10 FYH d   1      20.933  43.077  56.763  0.00  0.00     0.085 H 
ENDROOT
BRANCH   1  11
ATOM     11  C18 FYH d   1      21.761  43.191  54.183  0.00  0.00     0.256 C 
ATOM     12  N16 FYH d   1      20.423  42.975  53.991  0.00  0.00    -0.323 N 
ATOM     13  H15 FYH d   1      19.802  43.423  54.634  0.00  0.00     0.169 HD
ATOM     14  O19 FYH d   1      22.632  42.739  53.449  0.00  0.00    -0.267 OA
BRANCH  12  15
ATOM     15  C11 FYH d   1      19.821  42.180  52.974  0.00  0.00     0.035 A 
ATOM     16  C12 FYH d   1      18.425  41.997  52.926  0.00  0.00    -0.054 A 
ATOM     17  C14 FYH d   1      17.818  41.175  51.953  0.00  0.00    -0.048 A 
ATOM     18  H5  FYH d   1      17.801  42.501  53.655  0.00  0.00     0.087 H 
ATOM     19  C6  FYH d   1      18.621  40.494  51.016  0.00  0.00     0.078 A 
ATOM     20  H6  FYH d   1      16.740  41.068  51.926  0.00  0.00     0.087 H 
ATOM     21  C7  FYH d   1      20.010  40.657  51.082  0.00  0.00    -0.048 A 
ATOM     22  C9  FYH d   1      20.597  41.480  52.053  0.00  0.00    -0.054 A 
ATOM     23  H13 FYH d   1      20.642  40.138  50.370  0.00  0.00     0.087 H 
ATOM     24  H14 FYH d   1      21.676  41.574  52.088  0.00  0.00     0.087 H 
BRANCH  19  25
ATOM     25  O5  FYH d   1      18.105  39.656  50.014  0.00  0.00    -0.255 OA
BRANCH  25  26
ATOM     26  C2  FYH d   1      17.889  38.245  50.218  0.00  0.00     0.530 C 
ATOM     27  F1  FYH d   1      17.155  38.038  51.336  0.00  0.00    -0.144 F 
ATOM     28  F3  FYH d   1      19.032  37.536  50.341  0.00  0.00    -0.144 F 
ATOM     29  F4  FYH d   1      17.249  37.750  49.132  0.00  0.00    -0.144 F 
ENDBRANCH  25  26
ENDBRANCH  19  25
ENDBRANCH  12  15
ENDBRANCH   1  11
BRANCH   3  30
ATOM     30  C30 FYH d   1      24.980  46.675  56.122  0.00  0.00     0.107 C 
ATOM     31  H11 FYH d   1      24.681  47.358  55.313  0.00  0.00     0.083 H 
ATOM     32  H12 FYH d   1      25.869  46.106  55.812  0.00  0.00     0.083 H 
BRANCH  30  33
ATOM     33  N33 FYH d   1      25.379  47.519  57.289  0.00  0.00    -0.063 N 
ATOM     34  C44 FYH d   1      26.800  47.368  57.711  0.00  0.00     0.103 C 
ATOM     35  C41 FYH d   1      27.164  48.376  58.842  0.00  0.00     0.042 C 
ATOM     36  H3  FYH d   1      26.958  46.344  58.079  0.00  0.00     0.079 H 
ATOM     37  H4  FYH d   1      27.453  47.550  56.844  0.00  0.00     0.079 H 
ATOM     38  O40 FYH d   1      26.191  48.341  59.914  0.00  0.00    -0.388 OA
ATOM     39  H1  FYH d   1      27.195  49.391  58.420  0.00  0.00     0.076 H 
ATOM     40  H2  FYH d   1      28.153  48.117  59.248  0.00  0.00     0.076 H 
ATOM     41  C37 FYH d   1      24.856  48.675  59.475  0.00  0.00     0.042 C 
ATOM     42  C34 FYH d   1      24.403  47.638  58.416  0.00  0.00     0.103 C 
ATOM     43  H19 FYH d   1      24.168  48.651  60.333  0.00  0.00     0.076 H 
ATOM     44  H20 FYH d   1      24.854  49.681  59.031  0.00  0.00     0.076 H 
ATOM     45  H17 FYH d   1      24.302  46.657  58.902  0.00  0.00     0.079 H 
ATOM     46  H18 FYH d   1      23.429  47.949  58.010  0.00  0.00     0.079 H 
ATOM     47  H16 FYH d   1      25.363  48.447  56.895  0.00  0.00     0.280 HD
ENDBRANCH  30  33
ENDBRANCH   3  30
TORSDOF 6
