REMARK  7 active torsions:
REMARK  status: ('A' for Active; 'I' for Inactive)
REMARK    1  A    between atoms: C10_10  and  C19_19 
REMARK    2  A    between atoms: C11_12  and  O2_23 
REMARK    3  A    between atoms: C13_13  and  C18_18 
REMARK    4  A    between atoms: C17_17  and  C20_20 
REMARK    5  A    between atoms: C17_17  and  O3_24 
REMARK    6  A    between atoms: C20_20  and  C21_21 
REMARK    7  A    between atoms: C21_21  and  O5_26 
ROOT
ATOM      1  C1  HCY d   1     -41.160 -16.385   8.839  0.00  0.00    -0.048 C 
ATOM      2  C2  HCY d   1     -41.254 -16.718  10.316  0.00  0.00    -0.005 C 
ATOM      3  C3  HCY d   1     -39.993 -17.394  10.789  0.00  0.00     0.149 C 
ATOM      4  C4  HCY d   1     -38.744 -17.007  10.139  0.00  0.00    -0.036 C 
ATOM      5  C5  HCY d   1     -38.687 -16.127   9.143  0.00  0.00    -0.068 C 
ATOM      6  C6  HCY d   1     -37.373 -15.536   8.740  0.00  0.00    -0.043 C 
ATOM      7  C7  HCY d   1     -37.126 -15.769   7.238  0.00  0.00    -0.057 C 
ATOM      8  C8  HCY d   1     -38.307 -15.226   6.440  0.00  0.00    -0.043 C 
ATOM      9  C9  HCY d   1     -39.634 -15.897   6.887  0.00  0.00    -0.015 C 
ATOM     10  C10 HCY d   1     -39.896 -15.645   8.408  0.00  0.00    -0.014 C 
ATOM     11  C12 HCY d   1     -40.536 -15.770   4.465  0.00  0.00    -0.030 C 
ATOM     12  C11 HCY d   1     -40.895 -15.631   5.953  0.00  0.00     0.041 C 
ATOM     13  C13 HCY d   1     -39.298 -14.956   4.104  0.00  0.00     0.001 C 
ATOM     14  C14 HCY d   1     -38.100 -15.468   4.947  0.00  0.00    -0.040 C 
ATOM     15  C15 HCY d   1     -36.912 -14.733   4.299  0.00  0.00    -0.058 C 
ATOM     16  C16 HCY d   1     -37.295 -14.639   2.800  0.00  0.00    -0.028 C 
ATOM     17  C17 HCY d   1     -38.729 -15.192   2.677  0.00  0.00     0.128 C 
ATOM     18  O1  HCY d   1     -40.019 -18.231  11.674  0.00  0.00    -0.293 OA
ATOM     19  H1  HCY d   1     -42.025 -15.758   8.578  0.00  0.00     0.035 H 
ATOM     20  H2  HCY d   1     -41.208 -17.329   8.276  0.00  0.00     0.035 H 
ATOM     21  H3  HCY d   1     -42.108 -17.391  10.481  0.00  0.00     0.044 H 
ATOM     22  H4  HCY d   1     -41.402 -15.790  10.887  0.00  0.00     0.044 H 
ATOM     23  H5  HCY d   1     -37.816 -17.460  10.486  0.00  0.00     0.089 H 
ATOM     24  H6  HCY d   1     -36.568 -16.011   9.319  0.00  0.00     0.039 H 
ATOM     25  H7  HCY d   1     -37.383 -14.455   8.944  0.00  0.00     0.039 H 
ATOM     26  H8  HCY d   1     -37.018 -16.847   7.047  0.00  0.00     0.034 H 
ATOM     27  H9  HCY d   1     -36.206 -15.249   6.932  0.00  0.00     0.034 H 
ATOM     28  H10 HCY d   1     -38.380 -14.143   6.618  0.00  0.00     0.041 H 
ATOM     29  H11 HCY d   1     -39.452 -16.978   6.798  0.00  0.00     0.046 H 
ATOM     30  H12 HCY d   1     -41.384 -15.417   3.859  0.00  0.00     0.038 H 
ATOM     31  H13 HCY d   1     -40.343 -16.830   4.243  0.00  0.00     0.038 H 
ATOM     32  H14 HCY d   1     -41.617 -16.430   6.177  0.00  0.00     0.083 H 
ATOM     33  H15 HCY d   1     -37.975 -16.552   4.806  0.00  0.00     0.042 H 
ATOM     34  H16 HCY d   1     -35.981 -15.305   4.429  0.00  0.00     0.033 H 
ATOM     35  H17 HCY d   1     -36.789 -13.730   4.734  0.00  0.00     0.033 H 
ATOM     36  H18 HCY d   1     -36.603 -15.241   2.193  0.00  0.00     0.038 H 
ATOM     37  H19 HCY d   1     -37.262 -13.592   2.465  0.00  0.00     0.038 H 
ENDROOT
BRANCH  17  38
ATOM     38  C20 HCY d   1     -39.562 -14.446   1.588  0.00  0.00     0.184 C 
ATOM     39  O4  HCY d   1     -39.283 -13.320   1.206  0.00  0.00    -0.292 OA
BRANCH  38  40
ATOM     40  C21 HCY d   1     -40.755 -15.198   0.980  0.00  0.00     0.074 C 
ATOM     41  H26 HCY d   1     -41.305 -15.742   1.762  0.00  0.00     0.086 H 
ATOM     42  H27 HCY d   1     -40.411 -15.907   0.212  0.00  0.00     0.086 H 
BRANCH  40  43
ATOM     43  O5  HCY d   1     -41.576 -14.203   0.401  0.00  0.00    -0.393 OA
ATOM     44  H30 HCY d   1     -41.084 -13.736  -0.265  0.00  0.00     0.209 HD
ENDBRANCH  40  43
ENDBRANCH  38  40
ENDBRANCH  17  38
BRANCH  17  45
ATOM     45  O3  HCY d   1     -38.739 -16.584   2.443  0.00  0.00    -0.381 OA
ATOM     46  H29 HCY d   1     -39.637 -16.886   2.373  0.00  0.00     0.211 HD
ENDBRANCH  17  45
BRANCH  13  47
ATOM     47  C18 HCY d   1     -39.498 -13.414   4.259  0.00  0.00    -0.065 C 
ATOM     48  H20 HCY d   1     -39.901 -13.195   5.259  0.00  0.00     0.028 H 
ATOM     49  H21 HCY d   1     -40.202 -13.057   3.493  0.00  0.00     0.028 H 
ATOM     50  H22 HCY d   1     -38.531 -12.905   4.134  0.00  0.00     0.028 H 
ENDBRANCH  13  47
BRANCH  12  51
ATOM     51  O2  HCY d   1     -41.555 -14.420   6.228  0.00  0.00    -0.395 OA
ATOM     52  H28 HCY d   1     -42.359 -14.377   5.724  0.00  0.00     0.210 HD
ENDBRANCH  12  51
BRANCH  10  53
ATOM     53  C19 HCY d   1     -40.048 -14.145   8.784  0.00  0.00    -0.065 C 
ATOM     54  H23 HCY d   1     -40.229 -14.055   9.865  0.00  0.00     0.028 H 
ATOM     55  H24 HCY d   1     -40.896 -13.713   8.233  0.00  0.00     0.028 H 
ATOM     56  H25 HCY d   1     -39.126 -13.606   8.520  0.00  0.00     0.028 H 
ENDBRANCH  10  53
TORSDOF 7
