REMARK  7 active torsions:
REMARK  status: ('A' for Active; 'I' for Inactive)
REMARK    1  A    between atoms: C10_10  and  C19_19 
REMARK    2  A    between atoms: C11_12  and  O2_23 
REMARK    3  A    between atoms: C13_13  and  C18_18 
REMARK    4  A    between atoms: C17_17  and  C20_20 
REMARK    5  A    between atoms: C17_17  and  O3_24 
REMARK    6  A    between atoms: C20_20  and  C21_21 
REMARK    7  A    between atoms: C21_21  and  O5_26 
ROOT
ATOM      1  C1  HCY d   1      -5.158  21.646  86.811  0.00  0.00    -0.048 C 
ATOM      2  C2  HCY d   1      -5.294  21.449  88.338  0.00  0.00    -0.005 C 
ATOM      3  C3  HCY d   1      -4.037  20.824  88.867  0.00  0.00     0.149 C 
ATOM      4  C4  HCY d   1      -2.776  21.340  88.310  0.00  0.00    -0.036 C 
ATOM      5  C5  HCY d   1      -2.666  21.824  87.072  0.00  0.00    -0.068 C 
ATOM      6  C6  HCY d   1      -1.335  22.315  86.620  0.00  0.00    -0.043 C 
ATOM      7  C7  HCY d   1      -1.065  22.188  85.141  0.00  0.00    -0.057 C 
ATOM      8  C8  HCY d   1      -2.253  22.569  84.313  0.00  0.00    -0.043 C 
ATOM      9  C9  HCY d   1      -3.566  21.936  84.805  0.00  0.00    -0.015 C 
ATOM     10  C10 HCY d   1      -3.847  22.309  86.317  0.00  0.00    -0.014 C 
ATOM     11  C12 HCY d   1      -4.408  21.836  82.341  0.00  0.00    -0.030 C 
ATOM     12  C11 HCY d   1      -4.770  22.161  83.851  0.00  0.00     0.041 C 
ATOM     13  C13 HCY d   1      -3.071  22.426  81.914  0.00  0.00     0.001 C 
ATOM     14  C14 HCY d   1      -1.990  22.038  82.913  0.00  0.00    -0.040 C 
ATOM     15  C15 HCY d   1      -0.705  22.545  82.238  0.00  0.00    -0.058 C 
ATOM     16  C16 HCY d   1      -0.900  22.143  80.734  0.00  0.00    -0.028 C 
ATOM     17  C17 HCY d   1      -2.415  21.851  80.554  0.00  0.00     0.128 C 
ATOM     18  O1  HCY d   1      -4.063  19.917  89.698  0.00  0.00    -0.293 OA
ATOM     19  H1  HCY d   1      -5.997  22.275  86.478  0.00  0.00     0.035 H 
ATOM     20  H2  HCY d   1      -5.231  20.656  86.338  0.00  0.00     0.035 H 
ATOM     21  H3  HCY d   1      -6.150  20.791  88.550  0.00  0.00     0.044 H 
ATOM     22  H4  HCY d   1      -5.452  22.424  88.822  0.00  0.00     0.044 H 
ATOM     23  H5  HCY d   1      -1.888  21.326  88.941  0.00  0.00     0.089 H 
ATOM     24  H6  HCY d   1      -0.563  21.744  87.156  0.00  0.00     0.039 H 
ATOM     25  H7  HCY d   1      -1.257  23.379  86.889  0.00  0.00     0.039 H 
ATOM     26  H8  HCY d   1      -0.798  21.144  84.918  0.00  0.00     0.034 H 
ATOM     27  H9  HCY d   1      -0.224  22.846  84.877  0.00  0.00     0.034 H 
ATOM     28  H10 HCY d   1      -2.358  23.664  84.301  0.00  0.00     0.041 H 
ATOM     29  H11 HCY d   1      -3.394  20.849  84.796  0.00  0.00     0.046 H 
ATOM     30  H12 HCY d   1      -5.197  22.248  81.694  0.00  0.00     0.038 H 
ATOM     31  H13 HCY d   1      -4.366  20.744  82.217  0.00  0.00     0.038 H 
ATOM     32  H14 HCY d   1      -5.562  21.461  84.155  0.00  0.00     0.083 H 
ATOM     33  H15 HCY d   1      -1.942  20.942  82.991  0.00  0.00     0.042 H 
ATOM     34  H16 HCY d   1       0.183  22.055  82.664  0.00  0.00     0.033 H 
ATOM     35  H17 HCY d   1      -0.609  23.636  82.344  0.00  0.00     0.033 H 
ATOM     36  H18 HCY d   1      -0.309  21.245  80.500  0.00  0.00     0.038 H 
ATOM     37  H19 HCY d   1      -0.590  22.968  80.076  0.00  0.00     0.038 H 
ENDROOT
BRANCH  17  38
ATOM     38  C20 HCY d   1      -3.041  22.513  79.340  0.00  0.00     0.184 C 
ATOM     39  O4  HCY d   1      -2.585  23.501  78.816  0.00  0.00    -0.292 OA
BRANCH  38  40
ATOM     40  C21 HCY d   1      -4.297  21.850  78.777  0.00  0.00     0.074 C 
ATOM     41  H26 HCY d   1      -5.183  22.473  78.968  0.00  0.00     0.086 H 
ATOM     42  H27 HCY d   1      -4.444  20.856  79.224  0.00  0.00     0.086 H 
BRANCH  40  43
ATOM     43  O5  HCY d   1      -4.055  21.741  77.388  0.00  0.00    -0.393 OA
ATOM     44  H30 HCY d   1      -3.919  22.607  77.022  0.00  0.00     0.209 HD
ENDBRANCH  40  43
ENDBRANCH  38  40
ENDBRANCH  17  38
BRANCH  17  45
ATOM     45  O3  HCY d   1      -2.645  20.499  80.434  0.00  0.00    -0.381 OA
ATOM     46  H29 HCY d   1      -3.576  20.346  80.325  0.00  0.00     0.211 HD
ENDBRANCH  17  45
BRANCH  13  47
ATOM     47  C18 HCY d   1      -3.179  23.967  81.742  0.00  0.00    -0.065 C 
ATOM     48  H20 HCY d   1      -3.623  24.407  82.647  0.00  0.00     0.028 H 
ATOM     49  H21 HCY d   1      -3.815  24.195  80.874  0.00  0.00     0.028 H 
ATOM     50  H22 HCY d   1      -2.176  24.389  81.583  0.00  0.00     0.028 H 
ENDBRANCH  13  47
BRANCH  12  51
ATOM     51  O2  HCY d   1      -5.274  23.434  83.977  0.00  0.00    -0.395 OA
ATOM     52  H28 HCY d   1      -6.061  23.515  83.451  0.00  0.00     0.210 HD
ENDBRANCH  12  51
BRANCH  10  53
ATOM     53  C19 HCY d   1      -3.946  23.867  86.569  0.00  0.00    -0.065 C 
ATOM     54  H23 HCY d   1      -4.141  24.054  87.635  0.00  0.00     0.028 H 
ATOM     55  H24 HCY d   1      -4.766  24.284  85.967  0.00  0.00     0.028 H 
ATOM     56  H25 HCY d   1      -2.999  24.346  86.280  0.00  0.00     0.028 H 
ENDBRANCH  10  53
TORSDOF 7
