REMARK  6 active torsions:
REMARK  status: ('A' for Active; 'I' for Inactive)
REMARK    1  A    between atoms: C10_10  and  C19_19 
REMARK    2  A    between atoms: C11_11  and  O2_23 
REMARK    3  A    between atoms: C13_13  and  C18_18 
REMARK    4  A    between atoms: C17_17  and  C20_20 
REMARK    5  A    between atoms: C20_20  and  C21_21 
REMARK    6  A    between atoms: C21_21  and  O4_25 
ROOT
ATOM      1  C1  C0R d   1       4.706  21.475  -8.790  0.00  0.00    -0.048 C 
ATOM      2  C2  C0R d   1       4.681  21.139 -10.261  0.00  0.00    -0.005 C 
ATOM      3  C3  C0R d   1       3.522  20.238 -10.558  0.00  0.00     0.149 C 
ATOM      4  C4  C0R d   1       2.266  20.581  -9.900  0.00  0.00    -0.036 C 
ATOM      5  C5  C0R d   1       2.195  21.548  -8.984  0.00  0.00    -0.068 C 
ATOM      6  C6  C0R d   1       0.860  21.952  -8.447  0.00  0.00    -0.043 C 
ATOM      7  C7  C0R d   1       0.670  21.571  -6.999  0.00  0.00    -0.057 C 
ATOM      8  C8  C0R d   1       1.822  22.089  -6.196  0.00  0.00    -0.043 C 
ATOM      9  C9  C0R d   1       3.152  21.573  -6.810  0.00  0.00    -0.015 C 
ATOM     10  C10 C0R d   1       3.362  22.052  -8.262  0.00  0.00    -0.014 C 
ATOM     11  C11 C0R d   1       4.418  21.785  -5.915  0.00  0.00     0.041 C 
ATOM     12  C12 C0R d   1       4.172  21.382  -4.452  0.00  0.00    -0.033 C 
ATOM     13  C13 C0R d   1       2.853  21.944  -3.909  0.00  0.00    -0.027 C 
ATOM     14  C14 C0R d   1       1.716  21.499  -4.826  0.00  0.00    -0.042 C 
ATOM     15  C15 C0R d   1       0.457  21.837  -4.032  0.00  0.00    -0.060 C 
ATOM     16  C16 C0R d   1       0.870  21.655  -2.572  0.00  0.00    -0.054 C 
ATOM     17  C17 C0R d   1       2.363  21.274  -2.592  0.00  0.00     0.013 C 
ATOM     18  O1  C0R d   1       3.609  19.297 -11.324  0.00  0.00    -0.293 OA
ATOM     19  H1  C0R d   1       5.497  22.220  -8.617  0.00  0.00     0.035 H 
ATOM     20  H2  C0R d   1       4.936  20.558  -8.227  0.00  0.00     0.035 H 
ATOM     21  H3  C0R d   1       5.617  20.631 -10.535  0.00  0.00     0.044 H 
ATOM     22  H4  C0R d   1       4.582  22.066 -10.845  0.00  0.00     0.044 H 
ATOM     23  H5  C0R d   1       1.363  20.033 -10.164  0.00  0.00     0.089 H 
ATOM     24  H6  C0R d   1       0.078  21.461  -9.045  0.00  0.00     0.039 H 
ATOM     25  H7  C0R d   1       0.760  23.044  -8.539  0.00  0.00     0.039 H 
ATOM     26  H8  C0R d   1       0.623  20.476  -6.910  0.00  0.00     0.034 H 
ATOM     27  H9  C0R d   1      -0.266  22.009  -6.623  0.00  0.00     0.034 H 
ATOM     28  H10 C0R d   1       1.808  23.188  -6.159  0.00  0.00     0.041 H 
ATOM     29  H11 C0R d   1       3.030  20.482  -6.877  0.00  0.00     0.046 H 
ATOM     30  H12 C0R d   1       5.206  21.124  -6.305  0.00  0.00     0.083 H 
ATOM     31  H13 C0R d   1       5.000  21.763  -3.836  0.00  0.00     0.037 H 
ATOM     32  H14 C0R d   1       4.142  20.284  -4.387  0.00  0.00     0.037 H 
ATOM     33  H15 C0R d   1       1.761  20.407  -4.951  0.00  0.00     0.041 H 
ATOM     34  H16 C0R d   1      -0.363  21.152  -4.293  0.00  0.00     0.033 H 
ATOM     35  H17 C0R d   1       0.144  22.874  -4.222  0.00  0.00     0.033 H 
ATOM     36  H18 C0R d   1       0.278  20.854  -2.105  0.00  0.00     0.034 H 
ATOM     37  H19 C0R d   1       0.723  22.592  -2.014  0.00  0.00     0.034 H 
ATOM     38  H20 C0R d   1       2.487  20.184  -2.667  0.00  0.00     0.053 H 
ENDROOT
BRANCH  17  39
ATOM     39  C20 C0R d   1       3.034  21.733  -1.317  0.00  0.00     0.154 C 
ATOM     40  O3  C0R d   1       2.683  22.668  -0.629  0.00  0.00    -0.295 OA
BRANCH  39  41
ATOM     41  C21 C0R d   1       4.227  20.927  -0.839  0.00  0.00     0.072 C 
ATOM     42  H27 C0R d   1       5.131  21.192  -1.407  0.00  0.00     0.085 H 
ATOM     43  H28 C0R d   1       4.035  19.848  -0.936  0.00  0.00     0.085 H 
BRANCH  41  44
ATOM     44  O4  C0R d   1       4.359  21.293   0.514  0.00  0.00    -0.394 OA
ATOM     45  H30 C0R d   1       4.510  22.229   0.575  0.00  0.00     0.209 HD
ENDBRANCH  41  44
ENDBRANCH  39  41
ENDBRANCH  17  39
BRANCH  13  46
ATOM     46  C18 C0R d   1       2.889  23.478  -3.742  0.00  0.00    -0.068 C 
ATOM     47  H21 C0R d   1       3.236  23.941  -4.678  0.00  0.00     0.028 H 
ATOM     48  H22 C0R d   1       3.577  23.742  -2.925  0.00  0.00     0.028 H 
ATOM     49  H23 C0R d   1       1.880  23.845  -3.504  0.00  0.00     0.028 H 
ENDBRANCH  13  46
BRANCH  11  50
ATOM     50  O2  C0R d   1       4.891  23.098  -6.008  0.00  0.00    -0.395 OA
ATOM     51  H29 C0R d   1       5.710  23.173  -5.532  0.00  0.00     0.210 HD
ENDBRANCH  11  50
BRANCH  10  52
ATOM     52  C19 C0R d   1       3.316  23.582  -8.436  0.00  0.00    -0.065 C 
ATOM     53  H24 C0R d   1       3.474  23.835  -9.495  0.00  0.00     0.028 H 
ATOM     54  H25 C0R d   1       4.106  24.044  -7.827  0.00  0.00     0.028 H 
ATOM     55  H26 C0R d   1       2.335  23.959  -8.111  0.00  0.00     0.028 H 
ENDBRANCH  10  52
TORSDOF 6
