REMARK  6 active torsions:
REMARK  status: ('A' for Active; 'I' for Inactive)
REMARK    1  A    between atoms: C_14  and  C6_3 
REMARK    2  A    between atoms: C7_4  and  C15_8 
REMARK    3  A    between atoms: C17_10  and  C18_11 
REMARK    4  A    between atoms: C18_11  and  C19_12 
REMARK    5  A    between atoms: C19_12  and  O4_26 
REMARK    6  A    between atoms: C4_17  and  O_18 
ROOT
ATOM      1  C1  AS4 d   1     -36.694  17.204  -1.337  0.00  0.00    -0.036 C 
ATOM      2  C5  AS4 d   1     -39.162  17.440  -1.294  0.00  0.00    -0.027 C 
ATOM      3  C7  AS4 d   1     -38.011  15.835  -4.695  0.00  0.00    -0.014 C 
ATOM      4  C8  AS4 d   1     -36.734  16.008  -5.452  0.00  0.00    -0.068 C 
ATOM      5  C9  AS4 d   1     -36.673  16.287  -6.755  0.00  0.00    -0.036 C 
ATOM      6  C10 AS4 d   1     -37.879  16.327  -7.564  0.00  0.00     0.149 C 
ATOM      7  C16 AS4 d   1     -36.172  17.492   0.990  0.00  0.00    -0.054 C 
ATOM      8  C17 AS4 d   1     -37.704  17.561   0.828  0.00  0.00     0.020 C 
ATOM      9  C20 AS4 d   1     -35.598  16.926  -0.315  0.00  0.00    -0.059 C 
ATOM     10  C   AS4 d   1     -37.964  16.895  -0.529  0.00  0.00     0.029 C 
ATOM     11  C2  AS4 d   1     -36.686  16.363  -2.603  0.00  0.00    -0.043 C 
ATOM     12  C3  AS4 d   1     -37.924  16.724  -3.433  0.00  0.00    -0.015 C 
ATOM     13  C4  AS4 d   1     -39.256  16.717  -2.644  0.00  0.00     0.041 C 
ATOM     14  O2  AS4 d   1     -37.891  16.797  -8.709  0.00  0.00    -0.293 OA
ATOM     15  C11 AS4 d   1     -39.136  15.759  -6.952  0.00  0.00    -0.005 C 
ATOM     16  C12 AS4 d   1     -39.238  16.258  -5.524  0.00  0.00    -0.048 C 
ATOM     17  C13 AS4 d   1     -35.468  15.787  -4.695  0.00  0.00    -0.043 C 
ATOM     18  C14 AS4 d   1     -35.428  16.622  -3.421  0.00  0.00    -0.057 C 
ATOM     19  H1  AS4 d   1     -36.660  18.263  -1.631  0.00  0.00     0.042 H 
ATOM     20  H2  AS4 d   1     -39.034  18.520  -1.461  0.00  0.00     0.038 H 
ATOM     21  H3  AS4 d   1     -40.081  17.265  -0.716  0.00  0.00     0.038 H 
ATOM     22  H5  AS4 d   1     -35.708  16.487  -7.218  0.00  0.00     0.089 H 
ATOM     23  H9  AS4 d   1     -35.912  16.833   1.832  0.00  0.00     0.034 H 
ATOM     24  H10 AS4 d   1     -35.767  18.498   1.173  0.00  0.00     0.034 H 
ATOM     25  H11 AS4 d   1     -38.048  18.606   0.822  0.00  0.00     0.053 H 
ATOM     26  H14 AS4 d   1     -34.665  17.440  -0.590  0.00  0.00     0.033 H 
ATOM     27  H15 AS4 d   1     -35.409  15.846  -0.225  0.00  0.00     0.033 H 
ATOM     28  H16 AS4 d   1     -36.724  15.298  -2.331  0.00  0.00     0.041 H 
ATOM     29  H17 AS4 d   1     -37.776  17.758  -3.777  0.00  0.00     0.046 H 
ATOM     30  H18 AS4 d   1     -40.017  17.225  -3.255  0.00  0.00     0.083 H 
ATOM     31  H20 AS4 d   1     -39.090  14.660  -6.960  0.00  0.00     0.044 H 
ATOM     32  H21 AS4 d   1     -40.013  16.093  -7.526  0.00  0.00     0.044 H 
ATOM     33  H22 AS4 d   1     -39.304  17.356  -5.532  0.00  0.00     0.035 H 
ATOM     34  H23 AS4 d   1     -40.144  15.839  -5.062  0.00  0.00     0.035 H 
ATOM     35  H24 AS4 d   1     -34.616  16.067  -5.333  0.00  0.00     0.039 H 
ATOM     36  H25 AS4 d   1     -35.392  14.723  -4.428  0.00  0.00     0.039 H 
ATOM     37  H26 AS4 d   1     -34.543  16.346  -2.829  0.00  0.00     0.034 H 
ATOM     38  H27 AS4 d   1     -35.375  17.689  -3.684  0.00  0.00     0.034 H 
ENDROOT
BRANCH   8  39
ATOM     39  C18 AS4 d   1     -38.403  16.810   1.934  0.00  0.00     0.155 C 
ATOM     40  O3  AS4 d   1     -37.821  15.999   2.649  0.00  0.00    -0.295 OA
BRANCH  39  41
ATOM     41  C19 AS4 d   1     -39.871  17.085   2.154  0.00  0.00     0.072 C 
ATOM     42  H12 AS4 d   1     -40.384  16.176   2.502  0.00  0.00     0.085 H 
ATOM     43  H13 AS4 d   1     -40.339  17.436   1.223  0.00  0.00     0.085 H 
BRANCH  41  44
ATOM     44  O4  AS4 d   1     -39.925  18.077   3.129  0.00  0.00    -0.394 OA
ATOM     45  H28 AS4 d   1     -40.832  18.293   3.310  0.00  0.00     0.209 HD
ENDBRANCH  41  44
ENDBRANCH  39  41
ENDBRANCH   8  39
BRANCH  10  46
ATOM     46  C6  AS4 d   1     -38.116  15.400  -0.271  0.00  0.00     0.097 C 
ATOM     47  O1  AS4 d   1     -39.207  14.848  -0.238  0.00  0.00    -0.306 OA
ATOM     48  H4  AS4 d   1     -37.220  14.802  -0.110  0.00  0.00     0.144 H 
ENDBRANCH  10  46
BRANCH  13  49
ATOM     49  O   AS4 d   1     -39.660  15.397  -2.418  0.00  0.00    -0.395 OA
ATOM     50  H19 AS4 d   1     -38.992  14.944  -1.916  0.00  0.00     0.210 HD
ENDBRANCH  13  49
BRANCH   3  51
ATOM     51  C15 AS4 d   1     -38.096  14.348  -4.355  0.00  0.00    -0.065 C 
ATOM     52  H6  AS4 d   1     -38.156  13.762  -5.284  0.00  0.00     0.028 H 
ATOM     53  H7  AS4 d   1     -38.993  14.162  -3.746  0.00  0.00     0.028 H 
ATOM     54  H8  AS4 d   1     -37.201  14.049  -3.790  0.00  0.00     0.028 H 
ENDBRANCH   3  51
TORSDOF 6
