REMARK  6 active torsions:
REMARK  status: ('A' for Active; 'I' for Inactive)
REMARK    1  A    between atoms: P_1  and  O5'_5 
REMARK    2  A    between atoms: O5'_5  and  C5'_6 
REMARK    3  A    between atoms: C5'_6  and  C4'_7 
REMARK    4  A    between atoms: C3'_9  and  O3'_10 
REMARK    5  A    between atoms: C2'_11  and  O2'_12 
REMARK    6  A    between atoms: C1'_13  and  N9_14 
ROOT
ATOM      1  C4' IMP d   1      16.966  -8.367  -7.070  0.00  0.00     0.089 C 
ATOM      2  O4' IMP d   1      16.446  -7.067  -7.200  0.00  0.00    -0.353 OA
ATOM      3  C3' IMP d   1      17.125  -8.933  -5.702  0.00  0.00     0.091 C 
ATOM      4  C2' IMP d   1      16.213  -7.982  -4.963  0.00  0.00     0.105 C 
ATOM      5  C1' IMP d   1      15.804  -6.856  -5.941  0.00  0.00     0.139 C 
ATOM      6  H3  IMP d   1      18.003  -8.216  -7.405  0.00  0.00     0.090 H 
ATOM      7  H4  IMP d   1      16.812  -9.985  -5.624  0.00  0.00     0.091 H 
ATOM      8  H6  IMP d   1      15.311  -8.505  -4.613  0.00  0.00     0.093 H 
ATOM      9  H8  IMP d   1      16.090  -5.879  -5.524  0.00  0.00     0.122 H 
ENDROOT
BRANCH   5  10
ATOM     10  N9  IMP d   1      14.348  -6.901  -6.184  0.00  0.00    -0.295 N 
ATOM     11  C8  IMP d   1      13.734  -7.093  -7.365  0.00  0.00     0.071 A 
ATOM     12  N7  IMP d   1      12.379  -7.062  -7.213  0.00  0.00    -0.234 NA
ATOM     13  H9  IMP d   1      14.248  -7.251  -8.312  0.00  0.00     0.144 H 
ATOM     14  C5  IMP d   1      12.133  -6.824  -5.896  0.00  0.00     0.172 A 
ATOM     15  C6  IMP d   1      10.967  -6.670  -5.090  0.00  0.00     0.300 A 
ATOM     16  C4  IMP d   1      13.387  -6.724  -5.253  0.00  0.00     0.146 A 
ATOM     17  O6  IMP d   1       9.779  -6.803  -5.534  0.00  0.00    -0.263 OA
ATOM     18  N1  IMP d   1      11.127  -6.468  -3.749  0.00  0.00    -0.203 NA
ATOM     19  C2  IMP d   1      12.351  -6.353  -3.208  0.00  0.00     0.069 A 
ATOM     20  N3  IMP d   1      13.478  -6.483  -3.924  0.00  0.00    -0.335 N 
ATOM     21  H10 IMP d   1      12.432  -6.145  -2.142  0.00  0.00     0.143 H 
ATOM     22  H11 IMP d   1      14.399  -6.401  -3.469  0.00  0.00     0.168 HD
ENDBRANCH   5  10
BRANCH   4  23
ATOM     23  O2' IMP d   1      16.951  -7.496  -3.841  0.00  0.00    -0.388 OA
ATOM     24  H7  IMP d   1      17.200  -8.226  -3.287  0.00  0.00     0.210 HD
ENDBRANCH   4  23
BRANCH   1  25
ATOM     25  C5' IMP d   1      16.478  -9.451  -7.963  0.00  0.00     0.059 C 
ATOM     26  H1  IMP d   1      17.205 -10.276  -7.962  0.00  0.00     0.079 H 
ATOM     27  H2  IMP d   1      15.508  -9.816  -7.593  0.00  0.00     0.079 H 
BRANCH  25  28
ATOM     28  O5' IMP d   1      16.321  -8.965  -9.292  0.00  0.00    -0.280 OA
BRANCH  28  29
ATOM     29  P   IMP d   1      16.562  -9.951 -10.502  0.00  0.00     0.422 P 
ATOM     30  O1P IMP d   1      15.594  -9.425 -11.543  0.00  0.00    -0.617 OA
ATOM     31  O2P IMP d   1      16.183 -11.358 -10.058  0.00  0.00    -0.617 OA
ATOM     32  O3P IMP d   1      18.005  -9.780 -10.916  0.00  0.00    -0.617 OA
ENDBRANCH  28  29
ENDBRANCH  25  28
ENDBRANCH   1  25
BRANCH   3  33
ATOM     33  O3' IMP d   1      18.474  -8.766  -5.269  0.00  0.00    -0.390 OA
ATOM     34  H5  IMP d   1      18.572  -9.128  -4.396  0.00  0.00     0.210 HD
ENDBRANCH   3  33
TORSDOF 6
