REMARK  7 active torsions:
REMARK  status: ('A' for Active; 'I' for Inactive)
REMARK    1  A    between atoms: P_1  and  O5'_5 
REMARK    2  A    between atoms: O5'_5  and  C5'_6 
REMARK    3  A    between atoms: C5'_6  and  C4'_7 
REMARK    4  A    between atoms: C3'_9  and  O3'_10 
REMARK    5  A    between atoms: C2'_11  and  O2'_12 
REMARK    6  A    between atoms: C1'_13  and  N9_14 
REMARK    7  A    between atoms: C2_21  and  N2_22 
ROOT
ATOM      1  C4' MOL d   1      30.475   8.290   4.969  0.00  0.00     0.089 C 
ATOM      2  O4' MOL d   1      31.214   7.988   3.772  0.00  0.00    -0.353 OA
ATOM      3  C3' MOL d   1      29.962   6.992   5.508  0.00  0.00     0.091 C 
ATOM      4  C2' MOL d   1      30.949   5.961   4.996  0.00  0.00     0.105 C 
ATOM      5  C1' MOL d   1      31.687   6.640   3.843  0.00  0.00     0.139 C 
ATOM      6  H3  MOL d   1      29.641   8.968   4.736  0.00  0.00     0.090 H 
ATOM      7  H4  MOL d   1      29.942   6.998   6.608  0.00  0.00     0.091 H 
ATOM      8  H6  MOL d   1      31.657   5.671   5.787  0.00  0.00     0.093 H 
ATOM      9  H8  MOL d   1      31.443   6.114   2.909  0.00  0.00     0.122 H 
ENDROOT
BRANCH   5  10
ATOM     10  N9  MOL d   1      33.161   6.646   4.003  0.00  0.00    -0.295 N 
ATOM     11  C8  MOL d   1      34.004   7.702   3.872  0.00  0.00     0.071 A 
ATOM     12  N7  MOL d   1      35.296   7.308   4.052  0.00  0.00    -0.234 NA
ATOM     13  H9  MOL d   1      33.691   8.722   3.654  0.00  0.00     0.144 H 
ATOM     14  C5  MOL d   1      35.274   5.967   4.264  0.00  0.00     0.171 A 
ATOM     15  C6  MOL d   1      36.274   4.923   4.518  0.00  0.00     0.292 A 
ATOM     16  C4  MOL d   1      33.948   5.570   4.247  0.00  0.00     0.161 A 
ATOM     17  O6  MOL d   1      37.504   5.189   4.585  0.00  0.00    -0.265 OA
ATOM     18  N1  MOL d   1      35.818   3.673   4.700  0.00  0.00    -0.154 N 
ATOM     19  C2  MOL d   1      34.495   3.362   4.670  0.00  0.00     0.680 A 
ATOM     20  H10 MOL d   1      36.479   2.941   4.864  0.00  0.00     0.187 HD
ATOM     21  N3  MOL d   1      33.524   4.273   4.424  0.00  0.00    -0.174 N 
ATOM     22  H13 MOL d   1      32.529   4.011   4.372  0.00  0.00     0.186 HD
BRANCH  19  23
ATOM     23  N2  MOL d   1      34.134   2.064   4.871  0.00  0.00    -0.234 N 
ATOM     24  H11 MOL d   1      33.139   1.798   4.854  0.00  0.00     0.174 HD
ATOM     25  H12 MOL d   1      34.856   1.349   5.040  0.00  0.00     0.174 HD
ENDBRANCH  19  23
ENDBRANCH   5  10
BRANCH   4  26
ATOM     26  O2' MOL d   1      30.232   4.803   4.542  0.00  0.00    -0.388 OA
ATOM     27  H7  MOL d   1      29.640   5.053   3.842  0.00  0.00     0.210 HD
ENDBRANCH   4  26
BRANCH   1  28
ATOM     28  C5' MOL d   1      31.367   8.917   6.012  0.00  0.00     0.059 C 
ATOM     29  H1  MOL d   1      30.782   9.142   6.916  0.00  0.00     0.079 H 
ATOM     30  H2  MOL d   1      32.184   8.226   6.267  0.00  0.00     0.079 H 
BRANCH  28  31
ATOM     31  O5' MOL d   1      31.904  10.119   5.475  0.00  0.00    -0.280 OA
BRANCH  31  32
ATOM     32  P   MOL d   1      31.574  11.540   6.142  0.00  0.00     0.422 P 
ATOM     33  O1P MOL d   1      30.221  11.952   5.564  0.00  0.00    -0.617 OA
ATOM     34  O2P MOL d   1      31.572  11.335   7.636  0.00  0.00    -0.617 OA
ATOM     35  O3P MOL d   1      32.735  12.403   5.667  0.00  0.00    -0.617 OA
ENDBRANCH  31  32
ENDBRANCH  28  31
ENDBRANCH   1  28
BRANCH   3  36
ATOM     36  O3' MOL d   1      28.641   6.761   5.001  0.00  0.00    -0.390 OA
ATOM     37  H5  MOL d   1      28.312   5.937   5.341  0.00  0.00     0.210 HD
ENDBRANCH   3  36
TORSDOF 7
