REMARK  9 active torsions:
REMARK  status: ('A' for Active; 'I' for Inactive)
REMARK    1  A    between atoms: S1_34  and  N2_2 
REMARK    2  A    between atoms: C5_5  and  S1_34 
REMARK    3  A    between atoms: C11_10  and  C8_7 
REMARK    4  A    between atoms: C13_12  and  N6_29 
REMARK    5  A    between atoms: C15_14  and  C14_13 
REMARK       I    between atoms: N5_28  and  C15_14 
REMARK    6  A    between atoms: C16_15  and  N5_28 
REMARK    7  A    between atoms: C17_16  and  O4_33 
REMARK    8  A    between atoms: N1_25  and  C2_19 
REMARK    9  A    between atoms: O4_33  and  C23_23 
ROOT
ATOM      1  C5  G8B d   1       3.987  13.110 -35.545  0.00  0.00     0.074 A 
ATOM      2  C6  G8B d   1       4.464  12.643 -34.320  0.00  0.00    -0.060 A 
ATOM      3  C8  G8B d   1       3.060  10.699 -34.519  0.00  0.00    -0.006 A 
ATOM      4  C9  G8B d   1       2.595  11.201 -35.727  0.00  0.00    -0.069 A 
ATOM      5  C10 G8B d   1       3.046  12.390 -36.251  0.00  0.00    -0.060 A 
ATOM      6  C7  G8B d   1       4.004  11.438 -33.804  0.00  0.00    -0.069 A 
ATOM      7  H7  G8B d   1       5.196  13.222 -33.769  0.00  0.00     0.085 H 
ATOM      8  H8  G8B d   1       1.851  10.636 -36.276  0.00  0.00     0.085 H 
ATOM      9  H9  G8B d   1       2.669  12.754 -37.200  0.00  0.00     0.085 H 
ATOM     10  H23 G8B d   1       4.375  11.074 -32.853  0.00  0.00     0.085 H 
ENDROOT
BRANCH   3  11
ATOM     11  C11 G8B d   1       2.532   9.420 -34.027  0.00  0.00     0.085 A 
ATOM     12  C12 G8B d   1       2.098   8.357 -34.842  0.00  0.00     0.033 A 
ATOM     13  N3  G8B d   1       1.607   7.211 -34.328  0.00  0.00    -0.239 NA
ATOM     14  H10 G8B d   1       2.161   8.463 -35.919  0.00  0.00     0.118 H 
ATOM     15  C13 G8B d   1       1.543   7.094 -32.971  0.00  0.00     0.155 A 
ATOM     16  C14 G8B d   1       1.993   8.188 -32.164  0.00  0.00     0.170 A 
ATOM     17  N4  G8B d   1       2.472   9.314 -32.689  0.00  0.00    -0.237 NA
BRANCH  15  18
ATOM     18  N6  G8B d   1       1.057   5.980 -32.398  0.00  0.00    -0.382 N 
ATOM     19  H26 G8B d   1       0.735   5.197 -32.985  0.00  0.00     0.157 HD
ATOM     20  H27 G8B d   1       1.006   5.909 -31.372  0.00  0.00     0.157 HD
ENDBRANCH  15  18
BRANCH  16  21
ATOM     21  C15 G8B d   1       1.966   8.194 -30.693  0.00  0.00     0.278 C 
ATOM     22  N5  G8B d   1       2.566   9.266 -30.168  0.00  0.00    -0.319 N 
ATOM     23  H25 G8B d   1       2.984   9.912 -30.807  0.00  0.00     0.169 HD
ATOM     24  O3  G8B d   1       1.438   7.270 -30.098  0.00  0.00    -0.265 OA
BRANCH  22  25
ATOM     25  C16 G8B d   1       2.664   9.571 -28.790  0.00  0.00     0.068 A 
ATOM     26  C17 G8B d   1       3.375  10.741 -28.450  0.00  0.00     0.095 A 
ATOM     27  C18 G8B d   1       3.486  11.120 -27.124  0.00  0.00    -0.049 A 
ATOM     28  C19 G8B d   1       2.888  10.361 -26.148  0.00  0.00    -0.080 A 
ATOM     29  H11 G8B d   1       4.042  12.011 -26.857  0.00  0.00     0.087 H 
ATOM     30  C20 G8B d   1       2.191   9.229 -26.469  0.00  0.00    -0.081 A 
ATOM     31  H12 G8B d   1       2.970  10.663 -25.110  0.00  0.00     0.083 H 
ATOM     32  C21 G8B d   1       2.070   8.831 -27.780  0.00  0.00    -0.054 A 
ATOM     33  H16 G8B d   1       1.730   8.641 -25.684  0.00  0.00     0.083 H 
ATOM     34  H17 G8B d   1       1.509   7.936 -28.024  0.00  0.00     0.087 H 
BRANCH  26  35
ATOM     35  O4  G8B d   1       3.916  11.411 -29.503  0.00  0.00    -0.354 OA
BRANCH  35  36
ATOM     36  C23 G8B d   1       4.634  12.615 -29.223  0.00  0.00     0.010 C 
ATOM     37  H20 G8B d   1       5.011  13.044 -30.163  0.00  0.00     0.066 H 
ATOM     38  H21 G8B d   1       5.480  12.391 -28.557  0.00  0.00     0.066 H 
ATOM     39  H22 G8B d   1       3.963  13.337 -28.734  0.00  0.00     0.066 H 
ENDBRANCH  35  36
ENDBRANCH  26  35
ENDBRANCH  22  25
ENDBRANCH  16  21
ENDBRANCH   3  11
BRANCH   1  40
ATOM     40  S1  G8B d   1       4.548  14.660 -36.213  0.00  0.00     0.243 S 
ATOM     41  O1  G8B d   1       3.533  15.051 -37.151  0.00  0.00    -0.206 OA
ATOM     42  O2  G8B d   1       4.936  15.396 -35.046  0.00  0.00    -0.206 OA
BRANCH  40  43
ATOM     43  N2  G8B d   1       5.915  14.535 -37.077  0.00  0.00    -0.203 NA
ATOM     44  C4  G8B d   1       7.095  14.263 -36.231  0.00  0.00     0.016 C 
ATOM     45  C3  G8B d   1       8.365  14.230 -37.046  0.00  0.00     0.095 C 
ATOM     46  H5  G8B d   1       6.963  13.290 -35.736  0.00  0.00     0.059 H 
ATOM     47  H6  G8B d   1       7.179  15.053 -35.470  0.00  0.00     0.059 H 
ATOM     48  N1  G8B d   1       8.233  13.281 -38.182  0.00  0.00    -0.073 N 
ATOM     49  H3  G8B d   1       9.199  13.911 -36.403  0.00  0.00     0.077 H 
ATOM     50  H4  G8B d   1       8.569  15.237 -37.438  0.00  0.00     0.077 H 
ATOM     51  C1  G8B d   1       7.097  13.700 -39.052  0.00  0.00     0.095 C 
ATOM     52  H24 G8B d   1       8.016  12.371 -37.807  0.00  0.00     0.279 HD
ATOM     53  C22 G8B d   1       5.789  13.746 -38.308  0.00  0.00     0.016 C 
ATOM     54  H1  G8B d   1       7.310  14.702 -39.453  0.00  0.00     0.077 H 
ATOM     55  H2  G8B d   1       7.006  12.984 -39.882  0.00  0.00     0.077 H 
ATOM     56  H18 G8B d   1       5.485  12.721 -38.049  0.00  0.00     0.059 H 
ATOM     57  H19 G8B d   1       5.024  14.204 -38.952  0.00  0.00     0.059 H 
BRANCH  48  58
ATOM     58  C2  G8B d   1       9.515  13.163 -38.934  0.00  0.00     0.066 C 
ATOM     59  H13 G8B d   1       9.388  12.456 -39.767  0.00  0.00     0.068 H 
ATOM     60  H14 G8B d   1      10.303  12.797 -38.260  0.00  0.00     0.068 H 
ATOM     61  H15 G8B d   1       9.800  14.149 -39.330  0.00  0.00     0.068 H 
ENDBRANCH  48  58
ENDBRANCH  40  43
ENDBRANCH   1  40
TORSDOF 9
