REMARK  6 active torsions:
REMARK  status: ('A' for Active; 'I' for Inactive)
REMARK    1  A    between atoms: C7_18  and  C10_2 
REMARK    2  A    between atoms: C12_4  and  N6_26 
REMARK    3  A    between atoms: C13_5  and  C14_6 
REMARK       I    between atoms: C14_6  and  N4_24 
REMARK    4  A    between atoms: N4_24  and  C15_7 
REMARK    5  A    between atoms: S1_31  and  C4_15 
REMARK    6  A    between atoms: N1_21  and  S1_31 
ROOT
ATOM      1  C4  G8E d   1     -14.159  -0.185  -8.239  0.00  0.00     0.074 A 
ATOM      2  C5  G8E d   1     -14.586   0.045  -6.925  0.00  0.00    -0.060 A 
ATOM      3  C6  G8E d   1     -14.097   1.145  -6.236  0.00  0.00    -0.069 A 
ATOM      4  C7  G8E d   1     -13.199   2.000  -6.868  0.00  0.00    -0.006 A 
ATOM      5  C8  G8E d   1     -12.797   1.765  -8.169  0.00  0.00    -0.069 A 
ATOM      6  C9  G8E d   1     -13.258   0.661  -8.875  0.00  0.00    -0.060 A 
ATOM      7  H14 G8E d   1     -15.291  -0.629  -6.452  0.00  0.00     0.085 H 
ATOM      8  H15 G8E d   1     -14.411   1.337  -5.216  0.00  0.00     0.085 H 
ATOM      9  H16 G8E d   1     -12.110   2.454  -8.647  0.00  0.00     0.085 H 
ATOM     10  H17 G8E d   1     -12.926   0.466  -9.888  0.00  0.00     0.085 H 
ENDROOT
BRANCH   4  11
ATOM     11  C10 G8E d   1     -12.669   3.235  -6.159  0.00  0.00     0.085 A 
ATOM     12  C11 G8E d   1     -12.238   4.322  -6.936  0.00  0.00     0.033 A 
ATOM     13  N2  G8E d   1     -11.779   5.423  -6.340  0.00  0.00    -0.239 NA
ATOM     14  H3  G8E d   1     -12.278   4.266  -8.018  0.00  0.00     0.118 H 
ATOM     15  C12 G8E d   1     -11.771   5.482  -4.999  0.00  0.00     0.155 A 
ATOM     16  C13 G8E d   1     -12.206   4.396  -4.240  0.00  0.00     0.170 A 
ATOM     17  N3  G8E d   1     -12.659   3.304  -4.823  0.00  0.00    -0.237 NA
BRANCH  15  18
ATOM     18  N6  G8E d   1     -11.274   6.654  -4.344  0.00  0.00    -0.382 N 
ATOM     19  H19 G8E d   1     -10.952   7.458  -4.901  0.00  0.00     0.157 HD
ATOM     20  H20 G8E d   1     -11.239   6.693  -3.315  0.00  0.00     0.157 HD
ENDBRANCH  15  18
BRANCH  16  21
ATOM     21  C14 G8E d   1     -12.197   4.370  -2.726  0.00  0.00     0.278 C 
ATOM     22  N4  G8E d   1     -12.702   3.101  -2.173  0.00  0.00    -0.320 N 
ATOM     23  H18 G8E d   1     -13.003   2.392  -2.810  0.00  0.00     0.169 HD
ATOM     24  O4  G8E d   1     -11.779   5.295  -2.091  0.00  0.00    -0.265 OA
BRANCH  22  25
ATOM     25  C15 G8E d   1     -12.784   2.830  -0.753  0.00  0.00     0.052 A 
ATOM     26  C16 G8E d   1     -12.378   3.746   0.157  0.00  0.00    -0.054 A 
ATOM     27  C17 G8E d   1     -12.461   3.466   1.467  0.00  0.00    -0.064 A 
ATOM     28  H4  G8E d   1     -11.987   4.702  -0.171  0.00  0.00     0.087 H 
ATOM     29  C18 G8E d   1     -12.974   2.253   1.889  0.00  0.00     0.002 A 
ATOM     30  H5  G8E d   1     -12.125   4.193   2.197  0.00  0.00     0.085 H 
ATOM     31  N5  G8E d   1     -13.399   1.350   0.993  0.00  0.00    -0.271 NA
ATOM     32  H6  G8E d   1     -13.033   2.031   2.948  0.00  0.00     0.114 H 
ATOM     33  C19 G8E d   1     -13.300   1.626  -0.328  0.00  0.00     0.028 A 
ATOM     34  H7  G8E d   1     -13.629   0.894  -1.057  0.00  0.00     0.118 H 
ENDBRANCH  22  25
ENDBRANCH  16  21
ENDBRANCH   4  11
BRANCH   1  35
ATOM     35  S1  G8E d   1     -14.791  -1.606  -9.149  0.00  0.00     0.243 S 
ATOM     36  O2  G8E d   1     -13.663  -2.038 -10.262  0.00  0.00    -0.206 OA
ATOM     37  O3  G8E d   1     -15.223  -2.791  -8.103  0.00  0.00    -0.206 OA
BRANCH  35  38
ATOM     38  N1  G8E d   1     -16.066  -1.214  -9.920  0.00  0.00    -0.202 NA
ATOM     39  C20 G8E d   1     -15.899  -0.129 -10.520  0.00  0.00     0.013 C 
ATOM     40  C1  G8E d   1     -17.130   0.575 -11.117  0.00  0.00     0.031 C 
ATOM     41  H10 G8E d   1     -15.439   0.570  -9.806  0.00  0.00     0.060 H 
ATOM     42  H11 G8E d   1     -15.200  -0.320 -11.348  0.00  0.00     0.060 H 
ATOM     43  O1  G8E d   1     -18.378   0.193 -10.608  0.00  0.00    -0.389 OA
ATOM     44  H1  G8E d   1     -17.136   0.377 -12.199  0.00  0.00     0.076 H 
ATOM     45  H2  G8E d   1     -17.015   1.655 -10.942  0.00  0.00     0.076 H 
ATOM     46  C2  G8E d   1     -18.363  -0.974  -9.835  0.00  0.00     0.031 C 
ATOM     47  C3  G8E d   1     -17.025  -1.196  -9.128  0.00  0.00     0.013 C 
ATOM     48  H8  G8E d   1     -19.155  -0.903  -9.075  0.00  0.00     0.076 H 
ATOM     49  H9  G8E d   1     -18.561  -1.834 -10.492  0.00  0.00     0.076 H 
ATOM     50  H12 G8E d   1     -17.062  -2.158  -8.597  0.00  0.00     0.060 H 
ATOM     51  H13 G8E d   1     -16.869  -0.383  -8.404  0.00  0.00     0.060 H 
ENDBRANCH  35  38
ENDBRANCH   1  35
TORSDOF 6
