REMARK  4 active torsions:
REMARK  status: ('A' for Active; 'I' for Inactive)
REMARK    1  A    between atoms: C1_1  and  C2_4 
REMARK    2  A    between atoms: C2_4  and  O3_5 
REMARK    3  A    between atoms: C2_4  and  C3_6 
REMARK    4  A    between atoms: C3_6  and  C4_7 
ROOT
ATOM      1  C2  MLT d   1      10.422  31.646   1.821  0.00  0.00     0.128 C 
ATOM      2  H1  MLT d   1      10.247  32.374   1.016  0.00  0.00     0.100 H 
ENDROOT
BRANCH   1   3
ATOM      3  C1  MLT d   1       9.117  30.918   2.051  0.00  0.00     0.203 C 
ATOM      4  O1  MLT d   1       8.724  30.107   1.184  0.00  0.00    -0.646 OA
ATOM      5  O2  MLT d   1       8.423  31.145   3.068  0.00  0.00    -0.646 OA
ENDBRANCH   1   3
BRANCH   1   6
ATOM      6  O3  MLT d   1      11.562  30.834   1.472  0.00  0.00    -0.384 OA
ATOM      7  H2  MLT d   1      12.322  31.392   1.352  0.00  0.00     0.210 HD
ENDBRANCH   1   6
BRANCH   1   8
ATOM      8  C3  MLT d   1      10.890  32.358   3.055  0.00  0.00     0.049 C 
ATOM      9  H3  MLT d   1      11.100  31.645   3.865  0.00  0.00     0.053 H 
ATOM     10  H4  MLT d   1      10.142  33.089   3.395  0.00  0.00     0.053 H 
BRANCH   8  11
ATOM     11  C4  MLT d   1      12.151  33.047   2.602  0.00  0.00     0.175 C 
ATOM     12  O4  MLT d   1      13.063  32.380   2.042  0.00  0.00    -0.648 OA
ATOM     13  O5  MLT d   1      12.190  34.281   2.785  0.00  0.00    -0.648 OA
ENDBRANCH   8  11
ENDBRANCH   1   8
TORSDOF 4
