REMARK  12 active torsions:
REMARK  status: ('A' for Active; 'I' for Inactive)
REMARK    1  A    between atoms: CA_5  and  C_6 
REMARK    2  A    between atoms: N_8  and  CAG_9 
REMARK    3  A    between atoms: CAG_9  and  CAH_10 
REMARK    4  A    between atoms: CAH_10  and  OAP_11 
REMARK    5  A    between atoms: CAH_10  and  CAI_12 
REMARK    6  A    between atoms: CAI_12  and  OAQ_13 
REMARK    7  A    between atoms: CAI_12  and  CAJ_14 
REMARK    8  A    between atoms: CAJ_14  and  OAR_15 
REMARK    9  A    between atoms: CAJ_14  and  CAK_16 
REMARK   10  A    between atoms: CAK_16  and  OAT_17 
REMARK   11  A    between atoms: CAK_16  and  CAL_18 
REMARK   12  A    between atoms: CAL_18  and  OAS_19 
ROOT
ATOM      1  CAH G9Z d   1      85.724 -29.675   0.884  0.00  0.00     0.078 C 
ATOM      2  H8  G9Z d   1      86.458 -30.419   1.228  0.00  0.00     0.089 H 
ENDROOT
BRANCH   1   3
ATOM      3  CAG G9Z d   1      85.385 -29.944  -0.583  0.00  0.00     0.025 C 
ATOM      4  H6  G9Z d   1      84.874 -30.914  -0.665  0.00  0.00     0.068 H 
ATOM      5  H7  G9Z d   1      84.723 -29.148  -0.954  0.00  0.00     0.068 H 
BRANCH   3   6
ATOM      6  N   G9Z d   1      86.647 -29.973  -1.418  0.00  0.00    -0.335 N 
ATOM      7  CAB G9Z d   1      87.212 -31.098  -1.894  0.00  0.00     0.220 A 
ATOM      8  OAM G9Z d   1      86.844 -32.243  -1.596  0.00  0.00    -0.273 OA
ATOM      9  CAC G9Z d   1      88.362 -30.844  -2.669  0.00  0.00     0.012 A 
ATOM     10  CB  G9Z d   1      88.445 -29.294  -2.822  0.00  0.00    -0.029 A 
ATOM     11  H1  G9Z d   1      88.270 -31.321  -3.656  0.00  0.00     0.047 H 
ATOM     12  H2  G9Z d   1      89.258 -31.226  -2.159  0.00  0.00     0.047 H 
ATOM     13  CA  G9Z d   1      87.356 -28.748  -1.914  0.00  0.00     0.099 A 
ATOM     14  H3  G9Z d   1      88.262 -28.998  -3.866  0.00  0.00     0.037 H 
ATOM     15  H4  G9Z d   1      89.432 -28.927  -2.505  0.00  0.00     0.037 H 
ATOM     16  H5  G9Z d   1      87.807 -28.219  -1.062  0.00  0.00     0.089 H 
BRANCH  13  17
ATOM     17  C   G9Z d   1      86.517 -27.823  -2.613  0.00  0.00     0.197 C 
ATOM     18  O   G9Z d   1      85.554 -28.271  -3.294  0.00  0.00    -0.646 OA
ATOM     19  OXT G9Z d   1      86.804 -26.597  -2.542  0.00  0.00    -0.646 OA
ENDBRANCH  13  17
ENDBRANCH   3   6
ENDBRANCH   1   3
BRANCH   1  20
ATOM     20  OAP G9Z d   1      86.297 -28.369   0.942  0.00  0.00    -0.391 OA
ATOM     21  H9  G9Z d   1      85.669 -27.734   0.619  0.00  0.00     0.210 HD
ENDBRANCH   1  20
BRANCH   1  22
ATOM     22  CAI G9Z d   1      84.496 -29.743   1.797  0.00  0.00     0.089 C 
ATOM     23  H10 G9Z d   1      83.912 -28.817   1.690  0.00  0.00     0.091 H 
BRANCH  22  24
ATOM     24  OAQ G9Z d   1      83.690 -30.888   1.419  0.00  0.00    -0.390 OA
ATOM     25  H11 G9Z d   1      82.926 -30.936   1.982  0.00  0.00     0.210 HD
ENDBRANCH  22  24
BRANCH  22  26
ATOM     26  CAJ G9Z d   1      84.901 -29.938   3.297  0.00  0.00     0.089 C 
ATOM     27  H12 G9Z d   1      85.399 -30.917   3.359  0.00  0.00     0.091 H 
BRANCH  26  28
ATOM     28  OAR G9Z d   1      83.715 -30.002   4.110  0.00  0.00    -0.390 OA
ATOM     29  H13 G9Z d   1      83.179 -30.734   3.829  0.00  0.00     0.210 HD
ENDBRANCH  26  28
BRANCH  26  30
ATOM     30  CAK G9Z d   1      85.898 -28.908   3.881  0.00  0.00     0.083 C 
ATOM     31  H14 G9Z d   1      86.755 -28.847   3.194  0.00  0.00     0.090 H 
BRANCH  30  32
ATOM     32  OAT G9Z d   1      86.385 -29.379   5.153  0.00  0.00    -0.391 OA
ATOM     33  H15 G9Z d   1      85.654 -29.487   5.750  0.00  0.00     0.210 HD
ENDBRANCH  30  32
BRANCH  30  34
ATOM     34  CAL G9Z d   1      85.300 -27.497   3.988  0.00  0.00     0.043 C 
ATOM     35  H16 G9Z d   1      84.482 -27.502   4.723  0.00  0.00     0.078 H 
ATOM     36  H17 G9Z d   1      84.909 -27.192   3.006  0.00  0.00     0.078 H 
BRANCH  34  37
ATOM     37  OAS G9Z d   1      86.317 -26.562   4.410  0.00  0.00    -0.398 OA
ATOM     38  H18 G9Z d   1      85.939 -25.693   4.474  0.00  0.00     0.209 HD
ENDBRANCH  34  37
ENDBRANCH  30  34
ENDBRANCH  26  30
ENDBRANCH  22  26
ENDBRANCH   1  22
TORSDOF 12
