REMARK  12 active torsions:
REMARK  status: ('A' for Active; 'I' for Inactive)
REMARK    1  A    between atoms: CA_5  and  C_6 
REMARK    2  A    between atoms: N_8  and  CAG_9 
REMARK    3  A    between atoms: CAG_9  and  CAH_10 
REMARK    4  A    between atoms: CAH_10  and  OAP_11 
REMARK    5  A    between atoms: CAH_10  and  CAI_12 
REMARK    6  A    between atoms: CAI_12  and  OAQ_13 
REMARK    7  A    between atoms: CAI_12  and  CAJ_14 
REMARK    8  A    between atoms: CAJ_14  and  OAR_15 
REMARK    9  A    between atoms: CAJ_14  and  CAK_16 
REMARK   10  A    between atoms: CAK_16  and  OAT_17 
REMARK   11  A    between atoms: CAK_16  and  CAL_18 
REMARK   12  A    between atoms: CAL_18  and  OAS_19 
ROOT
ATOM      1  CAH G9Z d   1      53.857  13.437  81.190  0.00  0.00     0.078 C 
ATOM      2  H8  G9Z d   1      54.508  13.353  80.308  0.00  0.00     0.089 H 
ENDROOT
BRANCH   1   3
ATOM      3  CAG G9Z d   1      53.479  12.033  81.676  0.00  0.00     0.025 C 
ATOM      4  H6  G9Z d   1      54.396  11.478  81.921  0.00  0.00     0.068 H 
ATOM      5  H7  G9Z d   1      52.852  12.120  82.575  0.00  0.00     0.068 H 
BRANCH   3   6
ATOM      6  N   G9Z d   1      52.730  11.295  80.632  0.00  0.00    -0.335 N 
ATOM      7  CAB G9Z d   1      53.298  10.503  79.702  0.00  0.00     0.220 A 
ATOM      8  OAM G9Z d   1      54.544  10.355  79.583  0.00  0.00    -0.273 OA
ATOM      9  CAC G9Z d   1      52.329   9.882  78.853  0.00  0.00     0.012 A 
ATOM     10  CB  G9Z d   1      50.971  10.528  79.257  0.00  0.00    -0.029 A 
ATOM     11  H1  G9Z d   1      52.306   8.795  79.022  0.00  0.00     0.047 H 
ATOM     12  H2  G9Z d   1      52.554  10.084  77.796  0.00  0.00     0.047 H 
ATOM     13  CA  G9Z d   1      51.259  11.399  80.501  0.00  0.00     0.099 A 
ATOM     14  H3  G9Z d   1      50.235   9.747  79.501  0.00  0.00     0.037 H 
ATOM     15  H4  G9Z d   1      50.586  11.151  78.436  0.00  0.00     0.037 H 
ATOM     16  H5  G9Z d   1      50.990  12.448  80.308  0.00  0.00     0.089 H 
BRANCH  13  17
ATOM     17  C   G9Z d   1      50.450  10.935  81.631  0.00  0.00     0.197 C 
ATOM     18  O   G9Z d   1      49.208  11.145  81.611  0.00  0.00    -0.646 OA
ATOM     19  OXT G9Z d   1      51.016  10.327  82.557  0.00  0.00    -0.646 OA
ENDBRANCH  13  17
ENDBRANCH   3   6
ENDBRANCH   1   3
BRANCH   1  20
ATOM     20  OAP G9Z d   1      52.658  14.166  80.847  0.00  0.00    -0.391 OA
ATOM     21  H9  G9Z d   1      52.893  15.036  80.546  0.00  0.00     0.210 HD
ENDBRANCH   1  20
BRANCH   1  22
ATOM     22  CAI G9Z d   1      54.585  14.216  82.295  0.00  0.00     0.089 C 
ATOM     23  H10 G9Z d   1      54.507  15.281  82.031  0.00  0.00     0.091 H 
BRANCH  22  24
ATOM     24  OAQ G9Z d   1      53.916  14.050  83.573  0.00  0.00    -0.390 OA
ATOM     25  H11 G9Z d   1      54.383  14.540  84.240  0.00  0.00     0.210 HD
ENDBRANCH  22  24
BRANCH  22  26
ATOM     26  CAJ G9Z d   1      56.096  13.901  82.381  0.00  0.00     0.089 C 
ATOM     27  H12 G9Z d   1      56.574  14.099  81.410  0.00  0.00     0.091 H 
BRANCH  26  28
ATOM     28  OAR G9Z d   1      56.292  12.529  82.759  0.00  0.00    -0.390 OA
ATOM     29  H13 G9Z d   1      55.891  11.963  82.110  0.00  0.00     0.210 HD
ENDBRANCH  26  28
BRANCH  26  30
ATOM     30  CAK G9Z d   1      56.727  14.771  83.473  0.00  0.00     0.083 C 
ATOM     31  H14 G9Z d   1      56.210  14.576  84.424  0.00  0.00     0.090 H 
BRANCH  30  32
ATOM     32  OAT G9Z d   1      56.563  16.168  83.119  0.00  0.00    -0.391 OA
ATOM     33  H15 G9Z d   1      56.992  16.335  82.288  0.00  0.00     0.210 HD
ENDBRANCH  30  32
BRANCH  30  34
ATOM     34  CAL G9Z d   1      58.221  14.455  83.651  0.00  0.00     0.043 C 
ATOM     35  H16 G9Z d   1      58.325  13.422  84.016  0.00  0.00     0.078 H 
ATOM     36  H17 G9Z d   1      58.646  15.150  84.390  0.00  0.00     0.078 H 
BRANCH  34  37
ATOM     37  OAS G9Z d   1      58.948  14.588  82.415  0.00  0.00    -0.398 OA
ATOM     38  H18 G9Z d   1      58.590  13.987  81.772  0.00  0.00     0.209 HD
ENDBRANCH  34  37
ENDBRANCH  30  34
ENDBRANCH  26  30
ENDBRANCH  22  26
ENDBRANCH   1  22
TORSDOF 12
