REMARK  21 active torsions:
REMARK  status: ('A' for Active; 'I' for Inactive)
REMARK    1  A    between atoms: O14_25  and  C1_1 
REMARK    2  A    between atoms: C2_2  and  N2_9 
REMARK    3  A    between atoms: C3_3  and  O3_10 
REMARK    4  A    between atoms: C4_4  and  O4_11 
REMARK    5  A    between atoms: C5_5  and  C6_6 
REMARK    6  A    between atoms: C6_6  and  O6_13 
REMARK    7  A    between atoms: C7_7  and  C8_8 
REMARK       I    between atoms: N2_9  and  C7_7 
REMARK    8  A    between atoms: O24_41  and  C11_15 
REMARK    9  A    between atoms: C12_16  and  N12_23 
REMARK   10  A    between atoms: C13_17  and  O13_24 
REMARK   11  A    between atoms: C14_18  and  O14_25 
REMARK   12  A    between atoms: C15_19  and  C16_20 
REMARK   13  A    between atoms: C16_20  and  O16_27 
REMARK   14  A    between atoms: C17_21  and  C18_22 
REMARK       I    between atoms: N12_23  and  C17_21 
REMARK   15  A    between atoms: C23_31  and  O23_40 
REMARK   16  A    between atoms: C24_32  and  O24_41 
REMARK   17  A    between atoms: C25_33  and  C26_34 
REMARK   18  A    between atoms: C26_34  and  O26_42 
REMARK   19  A    between atoms: C27_35  and  N27_39 
REMARK   20  A    between atoms: N27_39  and  C28_36 
REMARK   21  A    between atoms: N27_39  and  C29_37 
ROOT
ATOM      1  C11 AO3 d   1      18.100  -5.754 -12.389  0.00  0.00     0.154 C 
ATOM      2  C12 AO3 d   1      18.407  -5.877 -13.863  0.00  0.00     0.087 C 
ATOM      3  C13 AO3 d   1      19.911  -5.901 -14.001  0.00  0.00     0.087 C 
ATOM      4  C14 AO3 d   1      20.602  -4.754 -13.271  0.00  0.00     0.095 C 
ATOM      5  C15 AO3 d   1      20.079  -4.632 -11.845  0.00  0.00     0.089 C 
ATOM      6  O15 AO3 d   1      18.684  -4.597 -11.860  0.00  0.00    -0.349 OA
ATOM      7  H15 AO3 d   1      18.463  -6.638 -11.845  0.00  0.00     0.132 H 
ATOM      8  H16 AO3 d   1      18.008  -5.004 -14.401  0.00  0.00     0.084 H 
ATOM      9  H17 AO3 d   1      20.174  -5.854 -15.068  0.00  0.00     0.090 H 
ATOM     10  H18 AO3 d   1      20.434  -3.810 -13.809  0.00  0.00     0.091 H 
ATOM     11  H19 AO3 d   1      20.413  -5.521 -11.290  0.00  0.00     0.090 H 
ENDROOT
BRANCH   1  12
ATOM     12  O24 AO3 d   1      16.718  -5.649 -12.291  0.00  0.00    -0.351 OA
BRANCH  12  13
ATOM     13  C24 AO3 d   1      16.151  -5.971 -11.052  0.00  0.00     0.076 C 
ATOM     14  C23 AO3 d   1      16.012  -4.914  -9.970  0.00  0.00     0.085 C 
ATOM     15  C22 AO3 d   1      15.132  -5.605  -8.939  0.00  0.00     0.089 C 
ATOM     16  H30 AO3 d   1      15.529  -4.005 -10.359  0.00  0.00     0.090 H 
ATOM     17  C21 AO3 d   1      14.189  -6.458  -9.815  0.00  0.00     0.080 C 
ATOM     18  N22 AO3 d   1      14.176  -4.715  -8.274  0.00  0.00    -0.240 NA
ATOM     19  H29 AO3 d   1      15.728  -6.182  -8.217  0.00  0.00     0.084 H 
ATOM     20  C25 AO3 d   1      14.718  -6.441 -11.228  0.00  0.00     0.022 C 
ATOM     21  O27 AO3 d   1      12.937  -5.865  -9.724  0.00  0.00    -0.313 OA
ATOM     22  H28 AO3 d   1      14.144  -7.494  -9.448  0.00  0.00     0.088 H 
ATOM     23  H32 AO3 d   1      14.172  -5.684 -11.810  0.00  0.00     0.051 H 
ATOM     24  C27 AO3 d   1      13.019  -4.857  -8.718  0.00  0.00     0.239 C 
ATOM     25  H31 AO3 d   1      16.761  -6.789 -10.642  0.00  0.00     0.088 H 
BRANCH  14  26
ATOM     26  O23 AO3 d   1      17.269  -4.585  -9.429  0.00  0.00    -0.391 OA
ATOM     27  H41 AO3 d   1      17.830  -4.248 -10.117  0.00  0.00     0.210 HD
ENDBRANCH  14  26
BRANCH  20  28
ATOM     28  C26 AO3 d   1      14.524  -7.771 -11.952  0.00  0.00     0.025 C 
ATOM     29  H33 AO3 d   1      14.901  -7.670 -12.981  0.00  0.00     0.074 H 
ATOM     30  H34 AO3 d   1      13.450  -8.005 -11.976  0.00  0.00     0.074 H 
BRANCH  28  31
ATOM     31  O26 AO3 d   1      15.192  -8.818 -11.336  0.00  0.00    -0.400 OA
ATOM     32  H42 AO3 d   1      15.040  -9.619 -11.823  0.00  0.00     0.209 HD
ENDBRANCH  28  31
ENDBRANCH  20  28
BRANCH  24  33
ATOM     33  N27 AO3 d   1      11.970  -4.234  -8.279  0.00  0.00    -0.355 N 
BRANCH  33  34
ATOM     34  C28 AO3 d   1      12.049  -3.333  -7.180  0.00  0.00    -0.016 C 
ATOM     35  H35 AO3 d   1      11.052  -2.918  -6.974  0.00  0.00     0.056 H 
ATOM     36  H36 AO3 d   1      12.743  -2.516  -7.425  0.00  0.00     0.056 H 
ATOM     37  H37 AO3 d   1      12.413  -3.869  -6.292  0.00  0.00     0.056 H 
ENDBRANCH  33  34
BRANCH  33  38
ATOM     38  C29 AO3 d   1      10.646  -4.403  -8.814  0.00  0.00    -0.016 C 
ATOM     39  H38 AO3 d   1      10.678  -5.112  -9.655  0.00  0.00     0.056 H 
ATOM     40  H39 AO3 d   1      10.266  -3.433  -9.167  0.00  0.00     0.056 H 
ATOM     41  H40 AO3 d   1       9.981  -4.794  -8.030  0.00  0.00     0.056 H 
ENDBRANCH  33  38
ENDBRANCH  24  33
ENDBRANCH  12  13
ENDBRANCH   1  12
BRANCH   2  42
ATOM     42  N12 AO3 d   1      17.786  -7.064 -14.385  0.00  0.00    -0.349 N 
ATOM     43  C17 AO3 d   1      16.750  -6.951 -15.220  0.00  0.00     0.214 C 
ATOM     44  O17 AO3 d   1      16.292  -5.955 -15.623  0.00  0.00    -0.274 OA
ATOM     45  H25 AO3 d   1      18.127  -7.967 -14.125  0.00  0.00     0.163 HD
BRANCH  43  46
ATOM     46  C18 AO3 d   1      16.154  -8.252 -15.652  0.00  0.00    -0.003 C 
ATOM     47  H22 AO3 d   1      15.312  -8.061 -16.334  0.00  0.00     0.040 H 
ATOM     48  H23 AO3 d   1      15.794  -8.801 -14.770  0.00  0.00     0.040 H 
ATOM     49  H24 AO3 d   1      16.917  -8.851 -16.170  0.00  0.00     0.040 H 
ENDBRANCH  43  46
ENDBRANCH   2  42
BRANCH   3  50
ATOM     50  O13 AO3 d   1      20.362  -7.095 -13.450  0.00  0.00    -0.391 OA
ATOM     51  H26 AO3 d   1      21.304  -7.157 -13.558  0.00  0.00     0.210 HD
ENDBRANCH   3  50
BRANCH   5  52
ATOM     52  C16 AO3 d   1      20.547  -3.406 -11.097  0.00  0.00     0.043 C 
ATOM     53  H20 AO3 d   1      20.179  -2.513 -11.623  0.00  0.00     0.078 H 
ATOM     54  H21 AO3 d   1      21.647  -3.399 -11.089  0.00  0.00     0.078 H 
BRANCH  52  55
ATOM     55  O16 AO3 d   1      20.094  -3.364  -9.783  0.00  0.00    -0.398 OA
ATOM     56  H27 AO3 d   1      20.417  -2.576  -9.363  0.00  0.00     0.209 HD
ENDBRANCH  52  55
ENDBRANCH   5  52
BRANCH   4  57
ATOM     57  O14 AO3 d   1      21.991  -5.058 -13.226  0.00  0.00    -0.348 OA
BRANCH  57  58
ATOM     58  C1  AO3 d   1      22.834  -4.098 -13.794  0.00  0.00     0.154 C 
ATOM     59  C2  AO3 d   1      24.257  -4.455 -13.431  0.00  0.00     0.087 C 
ATOM     60  C3  AO3 d   1      25.216  -3.536 -14.220  0.00  0.00     0.086 C 
ATOM     61  H2  AO3 d   1      24.442  -5.491 -13.752  0.00  0.00     0.084 H 
ATOM     62  C4  AO3 d   1      24.879  -3.471 -15.689  0.00  0.00     0.089 C 
ATOM     63  H3  AO3 d   1      26.247  -3.903 -14.107  0.00  0.00     0.090 H 
ATOM     64  C5  AO3 d   1      23.386  -3.233 -15.941  0.00  0.00     0.089 C 
ATOM     65  H4  AO3 d   1      25.131  -4.439 -16.147  0.00  0.00     0.091 H 
ATOM     66  O5  AO3 d   1      22.611  -4.111 -15.177  0.00  0.00    -0.349 OA
ATOM     67  H5  AO3 d   1      23.145  -2.186 -15.703  0.00  0.00     0.090 H 
ATOM     68  H1  AO3 d   1      22.598  -3.100 -13.396  0.00  0.00     0.132 H 
BRANCH  59  69
ATOM     69  N2  AO3 d   1      24.474  -4.404 -11.999  0.00  0.00    -0.349 N 
ATOM     70  C7  AO3 d   1      24.539  -5.486 -11.257  0.00  0.00     0.214 C 
ATOM     71  O7  AO3 d   1      24.416  -6.561 -11.679  0.00  0.00    -0.274 OA
ATOM     72  H11 AO3 d   1      24.578  -3.512 -11.559  0.00  0.00     0.163 HD
BRANCH  70  73
ATOM     73  C8  AO3 d   1      24.782  -5.335  -9.772  0.00  0.00    -0.003 C 
ATOM     74  H8  AO3 d   1      24.808  -6.329  -9.302  0.00  0.00     0.040 H 
ATOM     75  H9  AO3 d   1      23.971  -4.740  -9.326  0.00  0.00     0.040 H 
ATOM     76  H10 AO3 d   1      25.743  -4.826  -9.608  0.00  0.00     0.040 H 
ENDBRANCH  70  73
ENDBRANCH  59  69
BRANCH  60  77
ATOM     77  O3  AO3 d   1      25.100  -2.255 -13.670  0.00  0.00    -0.391 OA
ATOM     78  H12 AO3 d   1      25.701  -1.666 -14.112  0.00  0.00     0.210 HD
ENDBRANCH  60  77
BRANCH  62  79
ATOM     79  O4  AO3 d   1      25.734  -2.473 -16.258  0.00  0.00    -0.390 OA
ATOM     80  H13 AO3 d   1      25.519  -1.625 -15.888  0.00  0.00     0.210 HD
ENDBRANCH  62  79
BRANCH  64  81
ATOM     81  C6  AO3 d   1      22.954  -3.579 -17.420  0.00  0.00     0.043 C 
ATOM     82  H6  AO3 d   1      23.397  -2.822 -18.084  0.00  0.00     0.078 H 
ATOM     83  H7  AO3 d   1      21.857  -3.515 -17.471  0.00  0.00     0.078 H 
BRANCH  81  84
ATOM     84  O6  AO3 d   1      23.356  -4.928 -17.936  0.00  0.00    -0.398 OA
ATOM     85  H14 AO3 d   1      22.972  -5.603 -17.388  0.00  0.00     0.209 HD
ENDBRANCH  81  84
ENDBRANCH  64  81
ENDBRANCH  57  58
ENDBRANCH   4  57
TORSDOF 21
