REMARK  10 active torsions:
REMARK  status: ('A' for Active; 'I' for Inactive)
REMARK    1  A    between atoms: C4_2  and  O4_5 
REMARK    2  A    between atoms: C5_6  and  C6_7 
REMARK    3  A    between atoms: C6_7  and  O6_8 
REMARK    4  A    between atoms: C3_9  and  O3_10 
REMARK    5  A    between atoms: O3_10  and  C1_12 
REMARK    6  A    between atoms: C2_13  and  O2_18 
REMARK    7  A    between atoms: C3_14  and  O3_19 
REMARK    8  A    between atoms: C4_15  and  O4_20 
REMARK    9  A    between atoms: C5_16  and  C6_17 
REMARK   10  A    between atoms: C6_17  and  O6_22 
ROOT
ATOM      1  C7  GDQ d   1       4.955  24.740   3.307  0.00  0.00    -0.029 C 
ATOM      2  C4  GDQ d   1       2.812  24.027   4.365  0.00  0.00     0.068 C 
ATOM      3  C2  GDQ d   1       4.926  22.774   4.983  0.00  0.00     0.156 A 
ATOM      4  C1  GDQ d   1       5.709  23.724   4.135  0.00  0.00     0.133 A 
ATOM      5  C5  GDQ d   1       3.510  24.374   3.041  0.00  0.00    -0.004 C 
ATOM      6  C3  GDQ d   1       3.408  22.787   4.993  0.00  0.00     0.096 C 
ATOM      7  N2  GDQ d   1       5.609  22.307   3.745  0.00  0.00    -0.060 N 
ATOM      8  H1  GDQ d   1       5.468  24.846   2.340  0.00  0.00     0.036 H 
ATOM      9  H2  GDQ d   1       4.975  25.702   3.840  0.00  0.00     0.036 H 
ATOM     10  H3  GDQ d   1       2.935  24.875   5.055  0.00  0.00     0.087 H 
ATOM     11  H4  GDQ d   1       5.302  22.492   5.978  0.00  0.00     0.091 H 
ATOM     12  H5  GDQ d   1       6.659  24.146   4.494  0.00  0.00     0.087 H 
ATOM     13  H7  GDQ d   1       3.481  23.480   2.401  0.00  0.00     0.047 H 
ATOM     14  H11 GDQ d   1       3.048  21.904   4.444  0.00  0.00     0.090 H 
ATOM     15  H12 GDQ d   1       5.064  22.045   2.939  0.00  0.00     0.278 HD
ATOM     16  H13 GDQ d   1       6.418  21.709   3.812  0.00  0.00     0.278 HD
ENDROOT
BRANCH   6  17
ATOM     17  O3  GDQ d   1       2.948  22.730   6.358  0.00  0.00    -0.349 OA
BRANCH  17  18
ATOM     18  C1  GLC d   1       3.094  21.410   6.953  0.00  0.00     0.159 C 
ATOM     19  C2  GLC d   1       2.166  21.323   8.181  0.00  0.00     0.110 C 
ATOM     20  C3  GLC d   1       2.634  22.221   9.311  0.00  0.00     0.092 C 
ATOM     21  H15 GDQ d   1       2.159  20.284   8.541  0.00  0.00     0.094 H 
ATOM     22  C4  GLC d   1       4.087  21.888   9.641  0.00  0.00     0.090 C 
ATOM     23  H16 GDQ d   1       2.560  23.272   8.994  0.00  0.00     0.091 H 
ATOM     24  C5  GLC d   1       4.916  22.079   8.396  0.00  0.00     0.089 C 
ATOM     25  H17 GDQ d   1       4.160  20.846   9.987  0.00  0.00     0.091 H 
ATOM     26  O5  GLC d   1       4.421  21.147   7.410  0.00  0.00    -0.348 OA
ATOM     27  H18 GDQ d   1       4.846  23.119   8.046  0.00  0.00     0.090 H 
ATOM     28  H14 GDQ d   1       2.810  20.650   6.210  0.00  0.00     0.133 H 
BRANCH  19  29
ATOM     29  O2  GLC d   1       0.852  21.688   7.799  0.00  0.00    -0.388 OA
ATOM     30  H21 GDQ d   1       0.269  21.591   8.543  0.00  0.00     0.210 HD
ENDBRANCH  19  29
BRANCH  20  31
ATOM     31  O3  GLC d   1       1.824  22.021  10.486  0.00  0.00    -0.390 OA
ATOM     32  H22 GDQ d   1       1.889  21.115  10.764  0.00  0.00     0.210 HD
ENDBRANCH  20  31
BRANCH  22  33
ATOM     33  O4  GLC d   1       4.583  22.772  10.660  0.00  0.00    -0.390 OA
ATOM     34  H23 GDQ d   1       5.492  22.566  10.841  0.00  0.00     0.210 HD
ENDBRANCH  22  33
BRANCH  24  35
ATOM     35  C6  GLC d   1       6.373  21.678   8.617  0.00  0.00     0.043 C 
ATOM     36  H19 GDQ d   1       6.410  20.619   8.912  0.00  0.00     0.078 H 
ATOM     37  H20 GDQ d   1       6.795  22.298   9.422  0.00  0.00     0.078 H 
BRANCH  35  38
ATOM     38  O6  GLC d   1       7.159  21.858   7.433  0.00  0.00    -0.398 OA
ATOM     39  H24 GDQ d   1       7.136  22.772   7.175  0.00  0.00     0.209 HD
ENDBRANCH  35  38
ENDBRANCH  24  35
ENDBRANCH  17  18
ENDBRANCH   6  17
BRANCH   2  40
ATOM     40  O4  GDQ d   1       1.403  23.778   4.166  0.00  0.00    -0.392 OA
ATOM     41  H6  GDQ d   1       0.994  24.554   3.802  0.00  0.00     0.210 HD
ENDBRANCH   2  40
BRANCH   5  42
ATOM     42  C6  GDQ d   1       2.848  25.532   2.273  0.00  0.00     0.022 C 
ATOM     43  H8  GDQ d   1       1.773  25.317   2.178  0.00  0.00     0.074 H 
ATOM     44  H9  GDQ d   1       3.301  25.589   1.272  0.00  0.00     0.074 H 
BRANCH  42  45
ATOM     45  O6  GDQ d   1       3.000  26.801   2.911  0.00  0.00    -0.400 OA
ATOM     46  H10 GDQ d   1       3.924  27.005   2.992  0.00  0.00     0.209 HD
ENDBRANCH  42  45
ENDBRANCH   5  42
TORSDOF 10
