REMARK  5 active torsions:
REMARK  status: ('A' for Active; 'I' for Inactive)
REMARK    1  A    between atoms: N_1  and  CA_2 
REMARK    2  A    between atoms: CA_2  and  C_3 
REMARK    3  A    between atoms: CA_2  and  CB_5 
REMARK    4  A    between atoms: CB_5  and  CG_6 
REMARK    5  A    between atoms: CZ_11  and  OH_12 
ROOT
ATOM      1  CG  TYR d   1      14.626  -9.243  59.047  0.00  0.00    -0.056 A 
ATOM      2  CD1 TYR d   1      15.799  -9.539  59.802  0.00  0.00    -0.074 A 
ATOM      3  CD2 TYR d   1      13.563 -10.077  59.223  0.00  0.00    -0.074 A 
ATOM      4  CE1 TYR d   1      15.814 -10.606  60.662  0.00  0.00    -0.051 A 
ATOM      5  CE2 TYR d   1      13.564 -11.155  60.081  0.00  0.00    -0.051 A 
ATOM      6  CZ  TYR d   1      14.731 -11.425  60.834  0.00  0.00     0.065 A 
ATOM      7  H7  TYR d   1      16.681  -8.918  59.695  0.00  0.00     0.084 H 
ATOM      8  H8  TYR d   1      12.662  -9.880  58.653  0.00  0.00     0.084 H 
ATOM      9  H9  TYR d   1      16.717 -10.809  61.227  0.00  0.00     0.087 H 
ATOM     10  H10 TYR d   1      12.687 -11.785  60.177  0.00  0.00     0.087 H 
ENDROOT
BRANCH   1  11
ATOM     11  CB  TYR d   1      14.594  -8.026  58.183  0.00  0.00    -0.005 C 
ATOM     12  H5  TYR d   1      15.467  -8.046  57.514  0.00  0.00     0.044 H 
ATOM     13  H6  TYR d   1      13.672  -8.045  57.583  0.00  0.00     0.044 H 
BRANCH  11  14
ATOM     14  CA  TYR d   1      14.626  -6.716  58.996  0.00  0.00     0.186 C 
ATOM     15  H4  TYR d   1      15.476  -6.819  59.686  0.00  0.00     0.101 H 
BRANCH  14  16
ATOM     16  N   TYR d   1      13.425  -6.531  59.830  0.00  0.00    -0.065 N 
ATOM     17  H1  TYR d   1      13.253  -7.369  60.363  0.00  0.00     0.275 HD
ATOM     18  H2  TYR d   1      12.631  -6.340  59.239  0.00  0.00     0.275 HD
ATOM     19  H3  TYR d   1      13.569  -5.757  60.459  0.00  0.00     0.275 HD
ENDBRANCH  14  16
BRANCH  14  20
ATOM     20  C   TYR d   1      14.886  -5.452  58.192  0.00  0.00     0.204 C 
ATOM     21  O   TYR d   1      15.753  -5.483  57.327  0.00  0.00    -0.646 OA
ATOM     22  OXT TYR d   1      14.314  -4.420  58.476  0.00  0.00    -0.646 OA
ENDBRANCH  14  20
ENDBRANCH  11  14
ENDBRANCH   1  11
BRANCH   6  23
ATOM     23  OH  TYR d   1      14.750 -12.495  61.707  0.00  0.00    -0.361 OA
ATOM     24  H11 TYR d   1      14.593 -13.298  61.225  0.00  0.00     0.217 HD
ENDBRANCH   6  23
TORSDOF 5
