REMARK  5 active torsions:
REMARK  status: ('A' for Active; 'I' for Inactive)
REMARK    1  A    between atoms: C4_1  and  O4_13 
REMARK    2  A    between atoms: C3_4  and  O3_14 
REMARK    3  A    between atoms: C1_6  and  C7_8 
REMARK    4  A    between atoms: O3_14  and  C10_7 
REMARK    5  A    between atoms: C8_9  and  C9_10 
ROOT
ATOM      1  C4  FER d   1     -23.129  17.735 -11.137  0.00  0.00     0.099 A 
ATOM      2  C5  FER d   1     -23.241  16.584 -10.371  0.00  0.00    -0.047 A 
ATOM      3  C6  FER d   1     -23.124  15.367 -11.008  0.00  0.00    -0.070 A 
ATOM      4  C3  FER d   1     -22.890  17.679 -12.500  0.00  0.00     0.102 A 
ATOM      5  C2  FER d   1     -22.768  16.453 -13.132  0.00  0.00    -0.038 A 
ATOM      6  C1  FER d   1     -22.902  15.295 -12.367  0.00  0.00    -0.033 A 
ATOM      7  H1  FER d   1     -23.415  16.640  -9.303  0.00  0.00     0.087 H 
ATOM      8  H2  FER d   1     -23.208  14.453 -10.432  0.00  0.00     0.084 H 
ATOM      9  H3  FER d   1     -22.573  16.395 -14.197  0.00  0.00     0.089 H 
ENDROOT
BRANCH   6  10
ATOM     10  C7  FER d   1     -22.751  13.920 -12.950  0.00  0.00    -0.067 C 
ATOM     11  C8  FER d   1     -22.470  13.698 -14.233  0.00  0.00    -0.009 C 
ATOM     12  H8  FER d   1     -22.375  14.507 -14.956  0.00  0.00     0.094 H 
ATOM     13  H7  FER d   1     -22.877  13.062 -12.292  0.00  0.00     0.085 H 
BRANCH  11  14
ATOM     14  C9  FER d   1     -22.293  12.257 -14.613  0.00  0.00     0.198 C 
ATOM     15  O1  FER d   1     -22.250  11.948 -15.823  0.00  0.00    -0.645 OA
ATOM     16  O2  FER d   1     -22.116  11.396 -13.696  0.00  0.00    -0.645 OA
ENDBRANCH  11  14
ENDBRANCH   6  10
BRANCH   4  17
ATOM     17  O3  FER d   1     -22.784  18.885 -13.223  0.00  0.00    -0.353 OA
BRANCH  17  18
ATOM     18  C10 FER d   1     -22.732  18.749 -14.630  0.00  0.00     0.010 C 
ATOM     19  H4  FER d   1     -22.650  19.744 -15.092  0.00  0.00     0.066 H 
ATOM     20  H5  FER d   1     -23.648  18.254 -14.985  0.00  0.00     0.066 H 
ATOM     21  H6  FER d   1     -21.857  18.143 -14.908  0.00  0.00     0.066 H 
ENDBRANCH  17  18
ENDBRANCH   4  17
BRANCH   1  22
ATOM     22  O4  FER d   1     -23.242  18.975 -10.498  0.00  0.00    -0.358 OA
ATOM     23  H9  FER d   1     -23.963  19.462 -10.879  0.00  0.00     0.217 HD
ENDBRANCH   1  22
TORSDOF 5
