REMARK  5 active torsions:
REMARK  status: ('A' for Active; 'I' for Inactive)
REMARK    1  A    between atoms: C1_1  and  C_10 
REMARK    2  A    between atoms: C4_4  and  C7_7 
REMARK       I    between atoms: C7_7  and  N_11 
REMARK    3  A    between atoms: N_11  and  C8_12 
REMARK    4  A    between atoms: C12_19  and  C13_21 
REMARK    5  A    between atoms: C13_21  and  N2_22 
ROOT
ATOM      1  C8  GKT d   1      -1.066  15.274  16.438  0.00  0.00     0.037 A 
ATOM      2  C20 GKT d   1      -2.297  14.754  16.029  0.00  0.00    -0.029 A 
ATOM      3  C19 GKT d   1      -3.335  14.694  16.949  0.00  0.00     0.064 A 
ATOM      4  C11 GKT d   1      -3.144  15.172  18.240  0.00  0.00     0.085 A 
ATOM      5  C10 GKT d   1      -1.935  15.707  18.652  0.00  0.00    -0.051 A 
ATOM      6  C9  GKT d   1      -0.896  15.758  17.737  0.00  0.00    -0.055 A 
ATOM      7  N3  GKT d   1      -4.627  14.206  16.822  0.00  0.00    -0.341 N 
ATOM      8  C12 GKT d   1      -5.187  14.407  18.001  0.00  0.00     0.131 A 
ATOM      9  N1  GKT d   1      -4.344  14.974  18.890  0.00  0.00    -0.232 NA
ATOM     10  H8  GKT d   1      -2.439  14.404  15.013  0.00  0.00     0.090 H 
ATOM     11  H9  GKT d   1      -1.805  16.076  19.663  0.00  0.00     0.087 H 
ATOM     12  H10 GKT d   1       0.059  16.178  18.032  0.00  0.00     0.087 H 
ATOM     13  H11 GKT d   1      -5.057  13.779  15.989  0.00  0.00     0.167 HD
ENDROOT
BRANCH   8  14
ATOM     14  C13 GKT d   1      -6.626  14.152  18.317  0.00  0.00     0.137 C 
ATOM     15  H12 GKT d   1      -7.187  14.084  17.373  0.00  0.00     0.088 H 
ATOM     16  H13 GKT d   1      -7.010  14.993  18.912  0.00  0.00     0.088 H 
BRANCH  14  17
ATOM     17  N2  GKT d   1      -6.829  12.910  19.074  0.00  0.00    -0.064 N 
ATOM     18  C18 GKT d   1      -8.276  12.620  19.205  0.00  0.00     0.084 C 
ATOM     19  C17 GKT d   1      -8.540  11.266  19.833  0.00  0.00    -0.042 C 
ATOM     20  H15 GKT d   1      -8.732  12.640  18.204  0.00  0.00     0.076 H 
ATOM     21  H16 GKT d   1      -8.736  13.396  19.834  0.00  0.00     0.076 H 
ATOM     22  C16 GKT d   1      -7.661  11.046  21.050  0.00  0.00    -0.062 C 
ATOM     23  H17 GKT d   1      -8.331  10.480  19.093  0.00  0.00     0.035 H 
ATOM     24  H18 GKT d   1      -9.595  11.211  20.138  0.00  0.00     0.035 H 
ATOM     25  C15 GKT d   1      -7.057  12.355  21.513  0.00  0.00    -0.042 C 
ATOM     26  H19 GKT d   1      -6.853  10.346  20.791  0.00  0.00     0.033 H 
ATOM     27  H20 GKT d   1      -8.268  10.620  21.863  0.00  0.00     0.033 H 
ATOM     28  C14 GKT d   1      -6.223  13.003  20.413  0.00  0.00     0.084 C 
ATOM     29  H21 GKT d   1      -6.413  12.164  22.384  0.00  0.00     0.035 H 
ATOM     30  H22 GKT d   1      -7.867  13.042  21.799  0.00  0.00     0.035 H 
ATOM     31  H23 GKT d   1      -6.090  14.066  20.660  0.00  0.00     0.076 H 
ATOM     32  H24 GKT d   1      -5.242  12.507  20.385  0.00  0.00     0.076 H 
ATOM     33  H14 GKT d   1      -6.390  12.154  18.573  0.00  0.00     0.280 HD
ENDBRANCH  14  17
ENDBRANCH   8  14
BRANCH   1  34
ATOM     34  N   GKT d   1       0.057  15.235  15.602  0.00  0.00    -0.323 N 
ATOM     35  C7  GKT d   1       0.087  14.976  14.283  0.00  0.00     0.256 C 
ATOM     36  O   GKT d   1      -0.922  14.786  13.614  0.00  0.00    -0.267 OA
ATOM     37  H7  GKT d   1       0.938  15.421  16.036  0.00  0.00     0.169 HD
BRANCH  35  38
ATOM     38  C4  GKT d   1       1.444  14.932  13.660  0.00  0.00     0.033 A 
ATOM     39  C3  GKT d   1       1.692  14.010  12.655  0.00  0.00    -0.067 A 
ATOM     40  C2  GKT d   1       2.904  14.008  11.987  0.00  0.00    -0.075 A 
ATOM     41  H2  GKT d   1       0.931  13.285  12.390  0.00  0.00     0.085 H 
ATOM     42  C1  GKT d   1       3.914  14.926  12.282  0.00  0.00    -0.045 A 
ATOM     43  H1  GKT d   1       3.075  13.271  11.211  0.00  0.00     0.084 H 
ATOM     44  C6  GKT d   1       3.643  15.868  13.280  0.00  0.00     0.013 A 
ATOM     45  C5  GKT d   1       2.441  15.853  13.984  0.00  0.00    -0.051 A 
ATOM     46  I   GKT d   1       4.957  17.529  13.566  0.00  0.00    -0.044 I 
ATOM     47  H3  GKT d   1       2.279  16.561  14.789  0.00  0.00     0.087 H 
BRANCH  42  48
ATOM     48  C   GKT d   1       5.231  14.842  11.559  0.00  0.00    -0.050 C 
ATOM     49  H4  GKT d   1       5.195  14.024  10.825  0.00  0.00     0.033 H 
ATOM     50  H5  GKT d   1       6.036  14.649  12.284  0.00  0.00     0.033 H 
ATOM     51  H6  GKT d   1       5.425  15.792  11.040  0.00  0.00     0.033 H 
ENDBRANCH  42  48
ENDBRANCH  35  38
ENDBRANCH   1  34
TORSDOF 5
