REMARK  3 active torsions:
REMARK  status: ('A' for Active; 'I' for Inactive)
REMARK    1  A    between atoms: C2'_10  and  O2'_11 
REMARK    2  A    between atoms: C1'_12  and  N9_13 
REMARK    3  A    between atoms: C2_20  and  N2_21 
ROOT
ATOM      1  PA  PCG d   1      16.790  39.408   9.794  0.00  0.00     0.408 P 
ATOM      2  O1A PCG d   1      18.018  39.702  10.626  0.00  0.00    -0.624 OA
ATOM      3  O2A PCG d   1      15.493  39.239  10.537  0.00  0.00    -0.624 OA
ATOM      4  O5' PCG d   1      16.657  40.603   8.695  0.00  0.00    -0.287 OA
ATOM      5  C5' PCG d   1      17.567  40.702   7.580  0.00  0.00     0.058 C 
ATOM      6  C4' PCG d   1      17.598  39.349   6.882  0.00  0.00     0.090 C 
ATOM      7  O4' PCG d   1      18.464  39.188   5.751  0.00  0.00    -0.353 OA
ATOM      8  C3' PCG d   1      18.073  38.301   7.860  0.00  0.00     0.106 C 
ATOM      9  O3' PCG d   1      17.060  38.132   8.846  0.00  0.00    -0.279 OA
ATOM     10  C2' PCG d   1      18.372  37.140   6.949  0.00  0.00     0.106 C 
ATOM     11  C1' PCG d   1      18.749  37.781   5.620  0.00  0.00     0.139 C 
ATOM     12  H1  PCG d   1      18.574  40.960   7.941  0.00  0.00     0.079 H 
ATOM     13  H2  PCG d   1      17.218  41.476   6.880  0.00  0.00     0.079 H 
ATOM     14  H3  PCG d   1      16.570  39.126   6.560  0.00  0.00     0.090 H 
ATOM     15  H4  PCG d   1      18.998  38.613   8.367  0.00  0.00     0.092 H 
ATOM     16  H5  PCG d   1      19.186  36.513   7.342  0.00  0.00     0.093 H 
ATOM     17  H7  PCG d   1      18.134  37.333   4.825  0.00  0.00     0.122 H 
ENDROOT
BRANCH  11  18
ATOM     18  N9  PCG d   1      20.178  37.675   5.232  0.00  0.00    -0.295 N 
ATOM     19  C8  PCG d   1      20.633  37.188   4.061  0.00  0.00     0.071 A 
ATOM     20  N7  PCG d   1      21.984  37.279   3.995  0.00  0.00    -0.234 NA
ATOM     21  H8  PCG d   1      20.002  36.777   3.275  0.00  0.00     0.144 H 
ATOM     22  C5  PCG d   1      22.390  37.845   5.144  0.00  0.00     0.171 A 
ATOM     23  C6  PCG d   1      23.688  38.250   5.728  0.00  0.00     0.292 A 
ATOM     24  C4  PCG d   1      21.205  38.110   5.949  0.00  0.00     0.161 A 
ATOM     25  O6  PCG d   1      24.732  38.052   5.089  0.00  0.00    -0.265 OA
ATOM     26  N1  PCG d   1      23.706  38.824   6.932  0.00  0.00    -0.154 N 
ATOM     27  C2  PCG d   1      22.568  39.045   7.627  0.00  0.00     0.680 A 
ATOM     28  H9  PCG d   1      24.582  39.097   7.330  0.00  0.00     0.187 HD
ATOM     29  N3  PCG d   1      21.345  38.708   7.156  0.00  0.00    -0.174 N 
ATOM     30  H12 PCG d   1      20.509  38.909   7.723  0.00  0.00     0.186 HD
BRANCH  27  31
ATOM     31  N2  PCG d   1      22.643  39.612   8.845  0.00  0.00    -0.234 N 
ATOM     32  H10 PCG d   1      21.784  39.786   9.386  0.00  0.00     0.174 HD
ATOM     33  H11 PCG d   1      23.560  39.872   9.237  0.00  0.00     0.174 HD
ENDBRANCH  27  31
ENDBRANCH  11  18
BRANCH  10  34
ATOM     34  O2' PCG d   1      17.184  36.378   6.779  0.00  0.00    -0.388 OA
ATOM     35  H6  PCG d   1      16.890  36.059   7.624  0.00  0.00     0.210 HD
ENDBRANCH  10  34
TORSDOF 3
