REMARK  5 active torsions:
REMARK  status: ('A' for Active; 'I' for Inactive)
REMARK    1  A    between atoms: C01_1  and  O02_2 
REMARK    2  A    between atoms: O02_2  and  C03_3 
REMARK    3  A    between atoms: C06_6  and  C07_7 
REMARK    4  A    between atoms: C07_7  and  N08_8 
REMARK    5  A    between atoms: C14_14  and  C15_15 
REMARK       I    between atoms: C15_15  and  N17_17 
ROOT
ATOM      1  N08 GKW d   1      44.418  36.943  85.341  0.00  0.00    -0.352 N 
ATOM      2  C09 GKW d   1      43.405  37.408  84.573  0.00  0.00    -0.019 A 
ATOM      3  C10 GKW d   1      42.967  36.377  83.729  0.00  0.00    -0.056 A 
ATOM      4  C11 GKW d   1      43.791  35.219  84.018  0.00  0.00    -0.008 A 
ATOM      5  C12 GKW d   1      43.837  33.899  83.507  0.00  0.00    -0.070 A 
ATOM      6  C13 GKW d   1      44.760  32.980  83.989  0.00  0.00    -0.067 A 
ATOM      7  C14 GKW d   1      45.672  33.354  85.000  0.00  0.00     0.038 A 
ATOM      8  C19 GKW d   1      45.619  34.659  85.498  0.00  0.00    -0.041 A 
ATOM      9  C20 GKW d   1      44.670  35.596  84.998  0.00  0.00     0.045 A 
ATOM     10  H8  GKW d   1      42.997  38.417  84.605  0.00  0.00     0.111 H 
ATOM     11  H9  GKW d   1      42.163  36.435  82.997  0.00  0.00     0.086 H 
ATOM     12  H10 GKW d   1      43.143  33.602  82.729  0.00  0.00     0.084 H 
ATOM     13  H11 GKW d   1      44.780  31.973  83.588  0.00  0.00     0.085 H 
ATOM     14  H12 GKW d   1      46.310  34.962  86.276  0.00  0.00     0.088 H 
ENDROOT
BRANCH   1  15
ATOM     15  C07 GKW d   1      45.175  37.713  86.342  0.00  0.00     0.023 C 
ATOM     16  H6  GKW d   1      46.154  37.227  86.464  0.00  0.00     0.072 H 
ATOM     17  H7  GKW d   1      45.317  38.728  85.942  0.00  0.00     0.072 H 
BRANCH  15  18
ATOM     18  C06 GKW d   1      44.557  37.845  87.715  0.00  0.00    -0.040 A 
ATOM     19  C05 GKW d   1      45.369  38.342  88.773  0.00  0.00    -0.073 A 
ATOM     20  C04 GKW d   1      44.846  38.485  90.076  0.00  0.00    -0.050 A 
ATOM     21  H5  GKW d   1      46.400  38.614  88.576  0.00  0.00     0.084 H 
ATOM     22  C03 GKW d   1      43.515  38.129  90.330  0.00  0.00     0.068 A 
ATOM     23  H4  GKW d   1      45.470  38.868  90.875  0.00  0.00     0.087 H 
ATOM     24  C22 GKW d   1      42.705  37.631  89.276  0.00  0.00    -0.050 A 
ATOM     25  C21 GKW d   1      43.233  37.489  87.965  0.00  0.00    -0.073 A 
ATOM     26  H14 GKW d   1      41.675  37.357  89.473  0.00  0.00     0.087 H 
ATOM     27  H13 GKW d   1      42.610  37.106  87.164  0.00  0.00     0.084 H 
BRANCH  22  28
ATOM     28  O02 GKW d   1      42.987  38.265  91.603  0.00  0.00    -0.356 OA
BRANCH  28  29
ATOM     29  C01 GKW d   1      41.847  37.578  91.967  0.00  0.00     0.010 C 
ATOM     30  H1  GKW d   1      41.591  37.819  93.009  0.00  0.00     0.066 H 
ATOM     31  H2  GKW d   1      42.025  36.496  91.874  0.00  0.00     0.066 H 
ATOM     32  H3  GKW d   1      41.016  37.871  91.308  0.00  0.00     0.066 H 
ENDBRANCH  28  29
ENDBRANCH  22  28
ENDBRANCH  15  18
ENDBRANCH   1  15
BRANCH   7  33
ATOM     33  C15 GKW d   1      46.718  32.322  85.554  0.00  0.00     0.302 C 
ATOM     34  O16 GKW d   1      47.294  32.534  86.636  0.00  0.00    -0.263 OA
ATOM     35  N17 GKW d   1      47.020  31.106  84.828  0.00  0.00    -0.054 NA
ATOM     36  O18 GKW d   1      47.877  30.245  85.273  0.00  0.00    -0.058 OA
ENDBRANCH   7  33
TORSDOF 5
