REMARK  23 active torsions:
REMARK  status: ('A' for Active; 'I' for Inactive)
REMARK    1  A    between atoms: C2_15  and  N1_1 
REMARK       I    between atoms: N1_1  and  C31_31 
REMARK    2  A    between atoms: C4_2  and  C2_15 
REMARK       I    between atoms: N8_17  and  C4_2 
REMARK    3  A    between atoms: C3_16  and  C5_3 
REMARK    4  A    between atoms: C3_16  and  C6_4 
REMARK    5  A    between atoms: C3_16  and  C7_5 
REMARK    6  A    between atoms: C15_8  and  C10_6 
REMARK       I    between atoms: N17_23  and  C15_8 
REMARK    7  A    between atoms: O37_37  and  C20_9 
REMARK    8  A    between atoms: C22_11  and  C25_27 
REMARK    9  A    between atoms: C26_13  and  C30_30 
REMARK   10  A    between atoms: C2_15  and  C3_16 
REMARK   11  A    between atoms: C12_20  and  O14_21 
REMARK   12  A    between atoms: C18_24  and  N17_23 
REMARK   13  A    between atoms: C19_25  and  C18_24 
REMARK   14  A    between atoms: C31_31  and  C32_32 
REMARK   15  A    between atoms: C38_38  and  O37_37 
REMARK   16  A    between atoms: C39_39  and  C38_38 
REMARK   17  A    between atoms: C61_61  and  C39_39 
REMARK   18  A    between atoms: C40_40  and  N41_41 
REMARK   19  A    between atoms: C64_64  and  C40_40 
REMARK   20  A    between atoms: N44_44  and  C47_47 
REMARK   21  A    between atoms: C49_49  and  C54_54 
REMARK   22  A    between atoms: C52_52  and  N53_53 
REMARK   23  A    between atoms: C55_55  and  O60_60 
ROOT
ATOM      1  C20 FWZ d   1     -22.666  -7.653 -22.120  0.00  0.00     0.077 A 
ATOM      2  C21 FWZ d   1     -21.355  -7.467 -21.699  0.00  0.00    -0.039 A 
ATOM      3  C22 FWZ d   1     -21.036  -6.429 -20.827  0.00  0.00    -0.014 A 
ATOM      4  C24 FWZ d   1     -23.354  -5.787 -20.783  0.00  0.00    -0.072 A 
ATOM      5  C19 FWZ d   1     -23.687  -6.804 -21.679  0.00  0.00    -0.007 A 
ATOM      6  C23 FWZ d   1     -22.053  -5.603 -20.362  0.00  0.00    -0.071 A 
ATOM      7  H14 FWZ d   1     -20.576  -8.134 -22.051  0.00  0.00     0.089 H 
ATOM      8  H15 FWZ d   1     -24.132  -5.130 -20.411  0.00  0.00     0.084 H 
ATOM      9  H25 FWZ d   1     -21.822  -4.808 -19.663  0.00  0.00     0.084 H 
ENDROOT
BRANCH   1  10
ATOM     10  O37 FWZ d   1     -23.080  -8.665 -22.958  0.00  0.00    -0.350 OA
BRANCH  10  11
ATOM     11  C38 FWZ d   1     -22.147  -9.633 -23.472  0.00  0.00     0.030 C 
ATOM     12  H33 FWZ d   1     -21.211  -9.127 -23.752  0.00  0.00     0.075 H 
ATOM     13  H34 FWZ d   1     -22.578 -10.122 -24.358  0.00  0.00     0.075 H 
BRANCH  11  14
ATOM     14  C39 FWZ d   1     -21.858 -10.678 -22.408  0.00  0.00    -0.021 C 
ATOM     15  H35 FWZ d   1     -21.556 -10.160 -21.486  0.00  0.00     0.043 H 
ATOM     16  H36 FWZ d   1     -21.030 -11.312 -22.760  0.00  0.00     0.043 H 
BRANCH  14  17
ATOM     17  C61 FWZ d   1     -23.037 -11.568 -22.090  0.00  0.00    -0.056 A 
ATOM     18  C62 FWZ d   1     -23.090 -12.878 -22.549  0.00  0.00    -0.076 A 
ATOM     19  C63 FWZ d   1     -24.124 -13.721 -22.177  0.00  0.00    -0.075 A 
ATOM     20  H56 FWZ d   1     -22.311 -13.246 -23.207  0.00  0.00     0.084 H 
ATOM     21  C64 FWZ d   1     -25.148 -13.274 -21.352  0.00  0.00    -0.033 A 
ATOM     22  H57 FWZ d   1     -24.134 -14.744 -22.535  0.00  0.00     0.084 H 
ATOM     23  C65 FWZ d   1     -25.100 -11.963 -20.901  0.00  0.00    -0.075 A 
ATOM     24  C66 FWZ d   1     -24.064 -11.122 -21.267  0.00  0.00    -0.076 A 
ATOM     25  H58 FWZ d   1     -25.885 -11.592 -20.253  0.00  0.00     0.084 H 
ATOM     26  H59 FWZ d   1     -24.053 -10.100 -20.906  0.00  0.00     0.084 H 
BRANCH  21  27
ATOM     27  C40 FWZ d   1     -26.351 -14.138 -21.061  0.00  0.00     0.107 C 
ATOM     28  H37 FWZ d   1     -26.053 -15.196 -21.105  0.00  0.00     0.083 H 
ATOM     29  H38 FWZ d   1     -26.726 -13.904 -20.054  0.00  0.00     0.083 H 
BRANCH  27  30
ATOM     30  N41 FWZ d   1     -27.421 -13.899 -22.040  0.00  0.00    -0.064 N 
ATOM     31  C42 FWZ d   1     -28.736 -13.715 -21.412  0.00  0.00     0.098 C 
ATOM     32  C43 FWZ d   1     -29.872 -14.032 -22.393  0.00  0.00     0.018 C 
ATOM     33  H40 FWZ d   1     -28.831 -12.671 -21.079  0.00  0.00     0.078 H 
ATOM     34  H41 FWZ d   1     -28.815 -14.385 -20.544  0.00  0.00     0.078 H 
ATOM     35  N44 FWZ d   1     -29.481 -13.744 -23.778  0.00  0.00    -0.374 N 
ATOM     36  H42 FWZ d   1     -30.749 -13.420 -22.134  0.00  0.00     0.066 H 
ATOM     37  H43 FWZ d   1     -30.131 -15.098 -22.309  0.00  0.00     0.066 H 
ATOM     38  C45 FWZ d   1     -28.297 -14.490 -24.219  0.00  0.00     0.018 C 
ATOM     39  C46 FWZ d   1     -27.488 -14.959 -23.036  0.00  0.00     0.098 C 
ATOM     40  H44 FWZ d   1     -27.673 -13.837 -24.847  0.00  0.00     0.066 H 
ATOM     41  H45 FWZ d   1     -28.619 -15.364 -24.805  0.00  0.00     0.066 H 
ATOM     42  H46 FWZ d   1     -27.965 -15.847 -22.595  0.00  0.00     0.078 H 
ATOM     43  H47 FWZ d   1     -26.471 -15.216 -23.367  0.00  0.00     0.078 H 
ATOM     44  H39 FWZ d   1     -27.195 -13.043 -22.521  0.00  0.00     0.280 HD
BRANCH  35  45
ATOM     45  C47 FWZ d   1     -30.530 -13.535 -24.717  0.00  0.00     0.080 A 
ATOM     46  C48 FWZ d   1     -30.917 -14.492 -25.658  0.00  0.00    -0.023 A 
ATOM     47  C49 FWZ d   1     -31.960 -14.190 -26.537  0.00  0.00     0.094 A 
ATOM     48  H48 FWZ d   1     -30.417 -15.453 -25.705  0.00  0.00     0.090 H 
ATOM     49  N50 FWZ d   1     -32.629 -13.033 -26.442  0.00  0.00    -0.147 NA
ATOM     50  N51 FWZ d   1     -32.281 -12.112 -25.518  0.00  0.00    -0.130 NA
ATOM     51  C52 FWZ d   1     -31.251 -12.312 -24.675  0.00  0.00     0.170 A 
BRANCH  47  52
ATOM     52  C54 FWZ d   1     -32.381 -15.102 -27.641  0.00  0.00     0.028 A 
ATOM     53  C55 FWZ d   1     -33.422 -14.763 -28.525  0.00  0.00     0.078 A 
ATOM     54  C56 FWZ d   1     -33.797 -15.636 -29.551  0.00  0.00    -0.050 A 
ATOM     55  C57 FWZ d   1     -33.137 -16.843 -29.711  0.00  0.00    -0.080 A 
ATOM     56  H51 FWZ d   1     -34.605 -15.368 -30.222  0.00  0.00     0.087 H 
ATOM     57  C58 FWZ d   1     -32.121 -17.194 -28.849  0.00  0.00    -0.082 A 
ATOM     58  H52 FWZ d   1     -33.420 -17.512 -30.515  0.00  0.00     0.083 H 
ATOM     59  C59 FWZ d   1     -31.742 -16.335 -27.829  0.00  0.00    -0.068 A 
ATOM     60  H53 FWZ d   1     -31.616 -18.146 -28.969  0.00  0.00     0.083 H 
ATOM     61  H54 FWZ d   1     -30.936 -16.623 -27.164  0.00  0.00     0.085 H 
BRANCH  53  62
ATOM     62  O60 FWZ d   1     -34.136 -13.610 -28.475  0.00  0.00    -0.360 OA
ATOM     63  H55 FWZ d   1     -33.822 -13.075 -27.755  0.00  0.00     0.217 HD
ENDBRANCH  53  62
ENDBRANCH  47  52
BRANCH  51  64
ATOM     64  N53 FWZ d   1     -30.968 -11.300 -23.831  0.00  0.00    -0.381 N 
ATOM     65  H49 FWZ d   1     -31.532 -10.438 -23.853  0.00  0.00     0.157 HD
ATOM     66  H50 FWZ d   1     -30.188 -11.388 -23.164  0.00  0.00     0.157 HD
ENDBRANCH  51  64
ENDBRANCH  35  45
ENDBRANCH  27  30
ENDBRANCH  21  27
ENDBRANCH  14  17
ENDBRANCH  11  14
ENDBRANCH  10  11
ENDBRANCH   1  10
BRANCH   5  67
ATOM     67  C18 FWZ d   1     -25.092  -6.970 -22.209  0.00  0.00     0.021 C 
ATOM     68  H23 FWZ d   1     -25.154  -6.481 -23.192  0.00  0.00     0.071 H 
ATOM     69  H24 FWZ d   1     -25.299  -8.045 -22.320  0.00  0.00     0.071 H 
BRANCH  67  70
ATOM     70  N17 FWZ d   1     -26.105  -6.391 -21.340  0.00  0.00    -0.355 N 
ATOM     71  C15 FWZ d   1     -26.694  -7.083 -20.362  0.00  0.00     0.241 C 
ATOM     72  O16 FWZ d   1     -26.567  -8.295 -20.219  0.00  0.00    -0.271 OA
ATOM     73  H22 FWZ d   1     -26.370  -5.437 -21.481  0.00  0.00     0.162 HD
BRANCH  71  74
ATOM     74  C10 FWZ d   1     -27.558  -6.275 -19.398  0.00  0.00     0.094 C 
ATOM     75  N8  FWZ d   1     -28.698  -7.006 -18.826  0.00  0.00    -0.334 N 
ATOM     76  C4  FWZ d   1     -29.587  -7.547 -19.680  0.00  0.00     0.244 C 
ATOM     77  C13 FWZ d   1     -28.646  -7.033 -17.359  0.00  0.00     0.022 C 
ATOM     78  O9  FWZ d   1     -29.442  -7.461 -20.894  0.00  0.00    -0.271 OA
ATOM     79  C12 FWZ d   1     -27.747  -5.850 -17.039  0.00  0.00     0.053 C 
ATOM     80  H12 FWZ d   1     -28.209  -7.974 -16.994  0.00  0.00     0.068 H 
ATOM     81  H13 FWZ d   1     -29.647  -6.900 -16.923  0.00  0.00     0.068 H 
ATOM     82  C11 FWZ d   1     -26.728  -5.883 -18.169  0.00  0.00    -0.012 C 
ATOM     83  H20 FWZ d   1     -27.274  -5.946 -16.051  0.00  0.00     0.085 H 
ATOM     84  H18 FWZ d   1     -26.265  -4.895 -18.308  0.00  0.00     0.040 H 
ATOM     85  H19 FWZ d   1     -25.946  -6.630 -17.970  0.00  0.00     0.040 H 
ATOM     86  H11 FWZ d   1     -27.921  -5.379 -19.924  0.00  0.00     0.088 H 
BRANCH  76  87
ATOM     87  C2  FWZ d   1     -30.826  -8.263 -19.126  0.00  0.00     0.096 C 
ATOM     88  H17 FWZ d   1     -30.998  -7.920 -18.095  0.00  0.00     0.088 H 
BRANCH  87  89
ATOM     89  N1  FWZ d   1     -31.933  -7.836 -19.960  0.00  0.00    -0.344 N 
ATOM     90  C31 FWZ d   1     -33.043  -7.205 -19.566  0.00  0.00     0.258 C 
ATOM     91  O33 FWZ d   1     -33.265  -6.838 -18.423  0.00  0.00    -0.270 OA
ATOM     92  H1  FWZ d   1     -31.857  -8.036 -20.937  0.00  0.00     0.163 HD
BRANCH  90  93
ATOM     93  C32 FWZ d   1     -34.082  -6.940 -20.652  0.00  0.00     0.183 A 
ATOM     94  F34 FWZ d   1     -33.658  -7.378 -21.925  0.00  0.00    -0.233 F 
ATOM     95  C35 FWZ d   1     -35.513  -7.157 -20.372  0.00  0.00    -0.019 A 
ATOM     96  C36 FWZ d   1     -34.989  -5.774 -20.670  0.00  0.00    -0.019 A 
ATOM     97  H29 FWZ d   1     -35.843  -7.415 -19.355  0.00  0.00     0.038 H 
ATOM     98  H30 FWZ d   1     -36.146  -7.677 -21.106  0.00  0.00     0.038 H 
ATOM     99  H31 FWZ d   1     -35.238  -5.282 -21.622  0.00  0.00     0.038 H 
ATOM    100  H32 FWZ d   1     -34.935  -5.020 -19.871  0.00  0.00     0.038 H 
ENDBRANCH  90  93
ENDBRANCH  87  89
BRANCH  87 101
ATOM    101  C3  FWZ d   1     -30.705  -9.817 -19.087  0.00  0.00    -0.022 C 
BRANCH 101 102
ATOM    102  C5  FWZ d   1     -29.430 -10.244 -18.352  0.00  0.00    -0.067 C 
ATOM    103  H2  FWZ d   1     -29.366 -11.342 -18.337  0.00  0.00     0.028 H 
ATOM    104  H3  FWZ d   1     -29.457  -9.864 -17.320  0.00  0.00     0.028 H 
ATOM    105  H4  FWZ d   1     -28.552  -9.832 -18.872  0.00  0.00     0.028 H 
ENDBRANCH 101 102
BRANCH 101 106
ATOM    106  C6  FWZ d   1     -31.912 -10.406 -18.351  0.00  0.00    -0.067 C 
ATOM    107  H5  FWZ d   1     -32.837 -10.108 -18.867  0.00  0.00     0.028 H 
ATOM    108  H6  FWZ d   1     -31.931 -10.029 -17.318  0.00  0.00     0.028 H 
ATOM    109  H7  FWZ d   1     -31.835 -11.503 -18.340  0.00  0.00     0.028 H 
ENDBRANCH 101 106
BRANCH 101 110
ATOM    110  C7  FWZ d   1     -30.669 -10.402 -20.501  0.00  0.00    -0.067 C 
ATOM    111  H8  FWZ d   1     -29.807  -9.990 -21.046  0.00  0.00     0.028 H 
ATOM    112  H9  FWZ d   1     -31.597 -10.140 -21.030  0.00  0.00     0.028 H 
ATOM    113  H10 FWZ d   1     -30.577 -11.497 -20.443  0.00  0.00     0.028 H 
ENDBRANCH 101 110
ENDBRANCH  87 101
ENDBRANCH  76  87
BRANCH  79 114
ATOM    114  O14 FWZ d   1     -28.501  -4.641 -17.125  0.00  0.00    -0.394 OA
ATOM    115  H21 FWZ d   1     -27.915  -3.897 -17.049  0.00  0.00     0.210 HD
ENDBRANCH  79 114
ENDBRANCH  71  74
ENDBRANCH  67  70
ENDBRANCH   5  67
BRANCH   3 116
ATOM    116  C25 FWZ d   1     -19.631  -6.186 -20.438  0.00  0.00     0.040 A 
ATOM    117  C26 FWZ d   1     -18.504  -6.034 -21.208  0.00  0.00     0.049 A 
ATOM    118  N27 FWZ d   1     -17.362  -5.714 -20.503  0.00  0.00    -0.258 NA
ATOM    119  C28 FWZ d   1     -17.607  -5.652 -19.233  0.00  0.00     0.041 A 
ATOM    120  S29 FWZ d   1     -19.233  -5.955 -18.763  0.00  0.00    -0.080 SA
ATOM    121  H16 FWZ d   1     -16.830  -5.422 -18.506  0.00  0.00     0.126 H 
BRANCH 117 122
ATOM    122  C30 FWZ d   1     -18.397  -6.213 -22.687  0.00  0.00    -0.034 C 
ATOM    123  H26 FWZ d   1     -17.362  -6.020 -23.006  0.00  0.00     0.035 H 
ATOM    124  H27 FWZ d   1     -19.074  -5.508 -23.192  0.00  0.00     0.035 H 
ATOM    125  H28 FWZ d   1     -18.676  -7.243 -22.953  0.00  0.00     0.035 H 
ENDBRANCH 117 122
ENDBRANCH   3 116
TORSDOF 23
