REMARK  6 active torsions:
REMARK  status: ('A' for Active; 'I' for Inactive)
REMARK    1  A    between atoms: C10_5  and  C15_9 
REMARK    2  A    between atoms: C13_7  and  C18_12 
REMARK       I    between atoms: C18_12  and  N19_19 
REMARK    3  A    between atoms: S22_22  and  C1_13 
REMARK    4  A    between atoms: C23_23  and  N7_15 
REMARK    5  A    between atoms: N19_19  and  O20_20 
REMARK    6  A    between atoms: S22_22  and  C23_23 
ROOT
ATOM      1  C10 GM5 d   1      44.049  37.152  87.426  0.00  0.00     0.108 A 
ATOM      2  N7  GM5 d   1      44.119  38.674  88.950  0.00  0.00    -0.251 N 
ATOM      3  N8  GM5 d   1      42.858  38.642  88.488  0.00  0.00    -0.065 NA
ATOM      4  N9  GM5 d   1      42.812  37.713  87.561  0.00  0.00    -0.130 NA
ATOM      5  C11 GM5 d   1      44.885  37.769  88.317  0.00  0.00     0.031 A 
ATOM      6  H10 GM5 d   1      45.943  37.569  88.478  0.00  0.00     0.118 H 
ENDROOT
BRANCH   1   7
ATOM      7  C15 GM5 d   1      44.323  36.073  86.458  0.00  0.00    -0.003 A 
ATOM      8  C14 GM5 d   1      45.251  35.078  86.761  0.00  0.00    -0.055 A 
ATOM      9  C13 GM5 d   1      45.486  34.033  85.869  0.00  0.00     0.035 A 
ATOM     10  H6  GM5 d   1      45.794  35.117  87.698  0.00  0.00     0.086 H 
ATOM     11  C12 GM5 d   1      44.804  34.007  84.655  0.00  0.00    -0.068 A 
ATOM     12  C17 GM5 d   1      43.887  34.998  84.347  0.00  0.00    -0.081 A 
ATOM     13  H5  GM5 d   1      44.992  33.207  83.948  0.00  0.00     0.085 H 
ATOM     14  C16 GM5 d   1      43.643  36.024  85.243  0.00  0.00    -0.071 A 
ATOM     15  H8  GM5 d   1      43.359  34.970  83.401  0.00  0.00     0.083 H 
ATOM     16  H7  GM5 d   1      42.919  36.793  84.998  0.00  0.00     0.084 H 
BRANCH   9  17
ATOM     17  C18 GM5 d   1      46.398  32.904  86.245  0.00  0.00     0.275 C 
ATOM     18  N19 GM5 d   1      46.413  31.865  85.412  0.00  0.00    -0.233 N 
ATOM     19  H11 GM5 d   1      45.897  31.910  84.557  0.00  0.00     0.197 HD
ATOM     20  O21 GM5 d   1      47.059  32.936  87.283  0.00  0.00    -0.265 OA
BRANCH  18  21
ATOM     21  O20 GM5 d   1      47.140  30.714  85.718  0.00  0.00    -0.287 OA
ATOM     22  H12 GM5 d   1      47.038  30.081  85.017  0.00  0.00     0.244 HD
ENDBRANCH  18  21
ENDBRANCH   9  17
ENDBRANCH   1   7
BRANCH   2  23
ATOM     23  C23 GM5 d   1      44.541  39.586  89.993  0.00  0.00     0.063 C 
ATOM     24  H13 GM5 d   1      43.785  40.377  90.099  0.00  0.00     0.084 H 
ATOM     25  H14 GM5 d   1      45.503  40.034  89.704  0.00  0.00     0.084 H 
BRANCH  23  26
ATOM     26  S22 GM5 d   1      44.742  38.756  91.587  0.00  0.00    -0.108 SA
BRANCH  26  27
ATOM     27  C1  GM5 d   1      43.129  39.035  92.256  0.00  0.00     0.002 A 
ATOM     28  C6  GM5 d   1      42.156  38.048  92.171  0.00  0.00    -0.067 A 
ATOM     29  C5  GM5 d   1      40.904  38.262  92.720  0.00  0.00    -0.082 A 
ATOM     30  H1  GM5 d   1      42.377  37.110  91.675  0.00  0.00     0.085 H 
ATOM     31  C4  GM5 d   1      40.616  39.452  93.354  0.00  0.00    -0.083 A 
ATOM     32  H2  GM5 d   1      40.146  37.490  92.651  0.00  0.00     0.083 H 
ATOM     33  C3  GM5 d   1      41.579  40.436  93.436  0.00  0.00    -0.082 A 
ATOM     34  H3  GM5 d   1      39.635  39.614  93.787  0.00  0.00     0.083 H 
ATOM     35  C2  GM5 d   1      42.834  40.235  92.888  0.00  0.00    -0.067 A 
ATOM     36  H9  GM5 d   1      41.352  41.372  93.933  0.00  0.00     0.083 H 
ATOM     37  H4  GM5 d   1      43.585  41.014  92.952  0.00  0.00     0.085 H 
ENDBRANCH  26  27
ENDBRANCH  23  26
ENDBRANCH   2  23
TORSDOF 6
