REMARK  7 active torsions:
REMARK  status: ('A' for Active; 'I' for Inactive)
REMARK       I    between atoms: C2_10  and  N1_1 
REMARK    1  A    between atoms: N1_1  and  O4_11 
REMARK    2  A    between atoms: C8_4  and  C2_10 
REMARK    3  A    between atoms: C27_18  and  C18_17 
REMARK    4  A    between atoms: N29_19  and  C27_18 
REMARK    5  A    between atoms: C30_20  and  N29_19 
REMARK    6  A    between atoms: C31_21  and  C30_20 
REMARK    7  A    between atoms: N32_22  and  C44_29 
ROOT
ATOM      1  C5  GOK d   1      43.290  34.386  84.315  0.00  0.00     0.724 A 
ATOM      2  C8  GOK d   1      45.290  32.855  85.308  0.00  0.00     0.070 A 
ATOM      3  C9  GOK d   1      44.269  33.372  86.094  0.00  0.00     0.038 A 
ATOM      4  C14 GOK d   1      40.953  35.181  84.557  0.00  0.00     0.012 C 
ATOM      5  N15 GOK d   1      42.172  34.945  83.779  0.00  0.00    -0.214 N 
ATOM      6  C16 GOK d   1      42.047  35.343  82.374  0.00  0.00     0.012 C 
ATOM      7  N6  GOK d   1      44.247  34.005  83.458  0.00  0.00    -0.074 NA
ATOM      8  C7  GOK d   1      45.225  33.247  83.975  0.00  0.00     0.038 A 
ATOM      9  N10 GOK d   1      43.264  34.126  85.628  0.00  0.00    -0.074 NA
ATOM     10  C13 GOK d   1      40.516  36.636  84.474  0.00  0.00    -0.045 C 
ATOM     11  C17 GOK d   1      41.608  36.797  82.252  0.00  0.00    -0.045 C 
ATOM     12  C18 GOK d   1      40.330  37.087  83.034  0.00  0.00    -0.028 C 
ATOM     13  H2  GOK d   1      44.286  33.151  87.155  0.00  0.00     0.117 H 
ATOM     14  H3  GOK d   1      41.144  34.924  85.609  0.00  0.00     0.065 H 
ATOM     15  H4  GOK d   1      40.148  34.542  84.164  0.00  0.00     0.065 H 
ATOM     16  H5  GOK d   1      41.301  34.700  81.884  0.00  0.00     0.065 H 
ATOM     17  H6  GOK d   1      43.021  35.219  81.878  0.00  0.00     0.065 H 
ATOM     18  H8  GOK d   1      46.016  32.918  83.311  0.00  0.00     0.117 H 
ATOM     19  H9  GOK d   1      41.283  37.266  84.948  0.00  0.00     0.036 H 
ATOM     20  H10 GOK d   1      39.562  36.753  85.010  0.00  0.00     0.036 H 
ATOM     21  H11 GOK d   1      41.432  37.025  81.190  0.00  0.00     0.036 H 
ATOM     22  H12 GOK d   1      42.412  37.442  82.637  0.00  0.00     0.036 H 
ATOM     23  H13 GOK d   1      39.499  36.524  82.584  0.00  0.00     0.042 H 
ENDROOT
BRANCH  12  24
ATOM     24  C27 GOK d   1      39.998  38.567  82.991  0.00  0.00     0.085 C 
ATOM     25  H14 GOK d   1      40.793  39.118  83.515  0.00  0.00     0.076 H 
ATOM     26  H15 GOK d   1      39.040  38.725  83.508  0.00  0.00     0.076 H 
BRANCH  24  27
ATOM     27  N29 GOK d   1      39.884  39.098  81.630  0.00  0.00    -0.071 N 
ATOM     28  H16 GOK d   1      39.494  38.377  81.043  0.00  0.00     0.277 HD
ATOM     29  H17 GOK d   1      40.809  39.331  81.305  0.00  0.00     0.277 HD
BRANCH  27  30
ATOM     30  C30 GOK d   1      39.046  40.288  81.507  0.00  0.00     0.107 C 
ATOM     31  H18 GOK d   1      38.000  39.998  81.687  0.00  0.00     0.083 H 
ATOM     32  H19 GOK d   1      39.147  40.681  80.485  0.00  0.00     0.083 H 
BRANCH  30  33
ATOM     33  C31 GOK d   1      39.413  41.378  82.476  0.00  0.00    -0.005 A 
ATOM     34  C33 GOK d   1      38.861  41.616  83.696  0.00  0.00    -0.012 A 
ATOM     35  N32 GOK d   1      39.474  42.686  84.297  0.00  0.00    -0.360 N 
ATOM     36  H20 GOK d   1      38.048  41.039  84.134  0.00  0.00     0.112 H 
ATOM     37  C34 GOK d   1      40.444  43.166  83.445  0.00  0.00     0.044 A 
ATOM     38  C35 GOK d   1      40.430  42.374  82.291  0.00  0.00    -0.000 A 
ATOM     39  C39 GOK d   1      41.320  44.233  83.590  0.00  0.00    -0.056 A 
ATOM     40  C36 GOK d   1      41.319  42.677  81.262  0.00  0.00    -0.070 A 
ATOM     41  C37 GOK d   1      42.196  43.742  81.399  0.00  0.00    -0.082 A 
ATOM     42  H21 GOK d   1      41.325  42.081  80.356  0.00  0.00     0.084 H 
ATOM     43  C38 GOK d   1      42.197  44.512  82.553  0.00  0.00    -0.081 A 
ATOM     44  H22 GOK d   1      42.887  43.975  80.597  0.00  0.00     0.083 H 
ATOM     45  H23 GOK d   1      42.890  45.340  82.645  0.00  0.00     0.083 H 
ATOM     46  H24 GOK d   1      41.318  44.834  84.492  0.00  0.00     0.087 H 
BRANCH  35  47
ATOM     47  C44 GOK d   1      39.160  43.216  85.618  0.00  0.00    -0.014 C 
ATOM     48  H25 GOK d   1      39.813  44.075  85.833  0.00  0.00     0.057 H 
ATOM     49  H26 GOK d   1      39.321  42.434  86.375  0.00  0.00     0.057 H 
ATOM     50  H27 GOK d   1      38.109  43.539  85.643  0.00  0.00     0.057 H 
ENDBRANCH  35  47
ENDBRANCH  30  33
ENDBRANCH  27  30
ENDBRANCH  24  27
ENDBRANCH  12  24
BRANCH   2  51
ATOM     51  C2  GOK d   1      46.268  31.848  85.836  0.00  0.00     0.277 C 
ATOM     52  N1  GOK d   1      46.535  30.824  85.026  0.00  0.00    -0.233 N 
ATOM     53  H1  GOK d   1      46.206  30.852  84.082  0.00  0.00     0.197 HD
ATOM     54  O3  GOK d   1      46.728  31.936  86.974  0.00  0.00    -0.265 OA
BRANCH  52  55
ATOM     55  O4  GOK d   1      47.262  29.712  85.459  0.00  0.00    -0.287 OA
ATOM     56  H7  GOK d   1      47.348  29.093  84.743  0.00  0.00     0.244 HD
ENDBRANCH  52  55
ENDBRANCH   2  51
TORSDOF 7
