REMARK  6 active torsions:
REMARK  status: ('A' for Active; 'I' for Inactive)
REMARK    1  A    between atoms: C9_2  and  N2_5 
REMARK       I    between atoms: N2_5  and  C10_6 
REMARK    2  A    between atoms: C10_6  and  C11_12 
REMARK    3  A    between atoms: C5_25  and  C6_10 
REMARK    4  A    between atoms: N4_16  and  C15_17 
REMARK    5  A    between atoms: C5_25  and  N_26 
REMARK    6  A    between atoms: C1_27  and  C_28 
ROOT
ATOM      1  C7  GQ5 d   1     -14.709   3.753  49.689  0.00  0.00     0.064 A 
ATOM      2  C9  GQ5 d   1     -15.185   1.441  50.165  0.00  0.00     0.037 A 
ATOM      3  N1  GQ5 d   1     -14.349   5.089  49.860  0.00  0.00    -0.341 N 
ATOM      4  N5  GQ5 d   1     -14.925   4.759  47.734  0.00  0.00    -0.232 NA
ATOM      5  C6  GQ5 d   1     -14.487   5.635  48.666  0.00  0.00     0.131 A 
ATOM      6  C8  GQ5 d   1     -14.751   2.698  50.597  0.00  0.00    -0.029 A 
ATOM      7  C19 GQ5 d   1     -15.583   1.248  48.834  0.00  0.00    -0.055 A 
ATOM      8  C20 GQ5 d   1     -15.539   2.297  47.923  0.00  0.00    -0.051 A 
ATOM      9  C21 GQ5 d   1     -15.088   3.539  48.367  0.00  0.00     0.085 A 
ATOM     10  H1  GQ5 d   1     -14.042   5.550  50.729  0.00  0.00     0.167 HD
ATOM     11  H14 GQ5 d   1     -14.450   2.850  51.627  0.00  0.00     0.090 H 
ATOM     12  H15 GQ5 d   1     -15.928   0.272  48.513  0.00  0.00     0.087 H 
ATOM     13  H16 GQ5 d   1     -15.848   2.153  46.894  0.00  0.00     0.087 H 
ENDROOT
BRANCH   2  14
ATOM     14  N2  GQ5 d   1     -15.286   0.355  51.066  0.00  0.00    -0.323 N 
ATOM     15  C10 GQ5 d   1     -15.124   0.372  52.414  0.00  0.00     0.256 C 
ATOM     16  O   GQ5 d   1     -15.056   1.405  53.077  0.00  0.00    -0.267 OA
ATOM     17  H4  GQ5 d   1     -15.503  -0.533  50.661  0.00  0.00     0.169 HD
BRANCH  15  18
ATOM     18  C11 GQ5 d   1     -15.143  -0.961  53.085  0.00  0.00     0.033 A 
ATOM     19  C18 GQ5 d   1     -14.289  -1.183  54.170  0.00  0.00    -0.065 A 
ATOM     20  C17 GQ5 d   1     -14.276  -2.401  54.836  0.00  0.00    -0.054 A 
ATOM     21  H7  GQ5 d   1     -13.626  -0.390  54.497  0.00  0.00     0.085 H 
ATOM     22  C16 GQ5 d   1     -15.149  -3.388  54.415  0.00  0.00     0.064 A 
ATOM     23  H8  GQ5 d   1     -13.599  -2.574  55.665  0.00  0.00     0.087 H 
ATOM     24  N4  GQ5 d   1     -15.339  -4.662  54.837  0.00  0.00    -0.274 N 
ATOM     25  C13 GQ5 d   1     -16.051  -3.175  53.363  0.00  0.00     0.012 A 
ATOM     26  N3  GQ5 d   1     -16.351  -5.273  54.154  0.00  0.00    -0.184 NA
ATOM     27  C14 GQ5 d   1     -16.779  -4.394  53.273  0.00  0.00     0.034 A 
ATOM     28  H12 GQ5 d   1     -17.587  -4.576  52.566  0.00  0.00     0.118 H 
ATOM     29  C12 GQ5 d   1     -16.025  -1.965  52.674  0.00  0.00    -0.054 A 
ATOM     30  H13 GQ5 d   1     -16.682  -1.803  51.827  0.00  0.00     0.086 H 
BRANCH  24  31
ATOM     31  C15 GQ5 d   1     -14.557  -5.411  55.804  0.00  0.00     0.003 C 
ATOM     32  H9  GQ5 d   1     -13.795  -4.753  56.247  0.00  0.00     0.059 H 
ATOM     33  H10 GQ5 d   1     -14.064  -6.256  55.301  0.00  0.00     0.059 H 
ATOM     34  H11 GQ5 d   1     -15.219  -5.791  56.596  0.00  0.00     0.059 H 
ENDBRANCH  24  31
ENDBRANCH  15  18
ENDBRANCH   2  14
BRANCH   5  35
ATOM     35  C5  GQ5 d   1     -14.144   7.051  48.331  0.00  0.00     0.138 C 
ATOM     36  H17 GQ5 d   1     -14.228   7.660  49.243  0.00  0.00     0.088 H 
ATOM     37  H18 GQ5 d   1     -14.856   7.418  47.578  0.00  0.00     0.088 H 
BRANCH  35  38
ATOM     38  N   GQ5 d   1     -12.780   7.185  47.797  0.00  0.00    -0.060 N 
ATOM     39  C4  GQ5 d   1     -12.560   6.407  46.559  0.00  0.00     0.084 C 
ATOM     40  C3  GQ5 d   1     -11.623   7.269  45.690  0.00  0.00    -0.040 C 
ATOM     41  H5  GQ5 d   1     -13.514   6.234  46.040  0.00  0.00     0.076 H 
ATOM     42  H6  GQ5 d   1     -12.088   5.441  46.791  0.00  0.00     0.076 H 
ATOM     43  C2  GQ5 d   1     -11.186   8.386  46.575  0.00  0.00    -0.037 C 
ATOM     44  H24 GQ5 d   1     -10.756   6.680  45.356  0.00  0.00     0.035 H 
ATOM     45  H25 GQ5 d   1     -12.161   7.659  44.813  0.00  0.00     0.035 H 
ATOM     46  C1  GQ5 d   1     -12.426   8.585  47.436  0.00  0.00     0.101 C 
ATOM     47  H2  GQ5 d   1     -10.315   8.101  47.183  0.00  0.00     0.036 H 
ATOM     48  H3  GQ5 d   1     -10.949   9.290  45.995  0.00  0.00     0.036 H 
ATOM     49  H20 GQ5 d   1     -13.231   9.037  46.838  0.00  0.00     0.084 H 
ATOM     50  H19 GQ5 d   1     -12.145   6.858  48.508  0.00  0.00     0.280 HD
BRANCH  46  51
ATOM     51  C   GQ5 d   1     -12.190   9.470  48.641  0.00  0.00    -0.049 C 
ATOM     52  H21 GQ5 d   1     -11.934  10.486  48.305  0.00  0.00     0.030 H 
ATOM     53  H22 GQ5 d   1     -11.362   9.062  49.239  0.00  0.00     0.030 H 
ATOM     54  H23 GQ5 d   1     -13.103   9.506  49.254  0.00  0.00     0.030 H 
ENDBRANCH  46  51
ENDBRANCH  35  38
ENDBRANCH   5  35
TORSDOF 6
