REMARK  4 active torsions:
REMARK  status: ('A' for Active; 'I' for Inactive)
REMARK       I    between atoms: C_2  and  N_1 
REMARK    1  A    between atoms: N_1  and  O1_18 
REMARK    2  A    between atoms: C1_4  and  C_2 
REMARK    3  A    between atoms: N1_17  and  C5_12 
REMARK    4  A    between atoms: C6_13  and  C7_14 
REMARK       I    between atoms: C6_13  and  N1_17 
ROOT
ATOM      1  C1  T61 d   1      45.761  33.789  85.464  0.00  0.00     0.036 A 
ATOM      2  C13 T61 d   1      45.479  34.870  86.297  0.00  0.00    -0.040 A 
ATOM      3  C2  T61 d   1      45.058  33.654  84.271  0.00  0.00    -0.066 A 
ATOM      4  C3  T61 d   1      44.034  34.531  83.959  0.00  0.00    -0.059 A 
ATOM      5  C4  T61 d   1      43.719  35.557  84.830  0.00  0.00     0.060 A 
ATOM      6  C5  T61 d   1      44.458  35.775  85.990  0.00  0.00     0.057 A 
ATOM      7 CL   T61 d   1      42.363  36.575  84.468  0.00  0.00    -0.082 Cl
ATOM      8  H5  T61 d   1      46.062  35.012  87.200  0.00  0.00     0.088 H 
ATOM      9  H6  T61 d   1      45.314  32.857  83.582  0.00  0.00     0.085 H 
ATOM     10  H7  T61 d   1      43.481  34.414  83.034  0.00  0.00     0.086 H 
ENDROOT
BRANCH   6  11
ATOM     11  N1  T61 d   1      44.091  36.835  86.866  0.00  0.00    -0.321 N 
ATOM     12  C6  T61 d   1      44.827  37.244  87.923  0.00  0.00     0.256 C 
ATOM     13  O2  T61 d   1      46.044  37.135  87.953  0.00  0.00    -0.267 OA
ATOM     14  H10 T61 d   1      43.229  37.310  86.687  0.00  0.00     0.169 HD
BRANCH  12  15
ATOM     15  C7  T61 d   1      44.111  37.913  89.050  0.00  0.00     0.032 A 
ATOM     16  C12 T61 d   1      44.867  38.777  89.840  0.00  0.00    -0.068 A 
ATOM     17  C11 T61 d   1      44.344  39.297  91.008  0.00  0.00    -0.082 A 
ATOM     18  H4  T61 d   1      45.873  39.043  89.536  0.00  0.00     0.085 H 
ATOM     19  C10 T61 d   1      43.067  38.970  91.402  0.00  0.00    -0.083 A 
ATOM     20  H3  T61 d   1      44.942  39.965  91.617  0.00  0.00     0.083 H 
ATOM     21  C9  T61 d   1      42.300  38.137  90.616  0.00  0.00    -0.082 A 
ATOM     22  H2  T61 d   1      42.665  39.366  92.328  0.00  0.00     0.083 H 
ATOM     23  C8  T61 d   1      42.811  37.618  89.439  0.00  0.00    -0.068 A 
ATOM     24  H9  T61 d   1      41.291  37.887  90.921  0.00  0.00     0.083 H 
ATOM     25  H8  T61 d   1      42.194  36.979  88.818  0.00  0.00     0.085 H 
ENDBRANCH  12  15
ENDBRANCH   6  11
BRANCH   1  26
ATOM     26  C   T61 d   1      46.699  32.709  85.914  0.00  0.00     0.275 C 
ATOM     27  N   T61 d   1      46.910  31.706  85.070  0.00  0.00    -0.233 N 
ATOM     28  H1  T61 d   1      46.555  31.746  84.136  0.00  0.00     0.197 HD
ATOM     29  O   T61 d   1      47.213  32.735  87.029  0.00  0.00    -0.265 OA
BRANCH  27  30
ATOM     30  O1  T61 d   1      47.634  30.596  85.504  0.00  0.00    -0.287 OA
ATOM     31  H11 T61 d   1      47.702  29.967  84.795  0.00  0.00     0.244 HD
ENDBRANCH  27  30
ENDBRANCH   1  26
TORSDOF 4
