REMARK  19 active torsions:
REMARK  status: ('A' for Active; 'I' for Inactive)
REMARK    1  A    between atoms: CA_2  and  CB_5 
REMARK    2  A    between atoms: CB_5  and  CG_6 
REMARK    3  A    between atoms: CG_6  and  CD_7 
REMARK    4  A    between atoms: CD_7  and  NE_8 
REMARK       I    between atoms: NE_8  and  CZ_9 
REMARK       I    between atoms: CZ_9  and  NH1_10 
REMARK       I    between atoms: CZ_9  and  NH2_11 
REMARK    5  A    between atoms: CA_13  and  CB_16 
REMARK    6  A    between atoms: CB_16  and  CG_17 
REMARK    7  A    between atoms: CG_17  and  CD_18 
REMARK    8  A    between atoms: CD_18  and  NE_19 
REMARK       I    between atoms: NE_19  and  CZ_20 
REMARK       I    between atoms: CZ_20  and  NH1_21 
REMARK       I    between atoms: CZ_20  and  NH2_22 
REMARK    9  A    between atoms: CA_24  and  C_25 
REMARK       I    between atoms: C_25  and  N_32 
REMARK   10  A    between atoms: N_32  and  CA_33 
REMARK   11  A    between atoms: CA_33  and  C_34 
REMARK   12  A    between atoms: CA_33  and  CB_36 
REMARK       I    between atoms: C_34  and  N23_43 
REMARK   13  A    between atoms: CB_36  and  CG_37 
REMARK   14  A    between atoms: CG_37  and  CD_38 
REMARK   15  A    between atoms: CD_38  and  NE_39 
REMARK       I    between atoms: NE_39  and  CZ_40 
REMARK       I    between atoms: CZ_40  and  NH1_41 
REMARK       I    between atoms: CZ_40  and  NH2_42 
REMARK   16  A    between atoms: N23_43  and  C16_44 
REMARK   17  A    between atoms: C16_44  and  C17_45 
REMARK   18  A    between atoms: C24_48  and  C27_49 
REMARK   19  A    between atoms: C27_49  and  N35_50 
ROOT
ATOM      1  N   ARG d   1      54.581 -34.269  -4.910  0.00  0.00    -0.348 N 
ATOM      2  CA  ARG d   1      53.793 -34.168  -3.670  0.00  0.00     0.089 C 
ATOM      3  C   ARG d   1      52.426 -34.461  -3.827  0.00  0.00     0.241 C 
ATOM      4  O   ARG d   1      51.863 -35.204  -3.018  0.00  0.00    -0.271 OA
ATOM      5  N   ARG d   1      51.695 -33.944  -4.917  0.00  0.00    -0.346 N 
ATOM      6  CA  ARG d   1      50.244 -34.241  -5.104  0.00  0.00     0.089 C 
ATOM      7  C   ARG d   1      50.027 -34.686  -6.420  0.00  0.00     0.241 C 
ATOM      8  O   ARG d   1      50.700 -34.245  -7.353  0.00  0.00    -0.271 OA
ATOM      9  N   ARG d   1      49.034 -35.652  -6.662  0.00  0.00    -0.346 N 
ATOM     10  CA  ARG d   1      48.764 -36.252  -7.990  0.00  0.00     0.089 C 
ATOM     11  CB  ARG d   1      49.017 -37.758  -7.863  0.00  0.00    -0.038 C 
ATOM     12  CG  ARG d   1      50.440 -38.082  -7.472  0.00  0.00    -0.061 C 
ATOM     13  CD  ARG d   1      51.295 -38.147  -8.714  0.00  0.00    -0.050 C 
ATOM     14  CE  ARG d   1      52.541 -38.969  -8.391  0.00  0.00    -0.005 C 
ATOM     15  NZ  ARG d   1      53.474 -38.208  -7.531  0.00  0.00    -0.361 N 
ATOM     16  C1  ARG d   1      54.820 -38.598  -7.500  0.00  0.00     0.217 C 
ATOM     17  C2  ARG d   1      55.739 -37.866  -6.749  0.00  0.00     0.010 C 
ATOM     18  C3  ARG d   1      55.962 -36.564  -7.528  0.00  0.00    -0.049 C 
ATOM     19  C4  ARG d   1      55.386 -35.260  -6.910  0.00  0.00     0.010 C 
ATOM     20  C5  ARG d   1      54.537 -35.352  -5.782  0.00  0.00     0.218 C 
ATOM     21  O1  ARG d   1      55.179 -39.551  -8.193  0.00  0.00    -0.274 OA
ATOM     22  O5  ARG d   1      53.746 -36.278  -5.562  0.00  0.00    -0.274 OA
ATOM     23  H1  ARG d   1      55.188 -33.508  -5.141  0.00  0.00     0.163 HD
ATOM     24  H2  ARG d   1      54.199 -34.898  -2.954  0.00  0.00     0.087 H 
ATOM     25  H14 ARG d   1      52.162 -33.362  -5.583  0.00  0.00     0.163 HD
ATOM     26  H15 ARG d   1      49.970 -35.055  -4.417  0.00  0.00     0.087 H 
ATOM     27  H27 ARG d   1      48.475 -35.953  -5.889  0.00  0.00     0.163 HD
ATOM     28  H28 ARG d   1      49.405 -35.790  -8.755  0.00  0.00     0.087 H 
ATOM     29  H29 ARG d   1      48.802 -38.233  -8.831  0.00  0.00     0.036 H 
ATOM     30  H30 ARG d   1      48.341 -38.164  -7.097  0.00  0.00     0.036 H 
ATOM     31  H31 ARG d   1      50.467 -39.053  -6.956  0.00  0.00     0.033 H 
ATOM     32  H32 ARG d   1      50.824 -37.299  -6.802  0.00  0.00     0.033 H 
ATOM     33  H33 ARG d   1      51.587 -37.131  -9.019  0.00  0.00     0.035 H 
ATOM     34  H34 ARG d   1      50.733 -38.627  -9.529  0.00  0.00     0.035 H 
ATOM     35  H35 ARG d   1      53.051 -39.232  -9.329  0.00  0.00     0.064 H 
ATOM     36  H36 ARG d   1      52.239 -39.888  -7.868  0.00  0.00     0.064 H 
ATOM     37  H37 ARG d   1      53.152 -37.434  -6.985  0.00  0.00     0.162 HD
ATOM     38  H62 ARG d   1      56.684 -38.421  -6.650  0.00  0.00     0.047 H 
ATOM     39  H63 ARG d   1      55.334 -37.651  -5.749  0.00  0.00     0.047 H 
ATOM     40  H64 ARG d   1      55.505 -36.690  -8.521  0.00  0.00     0.034 H 
ATOM     41  H65 ARG d   1      57.048 -36.426  -7.639  0.00  0.00     0.034 H 
ATOM     42  H66 ARG d   1      54.816 -34.752  -7.702  0.00  0.00     0.047 H 
ATOM     43  H67 ARG d   1      56.243 -34.636  -6.618  0.00  0.00     0.047 H 
ENDROOT
BRANCH  10  44
ATOM     44  C   ARG d   1      47.418 -36.164  -8.350  0.00  0.00     0.241 C 
ATOM     45  O   ARG d   1      46.539 -36.231  -7.495  0.00  0.00    -0.271 OA
ATOM     46  N   ARG d   1      47.168 -36.074  -9.670  0.00  0.00    -0.346 N 
ATOM     47  H38 ARG d   1      47.941 -35.981 -10.297  0.00  0.00     0.163 HD
BRANCH  46  48
ATOM     48  CA  ARG d   1      45.804 -36.107 -10.232  0.00  0.00     0.089 C 
ATOM     49  H39 ARG d   1      45.203 -35.296  -9.796  0.00  0.00     0.087 H 
BRANCH  48  50
ATOM     50  C   ARG d   1      45.209 -37.478  -9.847  0.00  0.00     0.240 C 
ATOM     51  O   ARG d   1      45.907 -38.475  -9.989  0.00  0.00    -0.271 OA
ATOM     52  N23 ARG d   1      43.956 -37.520  -9.349  0.00  0.00    -0.355 N 
ATOM     53  H51 ARG d   1      43.426 -36.674  -9.285  0.00  0.00     0.162 HD
BRANCH  52  54
ATOM     54  C16 ARG d   1      43.347 -38.796  -8.893  0.00  0.00     0.019 C 
ATOM     55  H52 ARG d   1      43.879 -39.644  -9.351  0.00  0.00     0.071 H 
ATOM     56  H53 ARG d   1      42.288 -38.826  -9.187  0.00  0.00     0.071 H 
BRANCH  54  57
ATOM     57  C17 ARG d   1      43.453 -38.875  -7.466  0.00  0.00    -0.040 A 
ATOM     58  C22 ARG d   1      42.362 -38.616  -6.636  0.00  0.00    -0.074 A 
ATOM     59  C21 ARG d   1      42.479 -38.678  -5.242  0.00  0.00    -0.069 A 
ATOM     60  H54 ARG d   1      41.406 -38.362  -7.079  0.00  0.00     0.084 H 
ATOM     61  C24 ARG d   1      43.689 -38.995  -4.627  0.00  0.00     0.007 A 
ATOM     62  H55 ARG d   1      41.609 -38.475  -4.628  0.00  0.00     0.085 H 
ATOM     63  C19 ARG d   1      44.774 -39.253  -5.453  0.00  0.00    -0.069 A 
ATOM     64  C18 ARG d   1      44.662 -39.185  -6.851  0.00  0.00    -0.074 A 
ATOM     65  H60 ARG d   1      45.728 -39.513  -5.009  0.00  0.00     0.085 H 
ATOM     66  H61 ARG d   1      45.535 -39.378  -7.464  0.00  0.00     0.084 H 
BRANCH  61  67
ATOM     67  C27 ARG d   1      43.799 -39.058  -3.215  0.00  0.00     0.102 C 
ATOM     68  N34 ARG d   1      42.742 -38.744  -2.466  0.00  0.00    -0.385 N 
ATOM     69  H58 ARG d   1      41.848 -38.497  -2.914  0.00  0.00     0.157 HD
ATOM     70  H59 ARG d   1      42.819 -38.749  -1.439  0.00  0.00     0.157 HD
BRANCH  67  71
ATOM     71  N35 ARG d   1      44.971 -39.383  -2.658  0.00  0.00    -0.385 N 
ATOM     72  H56 ARG d   1      45.058 -39.431  -1.633  0.00  0.00     0.157 HD
ATOM     73  H57 ARG d   1      45.786 -39.586  -3.254  0.00  0.00     0.157 HD
ENDBRANCH  67  71
ENDBRANCH  61  67
ENDBRANCH  54  57
ENDBRANCH  52  54
ENDBRANCH  48  50
BRANCH  48  74
ATOM     74  CB  ARG d   1      45.810 -35.962 -11.760  0.00  0.00    -0.036 C 
ATOM     75  H40 ARG d   1      44.799 -36.176 -12.136  0.00  0.00     0.036 H 
ATOM     76  H41 ARG d   1      46.519 -36.692 -12.178  0.00  0.00     0.036 H 
BRANCH  74  77
ATOM     77  CG  ARG d   1      46.220 -34.558 -12.230  0.00  0.00    -0.048 C 
ATOM     78  H42 ARG d   1      47.139 -34.239 -11.716  0.00  0.00     0.035 H 
ATOM     79  H43 ARG d   1      45.415 -33.838 -12.021  0.00  0.00     0.035 H 
BRANCH  77  80
ATOM     80  CD  ARG d   1      46.467 -34.654 -13.751  0.00  0.00     0.009 C 
ATOM     81  H44 ARG d   1      45.533 -34.959 -14.246  0.00  0.00     0.064 H 
ATOM     82  H45 ARG d   1      47.245 -35.408 -13.940  0.00  0.00     0.064 H 
BRANCH  80  83
ATOM     83  NE  ARG d   1      46.905 -33.364 -14.307  0.00  0.00    -0.227 N 
ATOM     84  CZ  ARG d   1      48.168 -32.922 -14.215  0.00  0.00     0.665 C 
ATOM     85  NH1 ARG d   1      49.082 -33.667 -13.585  0.00  0.00    -0.235 N 
ATOM     86  NH2 ARG d   1      48.518 -31.733 -14.739  0.00  0.00    -0.235 N 
ATOM     87  H47 ARG d   1      50.054 -33.335 -13.510  0.00  0.00     0.174 HD
ATOM     88  H48 ARG d   1      48.814 -34.573 -13.175  0.00  0.00     0.174 HD
ATOM     89  H49 ARG d   1      47.815 -31.157 -15.225  0.00  0.00     0.174 HD
ATOM     90  H50 ARG d   1      49.489 -31.398 -14.654  0.00  0.00     0.174 HD
ATOM     91  H46 ARG d   1      46.211 -32.774 -14.788  0.00  0.00     0.177 HD
ENDBRANCH  80  83
ENDBRANCH  77  80
ENDBRANCH  74  77
ENDBRANCH  48  74
ENDBRANCH  46  48
ENDBRANCH  10  44
BRANCH   6  92
ATOM     92  CB  ARG d   1      49.361 -33.026  -4.766  0.00  0.00    -0.036 C 
ATOM     93  H16 ARG d   1      48.302 -33.313  -4.842  0.00  0.00     0.036 H 
ATOM     94  H17 ARG d   1      49.572 -32.214  -5.477  0.00  0.00     0.036 H 
BRANCH  92  95
ATOM     95  CG  ARG d   1      49.658 -32.538  -3.327  0.00  0.00    -0.048 C 
ATOM     96  H18 ARG d   1      49.243 -31.528  -3.193  0.00  0.00     0.035 H 
ATOM     97  H19 ARG d   1      50.746 -32.511  -3.170  0.00  0.00     0.035 H 
BRANCH  95  98
ATOM     98  CD  ARG d   1      49.017 -33.494  -2.298  0.00  0.00     0.009 C 
ATOM     99  H20 ARG d   1      49.458 -34.494  -2.421  0.00  0.00     0.064 H 
ATOM    100  H21 ARG d   1      47.935 -33.545  -2.488  0.00  0.00     0.064 H 
BRANCH  98 101
ATOM    101  NE  ARG d   1      49.236 -33.044  -0.900  0.00  0.00    -0.227 N 
ATOM    102  CZ  ARG d   1      50.059 -33.636  -0.003  0.00  0.00     0.665 C 
ATOM    103  NH1 ARG d   1      50.139 -33.169   1.263  0.00  0.00    -0.235 N 
ATOM    104  NH2 ARG d   1      50.801 -34.699  -0.353  0.00  0.00    -0.235 N 
ATOM    105  H23 ARG d   1      50.767 -33.624   1.941  0.00  0.00     0.174 HD
ATOM    106  H24 ARG d   1      49.572 -32.358   1.550  0.00  0.00     0.174 HD
ATOM    107  H25 ARG d   1      50.752 -35.068  -1.314  0.00  0.00     0.174 HD
ATOM    108  H26 ARG d   1      51.419 -35.146   0.339  0.00  0.00     0.174 HD
ATOM    109  H22 ARG d   1      48.718 -32.211  -0.586  0.00  0.00     0.177 HD
ENDBRANCH  98 101
ENDBRANCH  95  98
ENDBRANCH  92  95
ENDBRANCH   6  92
BRANCH   2 110
ATOM    110  CB  ARG d   1      54.003 -32.762  -3.097  0.00  0.00    -0.036 C 
ATOM    111  H3  ARG d   1      53.449 -32.036  -3.710  0.00  0.00     0.036 H 
ATOM    112  H4  ARG d   1      55.075 -32.519  -3.120  0.00  0.00     0.036 H 
BRANCH 110 113
ATOM    113  CG  ARG d   1      53.498 -32.687  -1.642  0.00  0.00    -0.048 C 
ATOM    114  H5  ARG d   1      53.911 -33.522  -1.057  0.00  0.00     0.035 H 
ATOM    115  H6  ARG d   1      52.399 -32.734  -1.623  0.00  0.00     0.035 H 
BRANCH 113 116
ATOM    116  CD  ARG d   1      53.974 -31.356  -1.061  0.00  0.00     0.009 C 
ATOM    117  H7  ARG d   1      53.703 -30.543  -1.751  0.00  0.00     0.064 H 
ATOM    118  H8  ARG d   1      55.067 -31.385  -0.940  0.00  0.00     0.064 H 
BRANCH 116 119
ATOM    119  NE  ARG d   1      53.351 -31.107   0.245  0.00  0.00    -0.227 N 
ATOM    120  CZ  ARG d   1      52.154 -30.513   0.404  0.00  0.00     0.665 C 
ATOM    121  NH1 ARG d   1      51.453 -30.119  -0.680  0.00  0.00    -0.235 N 
ATOM    122  NH2 ARG d   1      51.671 -30.308   1.654  0.00  0.00    -0.235 N 
ATOM    123  H10 ARG d   1      50.536 -29.664  -0.563  0.00  0.00     0.174 HD
ATOM    124  H11 ARG d   1      51.835 -30.273  -1.624  0.00  0.00     0.174 HD
ATOM    125  H12 ARG d   1      52.216 -30.613   2.473  0.00  0.00     0.174 HD
ATOM    126  H13 ARG d   1      50.759 -29.847   1.785  0.00  0.00     0.174 HD
ATOM    127  H9  ARG d   1      53.860 -31.405   1.089  0.00  0.00     0.177 HD
ENDBRANCH 116 119
ENDBRANCH 113 116
ENDBRANCH 110 113
ENDBRANCH   2 110
TORSDOF 19
