REMARK  20 active torsions:
REMARK  status: ('A' for Active; 'I' for Inactive)
REMARK    1  A    between atoms: CA_2  and  CB_5 
REMARK    2  A    between atoms: CB_5  and  CG_6 
REMARK    3  A    between atoms: CG_6  and  CD_7 
REMARK    4  A    between atoms: CD_7  and  NE_8 
REMARK       I    between atoms: NE_8  and  CZ_9 
REMARK       I    between atoms: CZ_9  and  NH1_10 
REMARK       I    between atoms: CZ_9  and  NH2_11 
REMARK    5  A    between atoms: CA_13  and  CB_16 
REMARK    6  A    between atoms: CB_16  and  CG_17 
REMARK    7  A    between atoms: CG_17  and  CD_18 
REMARK    8  A    between atoms: CD_18  and  NE_19 
REMARK       I    between atoms: NE_19  and  CZ_20 
REMARK       I    between atoms: CZ_20  and  NH1_21 
REMARK       I    between atoms: CZ_20  and  NH2_22 
REMARK    9  A    between atoms: CA_24  and  C_25 
REMARK       I    between atoms: C_25  and  N_32 
REMARK   10  A    between atoms: N_32  and  CA_33 
REMARK   11  A    between atoms: CA_33  and  C_34 
REMARK   12  A    between atoms: CA_33  and  CB_36 
REMARK       I    between atoms: C_34  and  N23_41 
REMARK   13  A    between atoms: CB_36  and  CG_37 
REMARK   14  A    between atoms: CG_37  and  CD_38 
REMARK   15  A    between atoms: CD_38  and  CE_39 
REMARK   16  A    between atoms: CE_39  and  NZ_40 
REMARK   17  A    between atoms: N23_41  and  C16_42 
REMARK   18  A    between atoms: C16_42  and  C17_43 
REMARK   19  A    between atoms: C24_46  and  C27_47 
REMARK   20  A    between atoms: C27_47  and  N35_48 
ROOT
ATOM      1  N   ARG d   1      54.716 -34.343  -4.976  0.00  0.00    -0.348 N 
ATOM      2  CA  ARG d   1      54.059 -34.255  -3.642  0.00  0.00     0.089 C 
ATOM      3  C   ARG d   1      52.682 -34.543  -3.733  0.00  0.00     0.241 C 
ATOM      4  O   ARG d   1      52.116 -35.205  -2.863  0.00  0.00    -0.271 OA
ATOM      5  N   ARG d   1      51.938 -34.114  -4.845  0.00  0.00    -0.346 N 
ATOM      6  CA  ARG d   1      50.483 -34.405  -4.984  0.00  0.00     0.089 C 
ATOM      7  C   ARG d   1      50.258 -34.889  -6.284  0.00  0.00     0.241 C 
ATOM      8  O   ARG d   1      50.946 -34.497  -7.228  0.00  0.00    -0.271 OA
ATOM      9  N   ARG d   1      49.255 -35.842  -6.517  0.00  0.00    -0.346 N 
ATOM     10  CA  ARG d   1      48.994 -36.460  -7.845  0.00  0.00     0.089 C 
ATOM     11  CB  ARG d   1      49.187 -37.953  -7.691  0.00  0.00    -0.038 C 
ATOM     12  CG  ARG d   1      50.598 -38.325  -7.337  0.00  0.00    -0.061 C 
ATOM     13  CD  ARG d   1      51.433 -38.188  -8.577  0.00  0.00    -0.050 C 
ATOM     14  CE  ARG d   1      52.707 -38.988  -8.388  0.00  0.00    -0.005 C 
ATOM     15  NZ  ARG d   1      53.614 -38.348  -7.412  0.00  0.00    -0.361 N 
ATOM     16  C1  ARG d   1      54.722 -35.572  -5.662  0.00  0.00     0.218 C 
ATOM     17  C2  ARG d   1      55.311 -35.692  -6.940  0.00  0.00     0.010 C 
ATOM     18  C3  ARG d   1      56.401 -36.792  -7.008  0.00  0.00    -0.049 C 
ATOM     19  C4  ARG d   1      55.913 -38.205  -6.587  0.00  0.00     0.010 C 
ATOM     20  C5  ARG d   1      54.959 -38.738  -7.461  0.00  0.00     0.217 C 
ATOM     21  O1  ARG d   1      54.126 -36.515  -5.138  0.00  0.00    -0.274 OA
ATOM     22  O5  ARG d   1      55.270 -39.609  -8.274  0.00  0.00    -0.274 OA
ATOM     23  H1  ARG d   1      55.148 -33.537  -5.380  0.00  0.00     0.163 HD
ATOM     24  H2  ARG d   1      54.524 -34.994  -2.973  0.00  0.00     0.087 H 
ATOM     25  H14 ARG d   1      52.399 -33.597  -5.566  0.00  0.00     0.163 HD
ATOM     26  H15 ARG d   1      50.209 -35.191  -4.264  0.00  0.00     0.087 H 
ATOM     27  H27 ARG d   1      48.683 -36.122  -5.746  0.00  0.00     0.163 HD
ATOM     28  H28 ARG d   1      49.660 -36.027  -8.606  0.00  0.00     0.087 H 
ATOM     29  H29 ARG d   1      48.923 -38.441  -8.641  0.00  0.00     0.036 H 
ATOM     30  H30 ARG d   1      48.519 -38.313  -6.895  0.00  0.00     0.036 H 
ATOM     31  H31 ARG d   1      50.632 -39.363  -6.976  0.00  0.00     0.033 H 
ATOM     32  H32 ARG d   1      50.977 -37.652  -6.554  0.00  0.00     0.033 H 
ATOM     33  H33 ARG d   1      51.681 -37.129  -8.743  0.00  0.00     0.035 H 
ATOM     34  H34 ARG d   1      50.877 -38.575  -9.444  0.00  0.00     0.035 H 
ATOM     35  H35 ARG d   1      53.224 -39.069  -9.355  0.00  0.00     0.064 H 
ATOM     36  H36 ARG d   1      52.446 -39.994  -8.026  0.00  0.00     0.064 H 
ATOM     37  H37 ARG d   1      53.285 -37.673  -6.752  0.00  0.00     0.162 HD
ATOM     38  H62 ARG d   1      55.770 -34.728  -7.206  0.00  0.00     0.047 H 
ATOM     39  H63 ARG d   1      54.522 -35.936  -7.667  0.00  0.00     0.047 H 
ATOM     40  H64 ARG d   1      57.226 -36.500  -6.342  0.00  0.00     0.034 H 
ATOM     41  H65 ARG d   1      56.768 -36.849  -8.043  0.00  0.00     0.034 H 
ATOM     42  H66 ARG d   1      55.469 -38.138  -5.583  0.00  0.00     0.047 H 
ATOM     43  H67 ARG d   1      56.780 -38.882  -6.560  0.00  0.00     0.047 H 
ENDROOT
BRANCH  10  44
ATOM     44  C   ARG d   1      47.658 -36.369  -8.232  0.00  0.00     0.241 C 
ATOM     45  O   ARG d   1      46.774 -36.467  -7.391  0.00  0.00    -0.271 OA
ATOM     46  N   ARG d   1      47.416 -36.279  -9.560  0.00  0.00    -0.346 N 
ATOM     47  H38 ARG d   1      48.192 -36.205 -10.186  0.00  0.00     0.163 HD
BRANCH  46  48
ATOM     48  CA  ARG d   1      46.052 -36.286 -10.120  0.00  0.00     0.089 C 
ATOM     49  H39 ARG d   1      45.461 -35.481  -9.658  0.00  0.00     0.087 H 
BRANCH  48  50
ATOM     50  C   ARG d   1      45.452 -37.645  -9.767  0.00  0.00     0.240 C 
ATOM     51  O   ARG d   1      46.152 -38.639  -9.879  0.00  0.00    -0.271 OA
ATOM     52  N23 ARG d   1      44.185 -37.682  -9.316  0.00  0.00    -0.355 N 
ATOM     53  H51 ARG d   1      43.651 -36.837  -9.275  0.00  0.00     0.162 HD
BRANCH  52  54
ATOM     54  C16 ARG d   1      43.572 -38.953  -8.881  0.00  0.00     0.019 C 
ATOM     55  H52 ARG d   1      44.126 -39.801  -9.310  0.00  0.00     0.071 H 
ATOM     56  H53 ARG d   1      42.524 -38.995  -9.211  0.00  0.00     0.071 H 
BRANCH  54  57
ATOM     57  C17 ARG d   1      43.634 -39.004  -7.455  0.00  0.00    -0.040 A 
ATOM     58  C22 ARG d   1      42.534 -38.697  -6.657  0.00  0.00    -0.074 A 
ATOM     59  C21 ARG d   1      42.622 -38.734  -5.255  0.00  0.00    -0.069 A 
ATOM     60  H54 ARG d   1      41.595 -38.425  -7.125  0.00  0.00     0.084 H 
ATOM     61  C24 ARG d   1      43.804 -39.085  -4.603  0.00  0.00     0.007 A 
ATOM     62  H55 ARG d   1      41.748 -38.483  -4.665  0.00  0.00     0.085 H 
ATOM     63  C19 ARG d   1      44.897 -39.387  -5.406  0.00  0.00    -0.069 A 
ATOM     64  C18 ARG d   1      44.817 -39.340  -6.805  0.00  0.00    -0.074 A 
ATOM     65  H60 ARG d   1      45.835 -39.666  -4.939  0.00  0.00     0.085 H 
ATOM     66  H61 ARG d   1      45.697 -39.571  -7.394  0.00  0.00     0.084 H 
BRANCH  61  67
ATOM     67  C27 ARG d   1      43.909 -39.131  -3.188  0.00  0.00     0.102 C 
ATOM     68  N34 ARG d   1      42.833 -38.879  -2.442  0.00  0.00    -0.385 N 
ATOM     69  H58 ARG d   1      41.929 -38.679  -2.893  0.00  0.00     0.157 HD
ATOM     70  H59 ARG d   1      42.906 -38.885  -1.415  0.00  0.00     0.157 HD
BRANCH  67  71
ATOM     71  N35 ARG d   1      45.094 -39.394  -2.624  0.00  0.00    -0.385 N 
ATOM     72  H56 ARG d   1      45.180 -39.429  -1.598  0.00  0.00     0.157 HD
ATOM     73  H57 ARG d   1      45.920 -39.561  -3.216  0.00  0.00     0.157 HD
ENDBRANCH  67  71
ENDBRANCH  61  67
ENDBRANCH  54  57
ENDBRANCH  52  54
ENDBRANCH  48  50
BRANCH  48  74
ATOM     74  CB  ARG d   1      46.045 -36.094 -11.649  0.00  0.00    -0.038 C 
ATOM     75  H40 ARG d   1      45.028 -36.273 -12.028  0.00  0.00     0.036 H 
ATOM     76  H41 ARG d   1      46.739 -36.816 -12.104  0.00  0.00     0.036 H 
BRANCH  74  77
ATOM     77  CG  ARG d   1      46.474 -34.689 -12.031  0.00  0.00    -0.061 C 
ATOM     78  H42 ARG d   1      47.456 -34.474 -11.584  0.00  0.00     0.033 H 
ATOM     79  H43 ARG d   1      45.733 -33.967 -11.656  0.00  0.00     0.033 H 
BRANCH  77  80
ATOM     80  CD  ARG d   1      46.574 -34.567 -13.564  0.00  0.00    -0.043 C 
ATOM     81  H44 ARG d   1      45.570 -34.438 -13.994  0.00  0.00     0.035 H 
ATOM     82  H45 ARG d   1      47.037 -35.474 -13.980  0.00  0.00     0.035 H 
BRANCH  80  83
ATOM     83  CE  ARG d   1      47.443 -33.341 -13.893  0.00  0.00     0.080 C 
ATOM     84  H46 ARG d   1      48.502 -33.623 -13.799  0.00  0.00     0.075 H 
ATOM     85  H47 ARG d   1      47.211 -32.541 -13.175  0.00  0.00     0.075 H 
BRANCH  83  86
ATOM     86  NZ  ARG d   1      47.208 -32.835 -15.256  0.00  0.00    -0.079 N 
ATOM     87  H48 ARG d   1      47.798 -32.035 -15.424  0.00  0.00     0.274 HD
ATOM     88  H49 ARG d   1      46.241 -32.566 -15.352  0.00  0.00     0.274 HD
ATOM     89  H50 ARG d   1      47.424 -33.558 -15.925  0.00  0.00     0.274 HD
ENDBRANCH  83  86
ENDBRANCH  80  83
ENDBRANCH  77  80
ENDBRANCH  74  77
ENDBRANCH  48  74
ENDBRANCH  46  48
ENDBRANCH  10  44
BRANCH   6  90
ATOM     90  CB  ARG d   1      49.631 -33.163  -4.676  0.00  0.00    -0.036 C 
ATOM     91  H16 ARG d   1      48.566 -33.413  -4.791  0.00  0.00     0.036 H 
ATOM     92  H17 ARG d   1      49.896 -32.356  -5.375  0.00  0.00     0.036 H 
BRANCH  90  93
ATOM     93  CG  ARG d   1      49.894 -32.693  -3.227  0.00  0.00    -0.048 C 
ATOM     94  H18 ARG d   1      49.531 -31.661  -3.109  0.00  0.00     0.035 H 
ATOM     95  H19 ARG d   1      50.975 -32.727  -3.025  0.00  0.00     0.035 H 
BRANCH  93  96
ATOM     96  CD  ARG d   1      49.160 -33.609  -2.224  0.00  0.00     0.009 C 
ATOM     97  H20 ARG d   1      49.546 -34.634  -2.325  0.00  0.00     0.064 H 
ATOM     98  H21 ARG d   1      48.083 -33.598  -2.449  0.00  0.00     0.064 H 
BRANCH  96  99
ATOM     99  NE  ARG d   1      49.367 -33.150  -0.834  0.00  0.00    -0.227 N 
ATOM    100  CZ  ARG d   1      50.200 -33.736   0.061  0.00  0.00     0.665 C 
ATOM    101  NH1 ARG d   1      50.928 -34.807  -0.278  0.00  0.00    -0.235 N 
ATOM    102  NH2 ARG d   1      50.289 -33.266   1.312  0.00  0.00    -0.235 N 
ATOM    103  H23 ARG d   1      51.557 -35.242   0.412  0.00  0.00     0.174 HD
ATOM    104  H24 ARG d   1      50.859 -35.196  -1.229  0.00  0.00     0.174 HD
ATOM    105  H25 ARG d   1      49.737 -32.443   1.593  0.00  0.00     0.174 HD
ATOM    106  H26 ARG d   1      50.909 -33.728   1.993  0.00  0.00     0.174 HD
ATOM    107  H22 ARG d   1      48.839 -32.323  -0.522  0.00  0.00     0.177 HD
ENDBRANCH  96  99
ENDBRANCH  93  96
ENDBRANCH  90  93
ENDBRANCH   6  90
BRANCH   2 108
ATOM    108  CB  ARG d   1      54.280 -32.855  -3.058  0.00  0.00    -0.036 C 
ATOM    109  H3  ARG d   1      53.776 -32.116  -3.698  0.00  0.00     0.036 H 
ATOM    110  H4  ARG d   1      55.359 -32.643  -3.033  0.00  0.00     0.036 H 
BRANCH 108 111
ATOM    111  CG  ARG d   1      53.711 -32.751  -1.622  0.00  0.00    -0.048 C 
ATOM    112  H5  ARG d   1      54.127 -33.556  -0.998  0.00  0.00     0.035 H 
ATOM    113  H6  ARG d   1      52.615 -32.837  -1.649  0.00  0.00     0.035 H 
BRANCH 111 114
ATOM    114  CD  ARG d   1      54.109 -31.391  -1.046  0.00  0.00     0.009 C 
ATOM    115  H7  ARG d   1      53.780 -30.601  -1.737  0.00  0.00     0.064 H 
ATOM    116  H8  ARG d   1      55.203 -31.354  -0.942  0.00  0.00     0.064 H 
BRANCH 114 117
ATOM    117  NE  ARG d   1      53.496 -31.158   0.273  0.00  0.00    -0.227 N 
ATOM    118  CZ  ARG d   1      52.301 -30.563   0.448  0.00  0.00     0.665 C 
ATOM    119  NH1 ARG d   1      51.819 -30.362   1.697  0.00  0.00    -0.235 N 
ATOM    120  NH2 ARG d   1      51.602 -30.159  -0.631  0.00  0.00    -0.235 N 
ATOM    121  H10 ARG d   1      50.905 -29.907   1.829  0.00  0.00     0.174 HD
ATOM    122  H11 ARG d   1      52.367 -30.664   2.515  0.00  0.00     0.174 HD
ATOM    123  H12 ARG d   1      51.978 -30.317  -1.577  0.00  0.00     0.174 HD
ATOM    124  H13 ARG d   1      50.692 -29.692  -0.510  0.00  0.00     0.174 HD
ATOM    125  H9  ARG d   1      54.011 -31.468   1.109  0.00  0.00     0.177 HD
ENDBRANCH 114 117
ENDBRANCH 111 114
ENDBRANCH 108 111
ENDBRANCH   2 108
TORSDOF 20
