REMARK  7 active torsions:
REMARK  status: ('A' for Active; 'I' for Inactive)
REMARK    1  A    between atoms: C2_1  and  O6_7 
REMARK    2  A    between atoms: C5_4  and  C10_3 
REMARK    3  A    between atoms: C4_5  and  O9_9 
REMARK    4  A    between atoms: C3_6  and  O8_8 
REMARK    5  A    between atoms: N12_11  and  O14_12 
REMARK    6  A    between atoms: O14_12  and  C15_13 
REMARK       I    between atoms: C15_13  and  N17_15 
REMARK    7  A    between atoms: N17_15  and  C18_16 
ROOT
ATOM      1  C2  GYZ d   1     -33.037 -38.574 -31.900  0.00  0.00     0.128 C 
ATOM      2  C1  GYZ d   1     -33.444 -39.213 -30.598  0.00  0.00     0.200 C 
ATOM      3  C5  GYZ d   1     -31.185 -40.440 -30.419  0.00  0.00     0.070 C 
ATOM      4  C4  GYZ d   1     -30.783 -39.617 -31.659  0.00  0.00     0.088 C 
ATOM      5  C3  GYZ d   1     -31.543 -38.283 -31.759  0.00  0.00     0.095 C 
ATOM      6  O11 GYZ d   1     -32.514 -40.139 -29.975  0.00  0.00    -0.326 OA
ATOM      7  N12 GYZ d   1     -34.583 -38.953 -30.069  0.00  0.00    -0.100 NA
ATOM      8  H1  GYZ d   1     -33.171 -39.306 -32.710  0.00  0.00     0.100 H 
ATOM      9  H5  GYZ d   1     -30.519 -40.071 -29.625  0.00  0.00     0.087 H 
ATOM     10  H6  GYZ d   1     -29.709 -39.387 -31.605  0.00  0.00     0.091 H 
ATOM     11  H7  GYZ d   1     -31.349 -37.702 -30.846  0.00  0.00     0.091 H 
ENDROOT
BRANCH   1  12
ATOM     12  O6  GYZ d   1     -33.832 -37.452 -32.227  0.00  0.00    -0.385 OA
ATOM     13  H8  GYZ d   1     -33.543 -37.092 -33.057  0.00  0.00     0.210 HD
ENDBRANCH   1  12
BRANCH   7  14
ATOM     14  O14 GYZ d   1     -34.962 -39.471 -28.961  0.00  0.00    -0.153 OA
BRANCH  14  15
ATOM     15  C15 GYZ d   1     -35.645 -38.728 -27.863  0.00  0.00     0.389 C 
ATOM     16  O16 GYZ d   1     -36.169 -37.647 -28.100  0.00  0.00    -0.236 OA
ATOM     17  N17 GYZ d   1     -35.662 -39.297 -26.636  0.00  0.00    -0.301 N 
ATOM     18  H11 GYZ d   1     -35.178 -40.169 -26.560  0.00  0.00     0.171 HD
BRANCH  17  19
ATOM     19  C18 GYZ d   1     -36.253 -38.843 -25.475  0.00  0.00     0.036 A 
ATOM     20  C19 GYZ d   1     -36.874 -37.589 -25.316  0.00  0.00    -0.057 A 
ATOM     21  C20 GYZ d   1     -37.477 -37.240 -24.105  0.00  0.00    -0.081 A 
ATOM     22  H12 GYZ d   1     -36.884 -36.887 -26.142  0.00  0.00     0.086 H 
ATOM     23  C21 GYZ d   1     -37.483 -38.124 -23.028  0.00  0.00    -0.083 A 
ATOM     24  H13 GYZ d   1     -37.947 -36.268 -24.002  0.00  0.00     0.083 H 
ATOM     25  C22 GYZ d   1     -36.878 -39.366 -23.165  0.00  0.00    -0.081 A 
ATOM     26  H14 GYZ d   1     -37.955 -37.845 -22.093  0.00  0.00     0.083 H 
ATOM     27  C23 GYZ d   1     -36.269 -39.719 -24.373  0.00  0.00    -0.057 A 
ATOM     28  H15 GYZ d   1     -36.878 -40.063 -22.335  0.00  0.00     0.083 H 
ATOM     29  H16 GYZ d   1     -35.798 -40.691 -24.463  0.00  0.00     0.086 H 
ENDBRANCH  17  19
ENDBRANCH  14  15
ENDBRANCH   7  14
BRANCH   5  30
ATOM     30  O8  GYZ d   1     -31.211 -37.494 -32.896  0.00  0.00    -0.390 OA
ATOM     31  H9  GYZ d   1     -30.285 -37.282 -32.874  0.00  0.00     0.210 HD
ENDBRANCH   5  30
BRANCH   3  32
ATOM     32  C10 GYZ d   1     -30.946 -41.935 -30.444  0.00  0.00    -0.049 C 
ATOM     33  H2  GYZ d   1     -31.283 -42.376 -29.494  0.00  0.00     0.031 H 
ATOM     34  H3  GYZ d   1     -29.872 -42.133 -30.580  0.00  0.00     0.031 H 
ATOM     35  H4  GYZ d   1     -31.509 -42.383 -31.276  0.00  0.00     0.031 H 
ENDBRANCH   3  32
BRANCH   4  36
ATOM     36  O9  GYZ d   1     -31.021 -40.465 -32.770  0.00  0.00    -0.390 OA
ATOM     37  H10 GYZ d   1     -30.741 -40.028 -33.566  0.00  0.00     0.210 HD
ENDBRANCH   4  36
TORSDOF 7
