REMARK  5 active torsions:
REMARK  status: ('A' for Active; 'I' for Inactive)
REMARK    1  A    between atoms: CAN_3  and  OAA_4 
REMARK    2  A    between atoms: CAP_7  and  CAR_8 
REMARK    3  A    between atoms: CAR_8  and  CAS_9 
REMARK    4  A    between atoms: CAR_8  and  CAQ_13 
REMARK    5  A    between atoms: CAO_16  and  OAB_17 
ROOT
ATOM      1  CAR MOL d   1       3.135 -15.849   6.421  0.00  0.00     0.044 C 
ATOM      2  H6  MOL d   1       2.951 -14.779   6.242  0.00  0.00     0.061 H 
ENDROOT
BRANCH   1   3
ATOM      3  CAP MOL d   1       3.055 -16.419   5.152  0.00  0.00    -0.045 A 
ATOM      4  CAJ MOL d   1       3.195 -17.772   4.905  0.00  0.00    -0.073 A 
ATOM      5  CAF MOL d   1       3.098 -18.220   3.594  0.00  0.00    -0.051 A 
ATOM      6  H1  MOL d   1       3.376 -18.468   5.716  0.00  0.00     0.084 H 
ATOM      7  CAN MOL d   1       2.868 -17.334   2.548  0.00  0.00     0.065 A 
ATOM      8  H2  MOL d   1       3.203 -19.278   3.383  0.00  0.00     0.087 H 
ATOM      9  CAG MOL d   1       2.727 -15.977   2.795  0.00  0.00    -0.051 A 
ATOM     10  CAK MOL d   1       2.822 -15.529   4.107  0.00  0.00    -0.073 A 
ATOM     11  H4  MOL d   1       2.547 -15.281   1.983  0.00  0.00     0.087 H 
ATOM     12  H5  MOL d   1       2.713 -14.472   4.320  0.00  0.00     0.084 H 
BRANCH   7  13
ATOM     13  OAA MOL d   1       2.779 -17.814   1.276  0.00  0.00    -0.361 OA
ATOM     14  H3  MOL d   1       3.592 -18.247   1.045  0.00  0.00     0.217 HD
ENDBRANCH   7  13
ENDBRANCH   1   3
BRANCH   1  15
ATOM     15  CAS MOL d   1       2.052 -16.248   7.429  0.00  0.00     0.200 C 
ATOM     16 CLD  MOL d   1       1.995 -17.962   7.977  0.00  0.00    -0.083 Cl
ATOM     17 CLE  MOL d   1       2.170 -15.175   8.742  0.00  0.00    -0.083 Cl
ATOM     18 CLC  MOL d   1       0.547 -15.951   6.621  0.00  0.00    -0.083 Cl
ENDBRANCH   1  15
BRANCH   1  19
ATOM     19  CAQ MOL d   1       4.430 -15.902   6.975  0.00  0.00    -0.045 A 
ATOM     20  CAL MOL d   1       4.948 -16.914   7.792  0.00  0.00    -0.073 A 
ATOM     21  CAH MOL d   1       6.256 -16.811   8.291  0.00  0.00    -0.051 A 
ATOM     22  H7  MOL d   1       4.340 -17.776   8.039  0.00  0.00     0.084 H 
ATOM     23  CAO MOL d   1       7.014 -15.681   7.964  0.00  0.00     0.065 A 
ATOM     24  H8  MOL d   1       6.671 -17.592   8.918  0.00  0.00     0.087 H 
ATOM     25  CAI MOL d   1       6.478 -14.700   7.159  0.00  0.00    -0.051 A 
ATOM     26  CAM MOL d   1       5.201 -14.802   6.675  0.00  0.00    -0.073 A 
ATOM     27  H10 MOL d   1       7.077 -13.833   6.904  0.00  0.00     0.087 H 
ATOM     28  H11 MOL d   1       4.795 -14.013   6.053  0.00  0.00     0.084 H 
BRANCH  23  29
ATOM     29  OAB MOL d   1       8.297 -15.491   8.388  0.00  0.00    -0.361 OA
ATOM     30  H9  MOL d   1       8.317 -15.479   9.338  0.00  0.00     0.217 HD
ENDBRANCH  23  29
ENDBRANCH   1  19
TORSDOF 5
