REMARK  6 active torsions:
REMARK  status: ('A' for Active; 'I' for Inactive)
REMARK    1  A    between atoms: O2_1  and  C13_2 
REMARK    2  A    between atoms: C4_7  and  C2_8 
REMARK    3  A    between atoms: C2_8  and  C3_9 
REMARK    4  A    between atoms: C2_8  and  C5_10 
REMARK    5  A    between atoms: C2_8  and  C1_11 
REMARK    6  A    between atoms: C8_16  and  O1_17 
ROOT
ATOM      1  C2  MOL d   1      16.000   3.388 -28.095  0.00  0.00     0.007 C 
ENDROOT
BRANCH   1   2
ATOM      2  C4  MOL d   1      15.979   3.279 -29.612  0.00  0.00    -0.045 A 
ATOM      3  C11 MOL d   1      14.905   2.684 -30.260  0.00  0.00    -0.073 A 
ATOM      4  C12 MOL d   1      14.915   2.597 -31.652  0.00  0.00    -0.051 A 
ATOM      5  H3  MOL d   1      14.069   2.292 -29.691  0.00  0.00     0.084 H 
ATOM      6  C13 MOL d   1      15.986   3.098 -32.390  0.00  0.00     0.065 A 
ATOM      7  H2  MOL d   1      14.080   2.134 -32.166  0.00  0.00     0.087 H 
ATOM      8  C14 MOL d   1      17.057   3.692 -31.729  0.00  0.00    -0.051 A 
ATOM      9  C15 MOL d   1      17.053   3.780 -30.340  0.00  0.00    -0.073 A 
ATOM     10  H4  MOL d   1      17.893   4.086 -32.295  0.00  0.00     0.087 H 
ATOM     11  H5  MOL d   1      17.889   4.240 -29.825  0.00  0.00     0.084 H 
BRANCH   6  12
ATOM     12  O2  MOL d   1      15.985   3.004 -33.755  0.00  0.00    -0.361 OA
ATOM     13  H1  MOL d   1      16.782   3.391 -34.099  0.00  0.00     0.217 HD
ENDBRANCH   6  12
ENDBRANCH   1   2
BRANCH   1  14
ATOM     14  C3  MOL d   1      17.342   2.871 -27.560  0.00  0.00    -0.061 C 
ATOM     15  H6  MOL d   1      17.473   1.819 -27.853  0.00  0.00     0.029 H 
ATOM     16  H7  MOL d   1      17.354   2.950 -26.463  0.00  0.00     0.029 H 
ATOM     17  H8  MOL d   1      18.161   3.473 -27.980  0.00  0.00     0.029 H 
ENDBRANCH   1  14
BRANCH   1  18
ATOM     18  C5  MOL d   1      14.846   2.579 -27.489  0.00  0.00    -0.061 C 
ATOM     19  H9  MOL d   1      13.889   2.957 -27.878  0.00  0.00     0.029 H 
ATOM     20  H10 MOL d   1      14.862   2.681 -26.394  0.00  0.00     0.029 H 
ATOM     21  H11 MOL d   1      14.959   1.519 -27.760  0.00  0.00     0.029 H 
ENDBRANCH   1  18
BRANCH   1  22
ATOM     22  C1  MOL d   1      15.761   4.850 -27.718  0.00  0.00    -0.045 A 
ATOM     23  C10 MOL d   1      16.620   5.520 -26.843  0.00  0.00    -0.073 A 
ATOM     24  C9  MOL d   1      16.359   6.841 -26.496  0.00  0.00    -0.051 A 
ATOM     25  H12 MOL d   1      17.487   5.012 -26.436  0.00  0.00     0.084 H 
ATOM     26  C8  MOL d   1      15.239   7.477 -27.033  0.00  0.00     0.065 A 
ATOM     27  H13 MOL d   1      17.017   7.370 -25.817  0.00  0.00     0.087 H 
ATOM     28  C7  MOL d   1      14.385   6.805 -27.909  0.00  0.00    -0.051 A 
ATOM     29  C6  MOL d   1      14.645   5.493 -28.252  0.00  0.00    -0.073 A 
ATOM     30  H15 MOL d   1      13.519   7.312 -28.319  0.00  0.00     0.087 H 
ATOM     31  H14 MOL d   1      13.986   4.966 -28.932  0.00  0.00     0.084 H 
BRANCH  26  32
ATOM     32  O1  MOL d   1      14.979   8.772 -26.702  0.00  0.00    -0.361 OA
ATOM     33  H16 MOL d   1      15.646   9.085 -26.102  0.00  0.00     0.217 HD
ENDBRANCH  26  32
ENDBRANCH   1  22
TORSDOF 6
