REMARK  5 active torsions:
REMARK  status: ('A' for Active; 'I' for Inactive)
REMARK    1  A    between atoms: CAP_14  and  CAA_1 
REMARK    2  A    between atoms: CAL_10  and  OAB_15 
REMARK    3  A    between atoms: CAM_11  and  OAC_16 
REMARK    4  A    between atoms: CAP_14  and  CAN_12 
REMARK    5  A    between atoms: CAO_13  and  CAP_14 
ROOT
ATOM      1  CAP H48 d   1      48.836 -28.776 -97.003  0.00  0.00    -0.007 C 
ATOM      2  H12 H48 d   1      49.903 -28.881 -96.756  0.00  0.00     0.054 H 
ENDROOT
BRANCH   1   3
ATOM      3  CAA H48 d   1      48.067 -29.821 -96.222  0.00  0.00    -0.065 C 
ATOM      4  H1  H48 d   1      48.187 -29.635 -95.144  0.00  0.00     0.028 H 
ATOM      5  H2  H48 d   1      48.455 -30.821 -96.467  0.00  0.00     0.028 H 
ATOM      6  H3  H48 d   1      47.001 -29.766 -96.487  0.00  0.00     0.028 H 
ENDBRANCH   1   3
BRANCH   1   7
ATOM      7  CAN H48 d   1      48.438 -27.472 -96.634  0.00  0.00    -0.050 A 
ATOM      8  CAH H48 d   1      47.352 -26.826 -97.233  0.00  0.00    -0.074 A 
ATOM      9  CAD H48 d   1      47.000 -25.523 -96.839  0.00  0.00    -0.051 A 
ATOM     10  H8  H48 d   1      46.780 -27.331 -98.003  0.00  0.00     0.084 H 
ATOM     11  CAL H48 d   1      47.735 -24.864 -95.842  0.00  0.00     0.065 A 
ATOM     12  H4  H48 d   1      46.158 -25.026 -97.307  0.00  0.00     0.087 H 
ATOM     13  CAE H48 d   1      48.817 -25.519 -95.241  0.00  0.00    -0.051 A 
ATOM     14  CAI H48 d   1      49.162 -26.815 -95.641  0.00  0.00    -0.074 A 
ATOM     15  H5  H48 d   1      49.388 -25.022 -94.465  0.00  0.00     0.087 H 
ATOM     16  H9  H48 d   1      50.003 -27.314 -95.173  0.00  0.00     0.084 H 
BRANCH  11  17
ATOM     17  OAB H48 d   1      47.401 -23.590 -95.445  0.00  0.00    -0.361 OA
ATOM     18  H13 H48 d   1      47.185 -23.594 -94.520  0.00  0.00     0.217 HD
ENDBRANCH  11  17
ENDBRANCH   1   7
BRANCH   1  19
ATOM     19  CAO H48 d   1      48.689 -29.005 -98.375  0.00  0.00    -0.050 A 
ATOM     20  CAJ H48 d   1      49.731 -28.645 -99.215  0.00  0.00    -0.074 A 
ATOM     21  CAF H48 d   1      49.626 -28.858-100.579  0.00  0.00    -0.051 A 
ATOM     22  H10 H48 d   1      50.628 -28.197 -98.804  0.00  0.00     0.084 H 
ATOM     23  CAM H48 d   1      48.487 -29.441-101.110  0.00  0.00     0.065 A 
ATOM     24  H6  H48 d   1      50.439 -28.567-101.234  0.00  0.00     0.087 H 
ATOM     25  CAG H48 d   1      47.432 -29.816-100.285  0.00  0.00    -0.051 A 
ATOM     26  CAK H48 d   1      47.544 -29.603 -98.912  0.00  0.00    -0.074 A 
ATOM     27  H7  H48 d   1      46.538 -30.266-100.702  0.00  0.00     0.087 H 
ATOM     28  H11 H48 d   1      46.736 -29.904 -98.254  0.00  0.00     0.084 H 
BRANCH  23  29
ATOM     29  OAC H48 d   1      48.419 -29.630-102.439  0.00  0.00    -0.361 OA
ATOM     30  H14 H48 d   1      49.220 -29.319-102.843  0.00  0.00     0.217 HD
ENDBRANCH  23  29
ENDBRANCH   1  19
TORSDOF 5
