REMARK  4 active torsions:
REMARK  status: ('A' for Active; 'I' for Inactive)
REMARK    1  A    between atoms: CAJ_9  and  CAA_1 
REMARK    2  A    between atoms: CAJ_9  and  CAB_2 
REMARK    3  A    between atoms: CAH_7  and  OAC_10 
REMARK    4  A    between atoms: CAI_8  and  CAJ_9 
ROOT
ATOM      1  CAD H3Z d   1     -14.760  -6.616 -27.312  0.00  0.00    -0.051 A 
ATOM      2  CAE H3Z d   1     -16.753  -6.645 -25.973  0.00  0.00    -0.051 A 
ATOM      3  CAF H3Z d   1     -15.069  -5.340 -27.758  0.00  0.00    -0.074 A 
ATOM      4  CAG H3Z d   1     -17.066  -5.362 -26.419  0.00  0.00    -0.074 A 
ATOM      5  CAH H3Z d   1     -15.596  -7.276 -26.422  0.00  0.00     0.065 A 
ATOM      6  CAI H3Z d   1     -16.221  -4.706 -27.311  0.00  0.00    -0.055 A 
ATOM      7  H7  H3Z d   1     -13.857  -7.103 -27.662  0.00  0.00     0.087 H 
ATOM      8  H8  H3Z d   1     -17.411  -7.152 -25.276  0.00  0.00     0.087 H 
ATOM      9  H9  H3Z d   1     -14.411  -4.837 -28.457  0.00  0.00     0.084 H 
ATOM     10  H10 H3Z d   1     -17.969  -4.874 -26.071  0.00  0.00     0.084 H 
ENDROOT
BRANCH   6  11
ATOM     11  CAJ H3Z d   1     -16.510  -3.420 -27.774  0.00  0.00    -0.036 C 
ATOM     12  H11 H3Z d   1     -15.634  -3.034 -28.316  0.00  0.00     0.046 H 
BRANCH  11  13
ATOM     13  CAA H3Z d   1     -16.822  -2.473 -26.609  0.00  0.00    -0.069 C 
ATOM     14  H1  H3Z d   1     -17.045  -1.470 -27.002  0.00  0.00     0.028 H 
ATOM     15  H2  H3Z d   1     -15.952  -2.419 -25.938  0.00  0.00     0.028 H 
ATOM     16  H3  H3Z d   1     -17.692  -2.851 -26.052  0.00  0.00     0.028 H 
ENDBRANCH  11  13
BRANCH  11  17
ATOM     17  CAB H3Z d   1     -17.700  -3.484 -28.735  0.00  0.00    -0.069 C 
ATOM     18  H4  H3Z d   1     -17.464  -4.166 -29.566  0.00  0.00     0.028 H 
ATOM     19  H5  H3Z d   1     -17.905  -2.479 -29.133  0.00  0.00     0.028 H 
ATOM     20  H6  H3Z d   1     -18.586  -3.853 -28.198  0.00  0.00     0.028 H 
ENDBRANCH  11  17
ENDBRANCH   6  11
BRANCH   5  21
ATOM     21  OAC H3Z d   1     -15.275  -8.534 -26.002  0.00  0.00    -0.361 OA
ATOM     22  H12 H3Z d   1     -15.177  -8.536 -25.057  0.00  0.00     0.217 HD
ENDBRANCH   5  21
TORSDOF 4
