REMARK  4 active torsions:
REMARK  status: ('A' for Active; 'I' for Inactive)
REMARK    1  A    between atoms: C4_3  and  C19_20 
REMARK    2  A    between atoms: C6_5  and  C8_13 
REMARK    3  A    between atoms: C9_6  and  N2_8 
REMARK       I    between atoms: C8_13  and  N17_26 
REMARK    4  A    between atoms: C16_18  and  N7_23 
ROOT
ATOM      1  C9  H7W d   1       6.970  22.700  20.099  0.00  0.00     0.018 C 
ATOM      2  C11 H7W d   1       5.634  23.284  20.576  0.00  0.00    -0.023 C 
ATOM      3  C12 H7W d   1       6.808  21.450  19.225  0.00  0.00    -0.023 C 
ATOM      4  C13 H7W d   1       4.713  23.539  19.405  0.00  0.00     0.086 C 
ATOM      5  C14 H7W d   1       5.806  21.696  18.101  0.00  0.00     0.086 C 
ATOM      6  N7  H7W d   1       4.566  22.292  18.628  0.00  0.00    -0.067 N 
ATOM      7  H2  H7W d   1       7.398  23.466  19.435  0.00  0.00     0.073 H 
ATOM      8  H3  H7W d   1       5.822  24.232  21.101  0.00  0.00     0.038 H 
ATOM      9  H4  H7W d   1       5.154  22.573  21.264  0.00  0.00     0.038 H 
ATOM     10  H5  H7W d   1       6.451  20.618  19.850  0.00  0.00     0.038 H 
ATOM     11  H6  H7W d   1       7.783  21.188  18.787  0.00  0.00     0.038 H 
ATOM     12  H7  H7W d   1       5.140  24.325  18.764  0.00  0.00     0.076 H 
ATOM     13  H8  H7W d   1       3.728  23.862  19.774  0.00  0.00     0.076 H 
ATOM     14  H9  H7W d   1       5.568  20.739  17.614  0.00  0.00     0.076 H 
ATOM     15  H10 H7W d   1       6.251  22.381  17.364  0.00  0.00     0.076 H 
ATOM     16  H27 H7W d   1       4.275  21.634  19.334  0.00  0.00     0.280 HD
ENDROOT
BRANCH   1  17
ATOM     17  N2  H7W d   1       7.986  22.518  21.202  0.00  0.00    -0.335 N 
ATOM     18  C1  H7W d   1       9.251  22.942  20.952  0.00  0.00     0.256 A 
ATOM     19  C3  H7W d   1      10.095  22.841  21.976  0.00  0.00     0.056 A 
ATOM     20  O10 H7W d   1       9.570  23.438  19.876  0.00  0.00    -0.267 OA
ATOM     21  C5  H7W d   1       9.335  22.270  22.979  0.00  0.00    -0.019 A 
ATOM     22  C6  H7W d   1      11.449  23.176  22.167  0.00  0.00     0.048 A 
ATOM     23  C4  H7W d   1       7.982  22.045  22.570  0.00  0.00     0.038 A 
ATOM     24  C18 H7W d   1       9.881  22.028  24.193  0.00  0.00    -0.074 A 
ATOM     25  H1  H7W d   1       7.298  22.662  23.172  0.00  0.00     0.080 H 
ATOM     26  C21 H7W d   1      11.214  22.343  24.484  0.00  0.00    -0.081 A 
ATOM     27  H20 H7W d   1       9.268  21.576  24.964  0.00  0.00     0.084 H 
ATOM     28  C20 H7W d   1      11.997  22.916  23.470  0.00  0.00    -0.067 A 
ATOM     29  H28 H7W d   1      11.630  22.149  25.466  0.00  0.00     0.083 H 
ATOM     30  H24 H7W d   1      13.032  23.167  23.673  0.00  0.00     0.085 H 
BRANCH  23  31
ATOM     31  C19 H7W d   1       7.555  20.574  22.737  0.00  0.00    -0.053 C 
ATOM     32  H21 H7W d   1       7.581  20.303  23.803  0.00  0.00     0.030 H 
ATOM     33  H22 H7W d   1       8.245  19.926  22.177  0.00  0.00     0.030 H 
ATOM     34  H23 H7W d   1       6.534  20.442  22.351  0.00  0.00     0.030 H 
ENDBRANCH  23  31
BRANCH  22  35
ATOM     35  C8  H7W d   1      12.422  23.738  21.230  0.00  0.00     0.250 C 
ATOM     36  O15 H7W d   1      13.655  23.772  21.532  0.00  0.00    -0.268 OA
ATOM     37  N17 H7W d   1      12.002  24.141  19.997  0.00  0.00    -0.366 N 
ATOM     38  H29 H7W d   1      12.657  24.527  19.347  0.00  0.00     0.159 HD
ATOM     39  H30 H7W d   1      11.039  24.051  19.743  0.00  0.00     0.159 HD
ENDBRANCH  22  35
ENDBRANCH   1  17
BRANCH   6  40
ATOM     40  C16 H7W d   1       3.468  22.233  17.642  0.00  0.00     0.104 C 
ATOM     41  C23 H7W d   1       3.408  23.468  16.757  0.00  0.00    -0.038 C 
ATOM     42  C24 H7W d   1       2.336  23.239  15.677  0.00  0.00    -0.063 C 
ATOM     43  H11 H7W d   1       3.143  24.347  17.363  0.00  0.00     0.036 H 
ATOM     44  H12 H7W d   1       4.386  23.632  16.281  0.00  0.00     0.036 H 
ATOM     45  C26 H7W d   1       0.932  23.263  16.352  0.00  0.00    -0.065 C 
ATOM     46  H13 H7W d   1       2.498  22.263  15.196  0.00  0.00     0.033 H 
ATOM     47  H14 H7W d   1       2.397  24.036  14.921  0.00  0.00     0.033 H 
ATOM     48  C25 H7W d   1       0.893  22.048  17.310  0.00  0.00    -0.063 C 
ATOM     49  H17 H7W d   1       0.142  23.175  15.592  0.00  0.00     0.033 H 
ATOM     50  H18 H7W d   1       0.796  24.198  16.916  0.00  0.00     0.033 H 
ATOM     51  C22 H7W d   1       2.116  22.003  18.311  0.00  0.00    -0.038 C 
ATOM     52  H15 H7W d   1       0.901  21.128  16.708  0.00  0.00     0.033 H 
ATOM     53  H16 H7W d   1      -0.037  22.095  17.896  0.00  0.00     0.033 H 
ATOM     54  H25 H7W d   1       2.132  21.015  18.795  0.00  0.00     0.036 H 
ATOM     55  H26 H7W d   1       1.969  22.782  19.073  0.00  0.00     0.036 H 
ATOM     56  H19 H7W d   1       3.667  21.370  16.989  0.00  0.00     0.084 H 
ENDBRANCH   6  40
TORSDOF 4
