REMARK  4 active torsions:
REMARK  status: ('A' for Active; 'I' for Inactive)
REMARK       I    between atoms: C8_1  and  N17_13 
REMARK    1  A    between atoms: C6_25  and  C8_1 
REMARK    2  A    between atoms: C9_2  and  N2_11 
REMARK    3  A    between atoms: C16_23  and  N7_7 
REMARK    4  A    between atoms: C4_10  and  C19_15 
ROOT
ATOM      1  C9  H7Z d   1       7.312  21.733  19.536  0.00  0.00     0.018 C 
ATOM      2  C11 H7Z d   1       6.274  22.862  19.711  0.00  0.00    -0.023 C 
ATOM      3  C12 H7Z d   1       6.646  20.349  19.249  0.00  0.00    -0.023 C 
ATOM      4  C13 H7Z d   1       5.424  22.935  18.485  0.00  0.00     0.086 C 
ATOM      5  C14 H7Z d   1       5.626  20.477  18.072  0.00  0.00     0.086 C 
ATOM      6  N7  H7Z d   1       4.720  21.656  18.253  0.00  0.00    -0.067 N 
ATOM      7  H1  H7Z d   1       7.898  21.964  18.634  0.00  0.00     0.073 H 
ATOM      8  H2  H7Z d   1       6.793  23.821  19.858  0.00  0.00     0.038 H 
ATOM      9  H3  H7Z d   1       5.642  22.650  20.586  0.00  0.00     0.038 H 
ATOM     10  H4  H7Z d   1       6.119  20.005  20.151  0.00  0.00     0.038 H 
ATOM     11  H5  H7Z d   1       7.424  19.620  18.978  0.00  0.00     0.038 H 
ATOM     12  H6  H7Z d   1       6.062  23.157  17.617  0.00  0.00     0.076 H 
ATOM     13  H7  H7Z d   1       4.682  23.737  18.609  0.00  0.00     0.076 H 
ATOM     14  H8  H7Z d   1       5.017  19.562  18.027  0.00  0.00     0.076 H 
ATOM     15  H9  H7Z d   1       6.181  20.595  17.130  0.00  0.00     0.076 H 
ATOM     16  H10 H7Z d   1       4.223  21.458  19.107  0.00  0.00     0.280 HD
ENDROOT
BRANCH   1  17
ATOM     17  N2  H7Z d   1       8.287  21.825  20.714  0.00  0.00    -0.335 N 
ATOM     18  C4  H7Z d   1       8.182  21.396  22.080  0.00  0.00     0.038 A 
ATOM     19  C5  H7Z d   1       9.378  21.853  22.696  0.00  0.00    -0.019 A 
ATOM     20  H11 H7Z d   1       8.221  20.297  22.092  0.00  0.00     0.080 H 
ATOM     21  C3  H7Z d   1      10.198  22.430  21.760  0.00  0.00     0.056 A 
ATOM     22  C18 H7Z d   1       9.763  21.746  23.979  0.00  0.00    -0.074 A 
ATOM     23  C1  H7Z d   1       9.509  22.364  20.611  0.00  0.00     0.256 A 
ATOM     24  C6  H7Z d   1      11.451  22.946  22.095  0.00  0.00     0.048 A 
ATOM     25  O10 H7Z d   1       9.891  22.814  19.536  0.00  0.00    -0.267 OA
ATOM     26  C20 H7Z d   1      11.828  22.835  23.446  0.00  0.00    -0.067 A 
ATOM     27  C21 H7Z d   1      10.989  22.240  24.387  0.00  0.00    -0.081 A 
ATOM     28  H18 H7Z d   1      12.791  23.220  23.762  0.00  0.00     0.085 H 
ATOM     29  H19 H7Z d   1      11.293  22.165  25.425  0.00  0.00     0.083 H 
ATOM     30  H14 H7Z d   1       9.108  21.269  24.699  0.00  0.00     0.084 H 
BRANCH  18  31
ATOM     31  C19 H7Z d   1       6.840  21.755  22.720  0.00  0.00    -0.053 C 
ATOM     32  H15 H7Z d   1       6.824  21.400  23.761  0.00  0.00     0.030 H 
ATOM     33  H16 H7Z d   1       6.025  21.276  22.157  0.00  0.00     0.030 H 
ATOM     34  H17 H7Z d   1       6.706  22.847  22.702  0.00  0.00     0.030 H 
ENDBRANCH  18  31
BRANCH  24  35
ATOM     35  C8  H7Z d   1      12.453  23.528  21.224  0.00  0.00     0.250 C 
ATOM     36  N17 H7Z d   1      12.125  24.007  19.993  0.00  0.00    -0.366 N 
ATOM     37  H12 H7Z d   1      12.831  24.405  19.407  0.00  0.00     0.159 HD
ATOM     38  H13 H7Z d   1      11.178  23.961  19.675  0.00  0.00     0.159 HD
ATOM     39  O15 H7Z d   1      13.641  23.528  21.572  0.00  0.00    -0.268 OA
ENDBRANCH  24  35
ENDBRANCH   1  17
BRANCH   6  40
ATOM     40  C16 H7Z d   1       3.672  21.856  17.231  0.00  0.00     0.104 C 
ATOM     41  C22 H7Z d   1       2.315  21.384  17.749  0.00  0.00    -0.038 C 
ATOM     42  C25 H7Z d   1       1.193  21.626  16.696  0.00  0.00    -0.063 C 
ATOM     43  H20 H7Z d   1       2.371  20.308  17.973  0.00  0.00     0.036 H 
ATOM     44  H21 H7Z d   1       2.070  21.937  18.668  0.00  0.00     0.036 H 
ATOM     45  C26 H7Z d   1       1.140  23.097  16.206  0.00  0.00    -0.065 C 
ATOM     46  H24 H7Z d   1       0.224  21.371  17.149  0.00  0.00     0.033 H 
ATOM     47  H25 H7Z d   1       1.376  20.973  15.830  0.00  0.00     0.033 H 
ATOM     48  C24 H7Z d   1       2.523  23.518  15.676  0.00  0.00    -0.063 C 
ATOM     49  H26 H7Z d   1       0.397  23.187  15.400  0.00  0.00     0.033 H 
ATOM     50  H27 H7Z d   1       0.855  23.751  17.043  0.00  0.00     0.033 H 
ATOM     51  C23 H7Z d   1       3.561  23.341  16.792  0.00  0.00    -0.038 C 
ATOM     52  H22 H7Z d   1       2.493  24.572  15.364  0.00  0.00     0.033 H 
ATOM     53  H23 H7Z d   1       2.796  22.889  14.816  0.00  0.00     0.033 H 
ATOM     54  H28 H7Z d   1       3.262  23.949  17.659  0.00  0.00     0.036 H 
ATOM     55  H29 H7Z d   1       4.541  23.680  16.426  0.00  0.00     0.036 H 
ATOM     56  H30 H7Z d   1       3.938  21.255  16.349  0.00  0.00     0.084 H 
ENDBRANCH   6  40
TORSDOF 4
