REMARK  7 active torsions:
REMARK  status: ('A' for Active; 'I' for Inactive)
REMARK    1  A    between atoms: C10_8  and  N1_1 
REMARK    2  A    between atoms: C7_6  and  O2_20 
REMARK    3  A    between atoms: O2_20  and  C8_7 
REMARK    4  A    between atoms: C8_7  and  C9_21 
REMARK    5  A    between atoms: C9_21  and  C10_8 
REMARK    6  A    between atoms: C2_17  and  O1_18 
REMARK    7  A    between atoms: O1_18  and  C1_19 
ROOT
ATOM      1  N3  MOL d   1      37.493  -4.131 -19.013  0.00  0.00    -0.388 N 
ATOM      2  C4  MOL d   1      38.135  -7.598 -17.926  0.00  0.00    -0.012 A 
ATOM      3  C5  MOL d   1      36.718  -7.555 -18.164  0.00  0.00     0.043 A 
ATOM      4  C6  MOL d   1      35.884  -8.665 -17.986  0.00  0.00    -0.022 A 
ATOM      5  C7  MOL d   1      36.558  -9.811 -17.565  0.00  0.00     0.104 A 
ATOM      6  C15 MOL d   1      37.507  -5.396 -18.662  0.00  0.00     0.088 A 
ATOM      7  C17 MOL d   1      39.667  -5.616 -17.225  0.00  0.00    -0.047 C 
ATOM      8  C16 MOL d   1      38.633  -6.205 -18.179  0.00  0.00     0.047 A 
ATOM      9  C19 MOL d   1      39.614  -6.056 -19.318  0.00  0.00    -0.047 C 
ATOM     10  C18 MOL d   1      40.703  -5.758 -18.311  0.00  0.00    -0.062 C 
ATOM     11  C3  MOL d   1      38.766  -8.721 -17.459  0.00  0.00    -0.038 A 
ATOM     12  N2  MOL d   1      36.319  -6.198 -18.605  0.00  0.00    -0.345 N 
ATOM     13  C2  MOL d   1      37.922  -9.894 -17.274  0.00  0.00     0.102 A 
ATOM     14  H2  MOL d   1      36.617  -3.696 -19.335  0.00  0.00     0.157 HD
ATOM     15  H3  MOL d   1      38.358  -3.574 -18.966  0.00  0.00     0.157 HD
ATOM     16  H4  MOL d   1      34.814  -8.636 -18.159  0.00  0.00     0.091 H 
ATOM     17  H11 MOL d   1      39.860  -6.227 -16.331  0.00  0.00     0.035 H 
ATOM     18  H12 MOL d   1      39.466  -4.578 -16.923  0.00  0.00     0.035 H 
ATOM     19  H13 MOL d   1      39.390  -5.224 -20.002  0.00  0.00     0.035 H 
ATOM     20  H14 MOL d   1      39.775  -6.976 -19.900  0.00  0.00     0.035 H 
ATOM     21  H15 MOL d   1      41.407  -6.588 -18.153  0.00  0.00     0.033 H 
ATOM     22  H16 MOL d   1      41.265  -4.835 -18.518  0.00  0.00     0.033 H 
ATOM     23  H17 MOL d   1      39.828  -8.736 -17.241  0.00  0.00     0.088 H 
ATOM     24  H18 MOL d   1      35.363  -5.887 -18.830  0.00  0.00     0.167 HD
ENDROOT
BRANCH   5  25
ATOM     25  O2  MOL d   1      35.917 -11.034 -17.259  0.00  0.00    -0.348 OA
BRANCH  25  26
ATOM     26  C8  MOL d   1      34.523 -10.932 -16.991  0.00  0.00     0.028 C 
ATOM     27  H5  MOL d   1      33.947 -10.892 -17.927  0.00  0.00     0.075 H 
ATOM     28  H6  MOL d   1      34.306 -10.038 -16.389  0.00  0.00     0.075 H 
BRANCH  26  29
ATOM     29  C9  MOL d   1      34.197 -12.213 -16.204  0.00  0.00    -0.022 C 
ATOM     30  H22 MOL d   1      34.215 -13.056 -16.910  0.00  0.00     0.038 H 
ATOM     31  H23 MOL d   1      33.185 -12.104 -15.787  0.00  0.00     0.038 H 
BRANCH  29  32
ATOM     32  C10 MOL d   1      35.142 -12.546 -15.055  0.00  0.00     0.085 C 
ATOM     33  H7  MOL d   1      35.175 -11.672 -14.388  0.00  0.00     0.076 H 
ATOM     34  H8  MOL d   1      34.717 -13.404 -14.514  0.00  0.00     0.076 H 
BRANCH  32  35
ATOM     35  N1  MOL d   1      36.334 -12.839 -15.358  0.00  0.00    -0.071 N 
ATOM     36  C14 MOL d   1      36.972 -13.088 -14.242  0.00  0.00     0.084 C 
ATOM     37  C13 MOL d   1      38.079 -14.132 -14.546  0.00  0.00    -0.041 C 
ATOM     38  H24 MOL d   1      36.273 -13.492 -13.495  0.00  0.00     0.076 H 
ATOM     39  H25 MOL d   1      37.426 -12.163 -13.857  0.00  0.00     0.076 H 
ATOM     40  C12 MOL d   1      37.749 -14.623 -15.903  0.00  0.00    -0.041 C 
ATOM     41  H9  MOL d   1      38.051 -14.954 -13.816  0.00  0.00     0.035 H 
ATOM     42  H10 MOL d   1      39.074 -13.662 -14.532  0.00  0.00     0.035 H 
ATOM     43  C11 MOL d   1      36.490 -14.201 -16.136  0.00  0.00     0.084 C 
ATOM     44  H26 MOL d   1      37.800 -15.721 -15.939  0.00  0.00     0.035 H 
ATOM     45  H27 MOL d   1      38.441 -14.199 -16.645  0.00  0.00     0.035 H 
ATOM     46  H28 MOL d   1      36.333 -14.045 -17.213  0.00  0.00     0.076 H 
ATOM     47  H29 MOL d   1      35.765 -14.939 -15.763  0.00  0.00     0.076 H 
ATOM     48  H1  MOL d   1      36.751 -12.081 -15.876  0.00  0.00     0.279 HD
ENDBRANCH  32  35
ENDBRANCH  29  32
ENDBRANCH  26  29
ENDBRANCH  25  26
ENDBRANCH   5  25
BRANCH  13  49
ATOM     49  O1  MOL d   1      38.348 -11.091 -16.799  0.00  0.00    -0.353 OA
BRANCH  49  50
ATOM     50  C1  MOL d   1      39.750 -11.221 -16.561  0.00  0.00     0.010 C 
ATOM     51  H19 MOL d   1      39.965 -12.230 -16.180  0.00  0.00     0.066 H 
ATOM     52  H20 MOL d   1      40.067 -10.474 -15.819  0.00  0.00     0.066 H 
ATOM     53  H21 MOL d   1      40.298 -11.059 -17.501  0.00  0.00     0.066 H 
ENDBRANCH  49  50
ENDBRANCH  13  49
TORSDOF 7
