REMARK  5 active torsions:
REMARK  status: ('A' for Active; 'I' for Inactive)
REMARK    1  A    between atoms: C3_8  and  C4_9 
REMARK    2  A    between atoms: C4_9  and  O4_10 
REMARK    3  A    between atoms: C5_11  and  O5_12 
REMARK    4  A    between atoms: C6_13  and  O6_14 
REMARK    5  A    between atoms: C7_15  and  O7_16 
ROOT
ATOM      1  O1  YTW d   1     -28.462  15.616  -6.579  0.00  0.00    -0.176 OA
ATOM      2  S1  YTW d   1     -27.950  15.175  -5.343  0.00  0.00     0.358 S 
ATOM      3  O2  YTW d   1     -27.684  13.799  -5.169  0.00  0.00    -0.176 OA
ATOM      4  N1  YTW d   1     -28.834  15.772  -4.106  0.00  0.00    -0.287 N 
ATOM      5  C1  YTW d   1     -27.940  16.421  -3.146  0.00  0.00     0.075 C 
ATOM      6  C2  YTW d   1     -26.785  16.954  -4.023  0.00  0.00     0.089 C 
ATOM      7  O3  YTW d   1     -26.604  15.942  -5.021  0.00  0.00    -0.251 OA
ATOM      8  C3  YTW d   1     -27.011  18.281  -4.730  0.00  0.00     0.022 C 
ATOM      9  C5  YTW d   1     -27.926  19.279  -4.012  0.00  0.00     0.070 C 
ATOM     10  C6  YTW d   1     -29.134  18.608  -3.394  0.00  0.00     0.087 C 
ATOM     11  C7  YTW d   1     -28.670  17.535  -2.411  0.00  0.00     0.085 C 
ATOM     12  H1  YTW d   1     -29.828  15.705  -4.019  0.00  0.00     0.174 HD
ATOM     13  H2  YTW d   1     -27.561  15.694  -2.412  0.00  0.00     0.081 H 
ATOM     14  H3  YTW d   1     -25.883  17.049  -3.401  0.00  0.00     0.089 H 
ATOM     15  H4  YTW d   1     -27.514  18.041  -5.679  0.00  0.00     0.051 H 
ATOM     16  H8  YTW d   1     -28.273  20.016  -4.751  0.00  0.00     0.087 H 
ATOM     17  H10 YTW d   1     -29.746  18.147  -4.183  0.00  0.00     0.091 H 
ATOM     18  H12 YTW d   1     -27.981  17.999  -1.690  0.00  0.00     0.090 H 
ENDROOT
BRANCH   8  19
ATOM     19  C4  YTW d   1     -25.669  18.910  -5.080  0.00  0.00     0.025 C 
ATOM     20  H5  YTW d   1     -25.219  19.324  -4.166  0.00  0.00     0.074 H 
ATOM     21  H6  YTW d   1     -25.832  19.719  -5.807  0.00  0.00     0.074 H 
BRANCH  19  22
ATOM     22  O4  YTW d   1     -24.777  17.954  -5.643  0.00  0.00    -0.400 OA
ATOM     23  H7  YTW d   1     -23.951  18.376  -5.850  0.00  0.00     0.209 HD
ENDBRANCH  19  22
ENDBRANCH   8  19
BRANCH   9  24
ATOM     24  O5  YTW d   1     -27.223  19.960  -2.974  0.00  0.00    -0.392 OA
ATOM     25  H9  YTW d   1     -26.489  20.433  -3.348  0.00  0.00     0.210 HD
ENDBRANCH   9  24
BRANCH  10  26
ATOM     26  O6  YTW d   1     -29.906  19.586  -2.696  0.00  0.00    -0.390 OA
ATOM     27  H11 YTW d   1     -30.666  19.169  -2.306  0.00  0.00     0.210 HD
ENDBRANCH  10  26
BRANCH  11  28
ATOM     28  O7  YTW d   1     -29.770  16.971  -1.698  0.00  0.00    -0.391 OA
ATOM     29  H13 YTW d   1     -30.375  16.575  -2.314  0.00  0.00     0.210 HD
ENDBRANCH  11  28
TORSDOF 5
