REMARK  10 active torsions:
REMARK  status: ('A' for Active; 'I' for Inactive)
REMARK    1  A    between atoms: N9_11  and  C6_5 
REMARK    2  A    between atoms: C10_6  and  N9_11 
REMARK    3  A    between atoms: C13_14  and  C10_6 
REMARK    4  A    between atoms: N11_12  and  O12_13 
REMARK    5  A    between atoms: C14_15  and  N18_18 
REMARK    6  A    between atoms: N18_18  and  C19_19 
REMARK    7  A    between atoms: C19_19  and  C20_20 
REMARK    8  A    between atoms: C20_20  and  N21_21 
REMARK    9  A    between atoms: N21_21  and  S22_22 
REMARK   10  A    between atoms: S22_22  and  N25_25 
ROOT
ATOM      1  O16 BBJ d   1      -7.965   5.748  12.873  0.00  0.00    -0.104 OA
ATOM      2  C13 BBJ d   1      -6.066   6.425  12.159  0.00  0.00     0.182 A 
ATOM      3  C14 BBJ d   1      -5.987   5.154  12.758  0.00  0.00     0.188 A 
ATOM      4  N15 BBJ d   1      -7.183   4.711  13.180  0.00  0.00    -0.085 NA
ATOM      5  N17 BBJ d   1      -7.362   6.790  12.283  0.00  0.00    -0.097 NA
ENDROOT
BRANCH   2   6
ATOM      6  C10 BBJ d   1      -4.924   7.241  11.629  0.00  0.00     0.190 C 
ATOM      7  N11 BBJ d   1      -5.106   8.481  11.443  0.00  0.00    -0.115 NA
BRANCH   6   8
ATOM      8  N9  BBJ d   1      -3.711   6.714  11.664  0.00  0.00    -0.337 N 
ATOM      9  H4  BBJ d   1      -3.438   5.880  11.125  0.00  0.00     0.167 HD
BRANCH   8  10
ATOM     10  C6  BBJ d   1      -2.870   7.383  12.479  0.00  0.00     0.035 A 
ATOM     11  C5  BBJ d   1      -2.239   6.591  13.439  0.00  0.00    -0.054 A 
ATOM     12  C4  BBJ d   1      -1.454   7.159  14.427  0.00  0.00    -0.042 A 
ATOM     13  H1  BBJ d   1      -2.366   5.515  13.410  0.00  0.00     0.087 H 
ATOM     14  C3  BBJ d   1      -1.307   8.537  14.499  0.00  0.00     0.133 A 
ATOM     15  H2  BBJ d   1      -0.952   6.524  15.148  0.00  0.00     0.088 H 
ATOM     16  C2  BBJ d   1      -1.955   9.339  13.577  0.00  0.00     0.051 A 
ATOM     17  F7  BBJ d   1      -0.540   9.090  15.455  0.00  0.00    -0.205 F 
ATOM     18  C1  BBJ d   1      -2.749   8.776  12.578  0.00  0.00    -0.037 A 
ATOM     19 BR8  BBJ d   1      -1.762  11.217  13.668  0.00  0.00    -0.048 Br
ATOM     20  H3  BBJ d   1      -3.273   9.416  11.877  0.00  0.00     0.089 H 
ENDBRANCH   8  10
ENDBRANCH   6   8
BRANCH   7  21
ATOM     21  O12 BBJ d   1      -6.355   9.083  11.593  0.00  0.00    -0.264 OA
ATOM     22  H5  BBJ d   1      -6.661   8.958  12.484  0.00  0.00     0.247 HD
ENDBRANCH   7  21
ENDBRANCH   2   6
BRANCH   3  23
ATOM     23  N18 BBJ d   1      -4.884   4.364  12.879  0.00  0.00    -0.369 N 
ATOM     24  H6  BBJ d   1      -3.972   4.754  12.602  0.00  0.00     0.161 HD
BRANCH  23  25
ATOM     25  C19 BBJ d   1      -4.926   3.002  13.377  0.00  0.00     0.009 C 
ATOM     26  H7  BBJ d   1      -3.977   2.512  13.113  0.00  0.00     0.066 H 
ATOM     27  H8  BBJ d   1      -5.758   2.482  12.880  0.00  0.00     0.066 H 
BRANCH  25  28
ATOM     28  C20 BBJ d   1      -5.121   2.875  14.884  0.00  0.00     0.019 C 
ATOM     29  H9  BBJ d   1      -6.168   3.084  15.147  0.00  0.00     0.067 H 
ATOM     30  H10 BBJ d   1      -4.463   3.583  15.409  0.00  0.00     0.067 H 
BRANCH  28  31
ATOM     31  N21 BBJ d   1      -4.773   1.488  15.259  0.00  0.00    -0.301 N 
ATOM     32  H11 BBJ d   1      -4.072   0.966  14.772  0.00  0.00     0.173 HD
BRANCH  31  33
ATOM     33  S22 BBJ d   1      -5.598   0.865  16.509  0.00  0.00     0.312 S 
ATOM     34  O23 BBJ d   1      -5.001   1.244  17.761  0.00  0.00    -0.183 OA
ATOM     35  O24 BBJ d   1      -6.983   1.254  16.471  0.00  0.00    -0.183 OA
BRANCH  33  36
ATOM     36  N25 BBJ d   1      -5.510  -0.731  16.326  0.00  0.00    -0.312 N 
ATOM     37  H12 BBJ d   1      -5.953  -1.335  16.988  0.00  0.00     0.170 HD
ATOM     38  H13 BBJ d   1      -5.013  -1.119  15.550  0.00  0.00     0.170 HD
ENDBRANCH  33  36
ENDBRANCH  31  33
ENDBRANCH  28  31
ENDBRANCH  25  28
ENDBRANCH  23  25
ENDBRANCH   3  23
TORSDOF 10
