REMARK  24 active torsions:
REMARK  status: ('A' for Active; 'I' for Inactive)
REMARK    1  A    between atoms: C2_2  and  C1_1 
REMARK    2  A    between atoms: O6_31  and  C2_2 
REMARK    3  A    between atoms: C4_4  and  O4_15 
REMARK    4  A    between atoms: C5_5  and  N5_12 
REMARK    5  A    between atoms: C6_6  and  C7_7 
REMARK    6  A    between atoms: C7_7  and  C8_8 
REMARK    7  A    between atoms: C7_7  and  O7_17 
REMARK    8  A    between atoms: C8_8  and  C9_9 
REMARK    9  A    between atoms: C8_8  and  O8_18 
REMARK   10  A    between atoms: C9_9  and  O9_19 
REMARK   11  A    between atoms: C10_10  and  C11_11 
REMARK       I    between atoms: N5_12  and  C10_10 
REMARK   12  A    between atoms: O4_43  and  C1_21 
REMARK   13  A    between atoms: C2_22  and  O2_27 
REMARK   14  A    between atoms: C3_23  and  O3_28 
REMARK   15  A    between atoms: C4_24  and  O4_29 
REMARK   16  A    between atoms: C5_25  and  C6_26 
REMARK   17  A    between atoms: C6_26  and  O6_31 
REMARK   18  A    between atoms: C1_32  and  O1_41 
REMARK   19  A    between atoms: N2_40  and  C2_33 
REMARK   20  A    between atoms: C3_34  and  O3_42 
REMARK   21  A    between atoms: C4_35  and  O4_43 
REMARK   22  A    between atoms: C5_36  and  C6_37 
REMARK   23  A    between atoms: C6_37  and  O6_45 
REMARK   24  A    between atoms: C7_38  and  C8_39 
REMARK       I    between atoms: C7_38  and  N2_40 
ROOT
ATOM      1  C1  SIA d   1       8.495  25.455  10.621  0.00  0.00     0.159 C 
ATOM      2  C2  SIA d   1       7.486  26.388  11.403  0.00  0.00     0.110 C 
ATOM      3  C3  SIA d   1       8.204  27.482  12.247  0.00  0.00     0.092 C 
ATOM      4  C4  SIA d   1       9.299  26.851  13.102  0.00  0.00     0.090 C 
ATOM      5  C5  SIA d   1      10.208  26.092  12.164  0.00  0.00     0.089 C 
ATOM      6  O5  SIA d   1       9.491  24.987  11.561  0.00  0.00    -0.348 OA
ATOM      7  H18 SIA d   1       9.010  26.059   9.859  0.00  0.00     0.133 H 
ATOM      8  H19 SIA d   1       6.907  25.748  12.085  0.00  0.00     0.094 H 
ATOM      9  H20 SIA d   1       8.647  28.221  11.563  0.00  0.00     0.091 H 
ATOM     10  H21 SIA d   1       9.861  27.629  13.639  0.00  0.00     0.091 H 
ATOM     11  H22 SIA d   1      10.528  26.791  11.377  0.00  0.00     0.090 H 
ENDROOT
BRANCH   5  12
ATOM     12  C6  SIA d   1      11.443  25.496  12.796  0.00  0.00     0.050 C 
ATOM     13  H23 SIA d   1      11.290  25.413  13.882  0.00  0.00     0.078 H 
ATOM     14  H24 SIA d   1      12.304  26.151  12.596  0.00  0.00     0.078 H 
BRANCH  12  15
ATOM     15  O6  SIA d   1      11.700  24.213  12.263  0.00  0.00    -0.344 OA
BRANCH  15  16
ATOM     16  C2  SIA d   1      12.913  23.572  12.190  0.00  0.00     0.258 C 
ATOM     17  C3  SIA d   1      14.138  23.527  11.284  0.00  0.00     0.024 C 
ATOM     18  C4  SIA d   1      14.953  22.286  11.617  0.00  0.00     0.063 C 
ATOM     19  H1  SIA d   1      14.751  24.426  11.447  0.00  0.00     0.045 H 
ATOM     20  H2  SIA d   1      13.818  23.487  10.232  0.00  0.00     0.045 H 
ATOM     21  C5  SIA d   1      14.118  21.032  11.345  0.00  0.00     0.064 C 
ATOM     22  H3  SIA d   1      15.186  22.320  12.691  0.00  0.00     0.086 H 
ATOM     23  C6  SIA d   1      12.815  21.102  12.191  0.00  0.00     0.091 C 
ATOM     24  H4  SIA d   1      13.858  20.984  10.277  0.00  0.00     0.080 H 
ATOM     25  O6  SIA d   1      12.145  22.328  11.944  0.00  0.00    -0.336 OA
ATOM     26  H5  SIA d   1      13.095  21.045  13.253  0.00  0.00     0.090 H 
BRANCH  16  27
ATOM     27  C1  SIA d   1      13.325  23.799  13.717  0.00  0.00     0.239 C 
ATOM     28  O1A SIA d   1      14.104  24.756  13.962  0.00  0.00    -0.644 OA
ATOM     29  O1B SIA d   1      12.808  22.977  14.525  0.00  0.00    -0.644 OA
ENDBRANCH  16  27
BRANCH  18  30
ATOM     30  O4  SIA d   1      16.199  22.207  10.906  0.00  0.00    -0.393 OA
ATOM     31  H14 SIA d   1      16.680  21.441  11.196  0.00  0.00     0.210 HD
ENDBRANCH  18  30
BRANCH  21  32
ATOM     32  N5  SIA d   1      14.899  19.850  11.708  0.00  0.00    -0.352 N 
ATOM     33  C10 SIA d   1      14.906  18.674  11.042  0.00  0.00     0.214 C 
ATOM     34  O10 SIA d   1      14.247  18.437  10.043  0.00  0.00    -0.274 OA
ATOM     35  H13 SIA d   1      15.479  19.918  12.520  0.00  0.00     0.163 HD
BRANCH  33  36
ATOM     36  C11 SIA d   1      15.808  17.600  11.621  0.00  0.00    -0.003 C 
ATOM     37  H10 SIA d   1      15.738  16.691  11.006  0.00  0.00     0.040 H 
ATOM     38  H11 SIA d   1      15.493  17.372  12.650  0.00  0.00     0.040 H 
ATOM     39  H12 SIA d   1      16.848  17.959  11.627  0.00  0.00     0.040 H 
ENDBRANCH  33  36
ENDBRANCH  21  32
BRANCH  23  40
ATOM     40  C7  SIA d   1      11.797  19.966  11.884  0.00  0.00     0.089 C 
ATOM     41  H6  SIA d   1      12.307  19.014  12.093  0.00  0.00     0.091 H 
BRANCH  40  42
ATOM     42  C8  SIA d   1      10.494  19.955  12.751  0.00  0.00     0.083 C 
ATOM     43  H7  SIA d   1       9.765  20.623  12.268  0.00  0.00     0.090 H 
BRANCH  42  44
ATOM     44  C9  SIA d   1       9.882  18.549  12.798  0.00  0.00     0.043 C 
ATOM     45  H8  SIA d   1      10.371  17.978  13.601  0.00  0.00     0.078 H 
ATOM     46  H9  SIA d   1      10.063  18.053  11.833  0.00  0.00     0.078 H 
BRANCH  44  47
ATOM     47  O9  SIA d   1       8.470  18.573  13.045  0.00  0.00    -0.398 OA
ATOM     48  H17 SIA d   1       8.037  19.058  12.353  0.00  0.00     0.209 HD
ENDBRANCH  44  47
ENDBRANCH  42  44
BRANCH  42  49
ATOM     49  O8  SIA d   1      10.734  20.456  14.070  0.00  0.00    -0.391 OA
ATOM     50  H16 SIA d   1       9.913  20.497  14.546  0.00  0.00     0.210 HD
ENDBRANCH  42  49
ENDBRANCH  40  42
BRANCH  40  51
ATOM     51  O7  SIA d   1      11.522  20.009  10.500  0.00  0.00    -0.390 OA
ATOM     52  H15 SIA d   1      11.030  20.797  10.300  0.00  0.00     0.210 HD
ENDBRANCH  40  51
ENDBRANCH  23  40
ENDBRANCH  15  16
ENDBRANCH  12  15
ENDBRANCH   5  12
BRANCH   4  53
ATOM     53  O4  SIA d   1       8.722  25.931  14.037  0.00  0.00    -0.390 OA
ATOM     54  H27 SIA d   1       8.222  25.275  13.566  0.00  0.00     0.210 HD
ENDBRANCH   4  53
BRANCH   3  55
ATOM     55  O3  SIA d   1       7.306  28.142  13.140  0.00  0.00    -0.390 OA
ATOM     56  H26 SIA d   1       6.938  27.507  13.743  0.00  0.00     0.210 HD
ENDBRANCH   3  55
BRANCH   1  57
ATOM     57  O4  SIA d   1       7.782  24.393   9.922  0.00  0.00    -0.348 OA
BRANCH  57  58
ATOM     58  C4  SIA d   1       8.411  23.974   8.713  0.00  0.00     0.095 C 
ATOM     59  C3  SIA d   1       8.914  22.549   8.920  0.00  0.00     0.087 C 
ATOM     60  C2  SIA d   1       9.162  21.838   7.595  0.00  0.00     0.086 C 
ATOM     61  H30 SIA d   1       8.169  21.983   9.498  0.00  0.00     0.090 H 
ATOM     62  C1  SIA d   1       7.943  21.960   6.715  0.00  0.00     0.151 C 
ATOM     63  H29 SIA d   1      10.007  22.329   7.089  0.00  0.00     0.084 H 
ATOM     64  O5  SIA d   1       7.709  23.303   6.437  0.00  0.00    -0.349 OA
ATOM     65  H28 SIA d   1       7.073  21.548   7.248  0.00  0.00     0.132 H 
ATOM     66  C5  SIA d   1       7.373  24.099   7.588  0.00  0.00     0.089 C 
ATOM     67  H32 SIA d   1       6.404  23.764   7.986  0.00  0.00     0.090 H 
ATOM     68  H31 SIA d   1       9.267  24.626   8.485  0.00  0.00     0.091 H 
BRANCH  59  69
ATOM     69  O3  SIA d   1      10.138  22.611   9.641  0.00  0.00    -0.391 OA
ATOM     70  H40 SIA d   1      10.467  21.731   9.780  0.00  0.00     0.210 HD
ENDBRANCH  59  69
BRANCH  60  71
ATOM     71  N2  SIA d   1       9.511  20.442   7.812  0.00  0.00    -0.349 N 
ATOM     72  C7  SIA d   1      10.740  19.950   7.612  0.00  0.00     0.214 C 
ATOM     73  O7  SIA d   1      11.682  20.661   7.261  0.00  0.00    -0.274 OA
ATOM     74  H38 SIA d   1       8.796  19.818   8.127  0.00  0.00     0.163 HD
BRANCH  72  75
ATOM     75  C8  SIA d   1      10.902  18.485   7.859  0.00  0.00    -0.003 C 
ATOM     76  H35 SIA d   1      11.945  18.194   7.665  0.00  0.00     0.040 H 
ATOM     77  H36 SIA d   1      10.234  17.924   7.189  0.00  0.00     0.040 H 
ATOM     78  H37 SIA d   1      10.647  18.259   8.905  0.00  0.00     0.040 H 
ENDBRANCH  72  75
ENDBRANCH  60  71
BRANCH  62  79
ATOM     79  O1  SIA d   1       8.126  21.244   5.536  0.00  0.00    -0.369 OA
ATOM     80  H39 SIA d   1       8.872  21.597   5.065  0.00  0.00     0.212 HD
ENDBRANCH  62  79
BRANCH  66  81
ATOM     81  C6  SIA d   1       7.236  25.519   7.085  0.00  0.00     0.043 C 
ATOM     82  H33 SIA d   1       6.950  25.497   6.023  0.00  0.00     0.078 H 
ATOM     83  H34 SIA d   1       8.203  26.032   7.194  0.00  0.00     0.078 H 
BRANCH  81  84
ATOM     84  O6  SIA d   1       6.249  26.233   7.815  0.00  0.00    -0.398 OA
ATOM     85  H41 SIA d   1       6.493  26.259   8.733  0.00  0.00     0.209 HD
ENDBRANCH  81  84
ENDBRANCH  66  81
ENDBRANCH  57  58
ENDBRANCH   1  57
BRANCH   2  86
ATOM     86  O2  SIA d   1       6.589  27.045  10.536  0.00  0.00    -0.388 OA
ATOM     87  H25 SIA d   1       6.134  26.401  10.006  0.00  0.00     0.210 HD
ENDBRANCH   2  86
TORSDOF 24
