REMARK  6 active torsions:
REMARK  status: ('A' for Active; 'I' for Inactive)
REMARK    1  A    between atoms: O5'_1  and  C5'_2 
REMARK    2  A    between atoms: C5'_2  and  C4'_3 
REMARK    3  A    between atoms: C5_15  and  C5M_16 
REMARK    4  A    between atoms: C5_15  and  O5_17 
REMARK    5  A    between atoms: C5_32  and  C5M_33 
REMARK    6  A    between atoms: C3'_36  and  O3'_37 
ROOT
ATOM      1  C4' MOL d   1     -37.859 -23.752   4.553  0.00  0.00     0.087 C 
ATOM      2  O4' MOL d   1     -37.183 -23.603   5.829  0.00  0.00    -0.356 OA
ATOM      3  C3' MOL d   1     -36.784 -24.225   3.577  0.00  0.00     0.081 C 
ATOM      4  O3' MOL d   1     -36.896 -23.721   2.260  0.00  0.00    -0.282 OA
ATOM      5  C2' MOL d   1     -35.472 -23.780   4.198  0.00  0.00     0.003 C 
ATOM      6  C1' MOL d   1     -35.774 -23.471   5.660  0.00  0.00     0.113 C 
ATOM      7  N1  MOL d   1     -35.007 -24.449   6.588  0.00  0.00    -0.293 N 
ATOM      8  C2  MOL d   1     -34.134 -24.015   7.474  0.00  0.00     0.327 C 
ATOM      9  O2  MOL d   1     -33.810 -22.808   7.615  0.00  0.00    -0.247 OA
ATOM     10  N3  MOL d   1     -33.518 -24.970   8.312  0.00  0.00    -0.276 N 
ATOM     11  C4  MOL d   1     -33.765 -26.354   8.263  0.00  0.00     0.262 C 
ATOM     12  O4  MOL d   1     -32.987 -27.117   8.777  0.00  0.00    -0.270 OA
ATOM     13  C5  MOL d   1     -35.019 -26.802   7.533  0.00  0.00     0.161 C 
ATOM     14  C6  MOL d   1     -35.258 -25.912   6.276  0.00  0.00     0.099 C 
ATOM     15  P   MOL d   1     -36.813 -24.765   1.034  0.00  0.00     0.408 P 
ATOM     16  OP2 MOL d   1     -37.592 -25.957   1.440  0.00  0.00    -0.624 OA
ATOM     17  OP1 MOL d   1     -37.187 -24.041  -0.201  0.00  0.00    -0.624 OA
ATOM     18  O5' MOL d   1     -35.281 -25.238   0.989  0.00  0.00    -0.287 OA
ATOM     19  C5' MOL d   1     -34.267 -24.496   0.302  0.00  0.00     0.058 C 
ATOM     20  C4' MOL d   1     -33.086 -25.385  -0.045  0.00  0.00     0.087 C 
ATOM     21  O4' MOL d   1     -32.134 -25.500   1.048  0.00  0.00    -0.356 OA
ATOM     22  C1' MOL d   1     -32.086 -26.835   1.583  0.00  0.00     0.116 C 
ATOM     23  N1  MOL d   1     -32.899 -26.679   2.852  0.00  0.00    -0.280 N 
ATOM     24  C2  MOL d   1     -32.443 -25.854   3.859  0.00  0.00     0.350 A 
ATOM     25  O2  MOL d   1     -31.334 -25.247   3.781  0.00  0.00    -0.244 OA
ATOM     26  N3  MOL d   1     -33.247 -25.670   4.960  0.00  0.00    -0.196 NA
ATOM     27  C4  MOL d   1     -34.429 -26.295   5.026  0.00  0.00     0.073 A 
ATOM     28  C5  MOL d   1     -34.924 -27.179   4.036  0.00  0.00    -0.019 A 
ATOM     29  C6  MOL d   1     -34.108 -27.337   2.944  0.00  0.00    -0.005 A 
ATOM     30  C2' MOL d   1     -32.795 -27.731   0.560  0.00  0.00     0.002 C 
ATOM     31  C3' MOL d   1     -33.436 -26.811  -0.486  0.00  0.00     0.066 C 
ATOM     32  H4  MOL d   1     -38.276 -22.794   4.209  0.00  0.00     0.090 H 
ATOM     33  H5  MOL d   1     -36.816 -25.323   3.520  0.00  0.00     0.088 H 
ATOM     34  H6  MOL d   1     -35.095 -22.881   3.689  0.00  0.00     0.043 H 
ATOM     35  H7  MOL d   1     -34.724 -24.583   4.125  0.00  0.00     0.043 H 
ATOM     36  H8  MOL d   1     -35.468 -22.441   5.894  0.00  0.00     0.118 H 
ATOM     37  H9  MOL d   1     -32.860 -24.639   8.988  0.00  0.00     0.173 HD
ATOM     38  H14 MOL d   1     -36.319 -26.025   6.008  0.00  0.00     0.088 H 
ATOM     39  H15 MOL d   1     -33.922 -23.675   0.947  0.00  0.00     0.079 H 
ATOM     40  H16 MOL d   1     -34.690 -24.081  -0.625  0.00  0.00     0.079 H 
ATOM     41  H17 MOL d   1     -32.574 -24.899  -0.889  0.00  0.00     0.090 H 
ATOM     42  H18 MOL d   1     -31.064 -27.189   1.784  0.00  0.00     0.118 H 
ATOM     43  H22 MOL d   1     -34.421 -27.995   2.134  0.00  0.00     0.112 H 
ATOM     44  H23 MOL d   1     -33.570 -28.331   1.059  0.00  0.00     0.043 H 
ATOM     45  H24 MOL d   1     -32.067 -28.400   0.077  0.00  0.00     0.043 H 
ATOM     46  H25 MOL d   1     -34.528 -26.947  -0.485  0.00  0.00     0.087 H 
ENDROOT
BRANCH   1  47
ATOM     47  C5' MOL d   1     -38.981 -24.741   4.770  0.00  0.00     0.043 C 
ATOM     48  H2  MOL d   1     -39.566 -24.438   5.651  0.00  0.00     0.078 H 
ATOM     49  H3  MOL d   1     -39.632 -24.751   3.883  0.00  0.00     0.078 H 
BRANCH  47  50
ATOM     50  O5' MOL d   1     -38.460 -26.039   4.980  0.00  0.00    -0.398 OA
ATOM     51  H1  MOL d   1     -37.899 -26.034   5.747  0.00  0.00     0.209 HD
ENDBRANCH  47  50
ENDBRANCH   1  47
BRANCH  13  52
ATOM     52  C5M MOL d   1     -36.232 -26.675   8.465  0.00  0.00    -0.037 C 
ATOM     53  H10 MOL d   1     -37.139 -27.000   7.933  0.00  0.00     0.032 H 
ATOM     54  H11 MOL d   1     -36.346 -25.627   8.777  0.00  0.00     0.032 H 
ATOM     55  H12 MOL d   1     -36.081 -27.307   9.352  0.00  0.00     0.032 H 
ENDBRANCH  13  52
BRANCH  13  56
ATOM     56  O5  MOL d   1     -34.879 -28.154   7.081  0.00  0.00    -0.378 OA
ATOM     57  H13 MOL d   1     -34.757 -28.726   7.830  0.00  0.00     0.211 HD
ENDBRANCH  13  56
BRANCH  28  58
ATOM     58  C5M MOL d   1     -36.250 -27.901   4.068  0.00  0.00    -0.048 C 
ATOM     59  H19 MOL d   1     -36.355 -28.515   3.162  0.00  0.00     0.033 H 
ATOM     60  H20 MOL d   1     -37.067 -27.166   4.109  0.00  0.00     0.033 H 
ATOM     61  H21 MOL d   1     -36.294 -28.548   4.957  0.00  0.00     0.033 H 
ENDBRANCH  28  58
BRANCH  31  62
ATOM     62  O3' MOL d   1     -32.942 -27.084  -1.795  0.00  0.00    -0.393 OA
ATOM     63  H26 MOL d   1     -33.358 -26.499  -2.417  0.00  0.00     0.210 HD
ENDBRANCH  31  62
TORSDOF 6
