REMARK  13 active torsions:
REMARK  status: ('A' for Active; 'I' for Inactive)
REMARK    1  A    between atoms: C13_2  and  C14_3 
REMARK    2  A    between atoms: C4_30  and  C13_2 
REMARK    3  A    between atoms: C14_3  and  C18_6 
REMARK    4  A    between atoms: S1_15  and  C20_8 
REMARK    5  A    between atoms: C20_8  and  C21_17 
REMARK    6  A    between atoms: C10_20  and  C6_11 
REMARK    7  A    between atoms: C7_12  and  S1_15 
REMARK    8  A    between atoms: C21_17  and  O3_18 
REMARK    9  A    between atoms: C3_24  and  C24_25 
REMARK   10  A    between atoms: C24_25  and  C25_26 
REMARK   11  A    between atoms: C25_26  and  C26_27 
REMARK   12  A    between atoms: C26_27  and  C27_28 
REMARK   13  A    between atoms: C27_28  and  C28_29 
ROOT
ATOM      1  C5  A50 d   1     -34.060   4.004  -6.527  0.00  0.00    -0.066 A 
ATOM      2  C6  A50 d   1     -33.185   4.506  -7.522  0.00  0.00    -0.025 A 
ATOM      3  C1  A50 d   1     -33.653   4.665  -8.853  0.00  0.00    -0.072 A 
ATOM      4  C23 A50 d   1     -34.960   4.285  -9.233  0.00  0.00    -0.075 A 
ATOM      5  C3  A50 d   1     -35.817   3.752  -8.233  0.00  0.00    -0.052 A 
ATOM      6  C4  A50 d   1     -35.372   3.619  -6.888  0.00  0.00    -0.051 A 
ATOM      7  H11 A50 d   1     -33.727   3.916  -5.499  0.00  0.00     0.085 H 
ATOM      8  H18 A50 d   1     -32.990   5.089  -9.598  0.00  0.00     0.084 H 
ATOM      9  H19 A50 d   1     -35.298   4.397 -10.257  0.00  0.00     0.084 H 
ENDROOT
BRANCH   2  10
ATOM     10  C10 A50 d   1     -31.849   4.957  -7.097  0.00  0.00    -0.026 A 
ATOM     11  C9  A50 d   1     -31.287   4.500  -5.896  0.00  0.00    -0.071 A 
ATOM     12  C8  A50 d   1     -30.009   4.916  -5.447  0.00  0.00    -0.061 A 
ATOM     13  H12 A50 d   1     -31.852   3.802  -5.288  0.00  0.00     0.084 H 
ATOM     14  C7  A50 d   1     -29.358   5.842  -6.276  0.00  0.00     0.059 A 
ATOM     15  H17 A50 d   1     -29.566   4.546  -4.529  0.00  0.00     0.085 H 
ATOM     16  C12 A50 d   1     -29.878   6.337  -7.462  0.00  0.00    -0.061 A 
ATOM     17  C11 A50 d   1     -31.148   5.886  -7.880  0.00  0.00    -0.071 A 
ATOM     18  H1  A50 d   1     -29.322   7.054  -8.055  0.00  0.00     0.085 H 
ATOM     19  H16 A50 d   1     -31.580   6.256  -8.803  0.00  0.00     0.084 H 
BRANCH  14  20
ATOM     20  S1  A50 d   1     -27.791   6.466  -5.707  0.00  0.00     0.177 S 
ATOM     21  O2  A50 d   1     -27.752   7.842  -6.245  0.00  0.00    -0.223 OA
ATOM     22  O1  A50 d   1     -27.753   6.210  -4.258  0.00  0.00    -0.223 OA
BRANCH  20  23
ATOM     23  C20 A50 d   1     -26.366   5.483  -6.335  0.00  0.00     0.052 C 
ATOM     24  H9  A50 d   1     -26.481   4.428  -6.046  0.00  0.00     0.059 H 
ATOM     25  H10 A50 d   1     -25.426   5.877  -5.920  0.00  0.00     0.059 H 
BRANCH  23  26
ATOM     26  C21 A50 d   1     -26.357   5.610  -7.878  0.00  0.00     0.029 C 
ATOM     27  H13 A50 d   1     -25.326   5.500  -8.246  0.00  0.00     0.075 H 
ATOM     28  H14 A50 d   1     -26.745   6.599  -8.164  0.00  0.00     0.075 H 
BRANCH  26  29
ATOM     29  O3  A50 d   1     -27.174   4.599  -8.455  0.00  0.00    -0.400 OA
ATOM     30  H15 A50 d   1     -26.839   3.744  -8.210  0.00  0.00     0.209 HD
ENDBRANCH  26  29
ENDBRANCH  23  26
ENDBRANCH  20  23
ENDBRANCH  14  20
ENDBRANCH   2  10
BRANCH   6  31
ATOM     31  C13 A50 d   1     -36.299   3.066  -5.819  0.00  0.00    -0.035 C 
ATOM     32  H2  A50 d   1     -36.058   3.534  -4.853  0.00  0.00     0.040 H 
ATOM     33  H3  A50 d   1     -37.340   3.296  -6.088  0.00  0.00     0.040 H 
BRANCH  31  34
ATOM     34  C14 A50 d   1     -36.130   1.524  -5.698  0.00  0.00    -0.021 C 
ATOM     35  H4  A50 d   1     -36.332   1.060  -6.675  0.00  0.00     0.042 H 
ATOM     36  H5  A50 d   1     -36.843   1.139  -4.954  0.00  0.00     0.042 H 
BRANCH  34  37
ATOM     37  C18 A50 d   1     -34.739   1.184  -5.269  0.00  0.00     0.034 A 
ATOM     38  C17 A50 d   1     -34.298   1.457  -3.951  0.00  0.00    -0.059 A 
ATOM     39  C16 A50 d   1     -32.969   1.151  -3.586  0.00  0.00    -0.080 A 
ATOM     40  H7  A50 d   1     -34.975   1.897  -3.228  0.00  0.00     0.086 H 
ATOM     41  C15 A50 d   1     -32.132   0.597  -4.575  0.00  0.00    -0.066 A 
ATOM     42  H31 A50 d   1     -32.606   1.335  -2.582  0.00  0.00     0.083 H 
ATOM     43  C19 A50 d   1     -32.638   0.372  -5.861  0.00  0.00     0.002 A 
ATOM     44  H6  A50 d   1     -31.103   0.347  -4.342  0.00  0.00     0.085 H 
ATOM     45  N1  A50 d   1     -33.923   0.658  -6.227  0.00  0.00    -0.266 NA
ATOM     46  H8  A50 d   1     -31.975  -0.052  -6.606  0.00  0.00     0.114 H 
ENDBRANCH  34  37
ENDBRANCH  31  34
ENDBRANCH   6  31
BRANCH   5  47
ATOM     47  C24 A50 d   1     -37.234   3.366  -8.605  0.00  0.00    -0.040 C 
ATOM     48  H20 A50 d   1     -37.589   4.016  -9.418  0.00  0.00     0.040 H 
ATOM     49  H21 A50 d   1     -37.888   3.485  -7.728  0.00  0.00     0.040 H 
BRANCH  47  50
ATOM     50  C25 A50 d   1     -37.266   1.920  -9.065  0.00  0.00    -0.061 C 
ATOM     51  H22 A50 d   1     -36.901   1.259  -8.265  0.00  0.00     0.033 H 
ATOM     52  H23 A50 d   1     -36.640   1.792  -9.961  0.00  0.00     0.033 H 
BRANCH  50  53
ATOM     53  C26 A50 d   1     -38.725   1.600  -9.390  0.00  0.00    -0.065 C 
ATOM     54  H24 A50 d   1     -38.964   1.909 -10.418  0.00  0.00     0.033 H 
ATOM     55  H25 A50 d   1     -39.395   2.116  -8.687  0.00  0.00     0.033 H 
BRANCH  53  56
ATOM     56  C27 A50 d   1     -38.867   0.092  -9.245  0.00  0.00    -0.069 C 
ATOM     57  H26 A50 d   1     -38.759  -0.197  -8.189  0.00  0.00     0.032 H 
ATOM     58  H27 A50 d   1     -38.099  -0.418  -9.845  0.00  0.00     0.032 H 
BRANCH  56  59
ATOM     59  C28 A50 d   1     -40.265  -0.283  -9.752  0.00  0.00    -0.077 C 
ATOM     60  H28 A50 d   1     -40.408  -1.370  -9.664  0.00  0.00     0.027 H 
ATOM     61  H29 A50 d   1     -40.365   0.015 -10.806  0.00  0.00     0.027 H 
ATOM     62  H30 A50 d   1     -41.025   0.237  -9.150  0.00  0.00     0.027 H 
ENDBRANCH  56  59
ENDBRANCH  53  56
ENDBRANCH  50  53
ENDBRANCH  47  50
ENDBRANCH   5  47
TORSDOF 13
