REMARK  12 active torsions:
REMARK  status: ('A' for Active; 'I' for Inactive)
REMARK    1  A    between atoms: C4_30  and  C13_2 
REMARK    2  A    between atoms: C14_3  and  C18_6 
REMARK    3  A    between atoms: S1_15  and  C20_8 
REMARK    4  A    between atoms: C20_8  and  C21_17 
REMARK    5  A    between atoms: C10_20  and  C6_11 
REMARK    6  A    between atoms: C7_12  and  S1_15 
REMARK    7  A    between atoms: C21_17  and  O3_18 
REMARK    8  A    between atoms: C3_24  and  C24_25 
REMARK    9  A    between atoms: C24_25  and  C25_26 
REMARK   10  A    between atoms: C25_26  and  C26_27 
REMARK   11  A    between atoms: C26_27  and  C27_28 
REMARK   12  A    between atoms: C27_28  and  C28_29 
ROOT
ATOM      1  C5  A59 d   1     -34.113   3.825  -6.630  0.00  0.00    -0.062 A 
ATOM      2  C6  A59 d   1     -33.395   4.509  -7.655  0.00  0.00    -0.025 A 
ATOM      3  C1  A59 d   1     -33.966   4.755  -8.901  0.00  0.00    -0.072 A 
ATOM      4  C23 A59 d   1     -35.278   4.272  -9.148  0.00  0.00    -0.075 A 
ATOM      5  C3  A59 d   1     -35.981   3.583  -8.146  0.00  0.00    -0.048 A 
ATOM      6  C4  A59 d   1     -35.417   3.346  -6.886  0.00  0.00    -0.029 A 
ATOM      7  H9  A59 d   1     -33.659   3.673  -5.657  0.00  0.00     0.086 H 
ATOM      8  H16 A59 d   1     -33.422   5.301  -9.663  0.00  0.00     0.084 H 
ATOM      9  H17 A59 d   1     -35.740   4.436 -10.115  0.00  0.00     0.084 H 
ENDROOT
BRANCH   2  10
ATOM     10  C10 A59 d   1     -32.051   5.040  -7.340  0.00  0.00    -0.026 A 
ATOM     11  C9  A59 d   1     -31.533   4.721  -6.087  0.00  0.00    -0.071 A 
ATOM     12  C8  A59 d   1     -30.260   5.168  -5.661  0.00  0.00    -0.061 A 
ATOM     13  H10 A59 d   1     -32.125   4.110  -5.416  0.00  0.00     0.084 H 
ATOM     14  C7  A59 d   1     -29.548   5.998  -6.515  0.00  0.00     0.059 A 
ATOM     15  H15 A59 d   1     -29.855   4.872  -4.700  0.00  0.00     0.085 H 
ATOM     16  C12 A59 d   1     -30.036   6.365  -7.766  0.00  0.00    -0.061 A 
ATOM     17  C11 A59 d   1     -31.320   5.870  -8.211  0.00  0.00    -0.071 A 
ATOM     18  H1  A59 d   1     -29.455   7.020  -8.405  0.00  0.00     0.085 H 
ATOM     19  H14 A59 d   1     -31.709   6.131  -9.189  0.00  0.00     0.084 H 
BRANCH  14  20
ATOM     20  S1  A59 d   1     -27.966   6.573  -5.910  0.00  0.00     0.177 S 
ATOM     21  O2  A59 d   1     -27.896   7.889  -6.463  0.00  0.00    -0.223 OA
ATOM     22  O1  A59 d   1     -27.952   6.260  -4.460  0.00  0.00    -0.223 OA
BRANCH  20  23
ATOM     23  C20 A59 d   1     -26.544   5.528  -6.477  0.00  0.00     0.052 C 
ATOM     24  H7  A59 d   1     -26.697   4.488  -6.152  0.00  0.00     0.059 H 
ATOM     25  H8  A59 d   1     -25.608   5.913  -6.046  0.00  0.00     0.059 H 
BRANCH  23  26
ATOM     26  C21 A59 d   1     -26.467   5.584  -8.012  0.00  0.00     0.029 C 
ATOM     27  H11 A59 d   1     -25.424   5.464  -8.341  0.00  0.00     0.075 H 
ATOM     28  H12 A59 d   1     -26.858   6.546  -8.374  0.00  0.00     0.075 H 
BRANCH  26  29
ATOM     29  O3  A59 d   1     -27.265   4.512  -8.516  0.00  0.00    -0.400 OA
ATOM     30  H13 A59 d   1     -26.923   3.686  -8.194  0.00  0.00     0.209 HD
ENDBRANCH  26  29
ENDBRANCH  23  26
ENDBRANCH  20  23
ENDBRANCH  14  20
ENDBRANCH   2  10
BRANCH   6  31
ATOM     31  C13 A59 d   1     -36.169   2.581  -5.862  0.00  0.00    -0.070 C 
ATOM     32  C14 A59 d   1     -35.675   1.646  -5.004  0.00  0.00    -0.054 C 
ATOM     33  H3  A59 d   1     -36.406   1.164  -4.356  0.00  0.00     0.087 H 
ATOM     34  H2  A59 d   1     -37.235   2.790  -5.788  0.00  0.00     0.084 H 
BRANCH  32  35
ATOM     35  C18 A59 d   1     -34.300   1.209  -4.841  0.00  0.00     0.056 A 
ATOM     36  C17 A59 d   1     -33.669   1.213  -3.594  0.00  0.00    -0.055 A 
ATOM     37  C16 A59 d   1     -32.358   0.781  -3.510  0.00  0.00    -0.079 A 
ATOM     38  H5  A59 d   1     -34.197   1.548  -2.709  0.00  0.00     0.087 H 
ATOM     39  C15 A59 d   1     -31.671   0.327  -4.652  0.00  0.00    -0.066 A 
ATOM     40  H29 A59 d   1     -31.852   0.792  -2.551  0.00  0.00     0.083 H 
ATOM     41  C19 A59 d   1     -32.373   0.375  -5.865  0.00  0.00     0.003 A 
ATOM     42  H4  A59 d   1     -30.653  -0.040  -4.596  0.00  0.00     0.085 H 
ATOM     43  N1  A59 d   1     -33.644   0.789  -5.967  0.00  0.00    -0.261 NA
ATOM     44  H6  A59 d   1     -31.861   0.061  -6.767  0.00  0.00     0.114 H 
ENDBRANCH  32  35
ENDBRANCH   6  31
BRANCH   5  45
ATOM     45  C24 A59 d   1     -37.396   3.111  -8.443  0.00  0.00    -0.040 C 
ATOM     46  H18 A59 d   1     -37.828   3.768  -9.212  0.00  0.00     0.040 H 
ATOM     47  H19 A59 d   1     -37.990   3.187  -7.520  0.00  0.00     0.040 H 
BRANCH  45  48
ATOM     48  C25 A59 d   1     -37.464   1.669  -8.944  0.00  0.00    -0.061 C 
ATOM     49  H20 A59 d   1     -37.142   0.978  -8.151  0.00  0.00     0.033 H 
ATOM     50  H21 A59 d   1     -36.816   1.544  -9.824  0.00  0.00     0.033 H 
BRANCH  48  51
ATOM     51  C26 A59 d   1     -38.938   1.389  -9.326  0.00  0.00    -0.065 C 
ATOM     52  H22 A59 d   1     -39.147   1.757 -10.341  0.00  0.00     0.033 H 
ATOM     53  H23 A59 d   1     -39.618   1.877  -8.612  0.00  0.00     0.033 H 
BRANCH  51  54
ATOM     54  C27 A59 d   1     -39.105  -0.137  -9.266  0.00  0.00    -0.069 C 
ATOM     55  H24 A59 d   1     -38.998  -0.469  -8.223  0.00  0.00     0.032 H 
ATOM     56  H25 A59 d   1     -38.325  -0.608  -9.883  0.00  0.00     0.032 H 
BRANCH  54  57
ATOM     57  C28 A59 d   1     -40.489  -0.565  -9.791  0.00  0.00    -0.077 C 
ATOM     58  H26 A59 d   1     -40.579  -1.660  -9.736  0.00  0.00     0.027 H 
ATOM     59  H27 A59 d   1     -40.602  -0.240 -10.836  0.00  0.00     0.027 H 
ATOM     60  H28 A59 d   1     -41.274  -0.101  -9.176  0.00  0.00     0.027 H 
ENDBRANCH  54  57
ENDBRANCH  51  54
ENDBRANCH  48  51
ENDBRANCH  45  48
ENDBRANCH   5  45
TORSDOF 12
