REMARK  11 active torsions:
REMARK  status: ('A' for Active; 'I' for Inactive)
REMARK    1  A    between atoms: N_1  and  CA_2 
REMARK    2  A    between atoms: CA_2  and  C_3 
REMARK    3  A    between atoms: CA_2  and  CB_6 
REMARK    4  A    between atoms: CB_6  and  CG_7 
REMARK    5  A    between atoms: CG_7  and  SD_8 
REMARK    6  A    between atoms: SD_8  and  CE_9 
REMARK    7  A    between atoms: SD_8  and  C5'_10 
REMARK    8  A    between atoms: C5'_10  and  C4'_11 
REMARK    9  A    between atoms: C3'_13  and  O3'_14 
REMARK   10  A    between atoms: C2'_15  and  O2'_16 
REMARK   11  A    between atoms: C1'_17  and  N9_18 
ROOT
ATOM      1  C4' SAM d   1      46.615  14.083  10.624  0.00  0.00     0.076 C 
ATOM      2  O4' SAM d   1      47.944  13.876  11.167  0.00  0.00    -0.355 OA
ATOM      3  C3' SAM d   1      46.417  15.576  10.680  0.00  0.00     0.090 C 
ATOM      4  C2' SAM d   1      47.824  16.092  10.897  0.00  0.00     0.105 C 
ATOM      5  C1' SAM d   1      48.479  15.057  11.774  0.00  0.00     0.139 C 
ATOM      6  H14 SAM d   1      45.886  13.622  11.307  0.00  0.00     0.088 H 
ATOM      7  H15 SAM d   1      45.976  15.966   9.751  0.00  0.00     0.091 H 
ATOM      8  H17 SAM d   1      48.342  16.145   9.928  0.00  0.00     0.093 H 
ATOM      9  H19 SAM d   1      48.194  15.184  12.829  0.00  0.00     0.122 H 
ENDROOT
BRANCH   1  10
ATOM     10  C5' SAM d   1      46.400  13.415   9.264  0.00  0.00    -0.005 C 
ATOM     11  H12 SAM d   1      47.066  13.922   8.550  0.00  0.00     0.051 H 
ATOM     12  H13 SAM d   1      46.709  12.365   9.371  0.00  0.00     0.051 H 
BRANCH  10  13
ATOM     13  SD  SAM d   1      44.865  13.405   8.578  0.00  0.00    -0.221 SA
BRANCH  13  14
ATOM     14  CG  SAM d   1      43.643  12.525   9.415  0.00  0.00    -0.029 C 
ATOM     15  H7  SAM d   1      42.929  12.158   8.663  0.00  0.00     0.047 H 
ATOM     16  H8  SAM d   1      44.131  11.670   9.905  0.00  0.00     0.047 H 
BRANCH  14  17
ATOM     17  CB  SAM d   1      42.839  13.269  10.486  0.00  0.00    -0.022 C 
ATOM     18  H5  SAM d   1      43.554  13.685  11.210  0.00  0.00     0.037 H 
ATOM     19  H6  SAM d   1      42.301  14.090   9.989  0.00  0.00     0.037 H 
BRANCH  17  20
ATOM     20  CA  SAM d   1      41.804  12.443  11.274  0.00  0.00     0.183 C 
ATOM     21  H4  SAM d   1      41.348  13.096  12.032  0.00  0.00     0.101 H 
BRANCH  20  22
ATOM     22  N   SAM d   1      42.423  11.316  11.929  0.00  0.00    -0.065 N 
ATOM     23  H1  SAM d   1      43.157  11.643  12.538  0.00  0.00     0.275 HD
ATOM     24  H2  SAM d   1      42.813  10.697  11.236  0.00  0.00     0.275 HD
ATOM     25  H3  SAM d   1      41.732  10.821  12.471  0.00  0.00     0.275 HD
ENDBRANCH  20  22
BRANCH  20  26
ATOM     26  C   SAM d   1      40.753  11.912  10.408  0.00  0.00     0.204 C 
ATOM     27  O   SAM d   1      40.813  10.752   9.985  0.00  0.00    -0.646 OA
ATOM     28  OXT SAM d   1      39.908  12.728  10.133  0.00  0.00    -0.646 OA
ENDBRANCH  20  26
ENDBRANCH  17  20
ENDBRANCH  14  17
ENDBRANCH  13  14
BRANCH  13  29
ATOM     29  CE  SAM d   1      45.139  12.269   7.359  0.00  0.00    -0.042 C 
ATOM     30  H9  SAM d   1      45.919  12.642   6.679  0.00  0.00     0.040 H 
ATOM     31  H10 SAM d   1      44.209  12.104   6.795  0.00  0.00     0.040 H 
ATOM     32  H11 SAM d   1      45.468  11.320   7.809  0.00  0.00     0.040 H 
ENDBRANCH  13  29
ENDBRANCH  10  13
ENDBRANCH   1  10
BRANCH   3  33
ATOM     33  O3' SAM d   1      45.605  15.912  11.795  0.00  0.00    -0.390 OA
ATOM     34  H16 SAM d   1      46.029  15.621  12.594  0.00  0.00     0.210 HD
ENDBRANCH   3  33
BRANCH   5  35
ATOM     35  N9  SAM d   1      49.973  14.926  11.648  0.00  0.00    -0.294 N 
ATOM     36  C8  SAM d   1      50.743  15.170  10.560  0.00  0.00     0.071 A 
ATOM     37  N7  SAM d   1      52.034  14.852  10.791  0.00  0.00    -0.236 NA
ATOM     38  H20 SAM d   1      50.368  15.571   9.620  0.00  0.00     0.144 H 
ATOM     39  C5  SAM d   1      52.061  14.400  12.087  0.00  0.00     0.149 A 
ATOM     40  C6  SAM d   1      53.063  13.871  13.004  0.00  0.00     0.155 A 
ATOM     41  C4  SAM d   1      50.724  14.430  12.640  0.00  0.00     0.167 A 
ATOM     42  N6  SAM d   1      54.321  13.785  12.577  0.00  0.00    -0.382 N 
ATOM     43  N1  SAM d   1      52.739  13.475  14.238  0.00  0.00    -0.222 NA
ATOM     44  H21 SAM d   1      55.053  13.415  13.201  0.00  0.00     0.157 HD
ATOM     45  H22 SAM d   1      54.563  14.088  11.623  0.00  0.00     0.157 HD
ATOM     46  C2  SAM d   1      51.444  13.550  14.688  0.00  0.00     0.091 A 
ATOM     47  N3  SAM d   1      50.459  14.008  13.933  0.00  0.00    -0.222 NA
ATOM     48  H23 SAM d   1      51.221  13.223  15.697  0.00  0.00     0.146 H 
ENDBRANCH   5  35
BRANCH   4  49
ATOM     49  O2' SAM d   1      47.892  17.369  11.498  0.00  0.00    -0.388 OA
ATOM     50  H18 SAM d   1      47.473  17.340  12.350  0.00  0.00     0.210 HD
ENDBRANCH   4  49
TORSDOF 11
