REMARK  9 active torsions:
REMARK  status: ('A' for Active; 'I' for Inactive)
REMARK    1  A    between atoms: N_1  and  CA_2 
REMARK    2  A    between atoms: CA_2  and  C_3 
REMARK       I    between atoms: C_3  and  N_5 
REMARK    3  A    between atoms: N_5  and  CA_6 
REMARK    4  A    between atoms: CA_6  and  C_7 
REMARK       I    between atoms: C_7  and  N_9 
REMARK    5  A    between atoms: N_9  and  CA_10 
REMARK    6  A    between atoms: CA_10  and  CB_11 
REMARK    7  A    between atoms: CA_10  and  C_13 
REMARK    8  A    between atoms: CB_11  and  OG_12 
REMARK    9  A    between atoms: OG_12  and  P_16 
ROOT
ATOM      1  C   GLY d   1     -18.013   3.558  81.137  0.00  0.00     0.236 C 
ATOM      2  O   GLY d   1     -19.030   3.567  80.417  0.00  0.00    -0.272 OA
ATOM      3  N   GLY d   1     -17.641   2.560  81.946  0.00  0.00    -0.343 N 
ATOM      4  H9  GLY d   1     -16.865   2.771  82.541  0.00  0.00     0.163 HD
ENDROOT
BRANCH   1   5
ATOM      5  CA  GLY d   1     -17.073   4.755  81.250  0.00  0.00     0.069 C 
ATOM      6  H7  GLY d   1     -16.848   4.856  82.322  0.00  0.00     0.078 H 
ATOM      7  H8  GLY d   1     -16.160   4.468  80.709  0.00  0.00     0.078 H 
BRANCH   5   8
ATOM      8  N   GLY d   1     -17.400   6.096  80.788  0.00  0.00    -0.351 N 
ATOM      9  C   GLY d   1     -18.391   6.841  81.230  0.00  0.00     0.243 C 
ATOM     10  O   GLY d   1     -19.222   6.453  82.059  0.00  0.00    -0.272 OA
ATOM     11  H6  GLY d   1     -16.821   6.486  80.072  0.00  0.00     0.163 HD
BRANCH   9  12
ATOM     12  CA  GLY d   1     -18.540   8.214  80.595  0.00  0.00     0.152 C 
ATOM     13  H4  GLY d   1     -18.513   8.979  81.385  0.00  0.00     0.090 H 
ATOM     14  H5  GLY d   1     -17.706   8.378  79.896  0.00  0.00     0.090 H 
BRANCH  12  15
ATOM     15  N   GLY d   1     -19.795   8.326  79.870  0.00  0.00    -0.071 N 
ATOM     16  H1  GLY d   1     -19.866   9.245  79.461  0.00  0.00     0.274 HD
ATOM     17  H2  GLY d   1     -20.564   8.181  80.505  0.00  0.00     0.274 HD
ATOM     18  H3  GLY d   1     -19.825   7.630  79.141  0.00  0.00     0.274 HD
ENDBRANCH  12  15
ENDBRANCH   9  12
ENDBRANCH   5   8
ENDBRANCH   1   5
BRANCH   3  19
ATOM     19  CA  GLY d   1     -18.182   1.212  82.103  0.00  0.00     0.117 C 
ATOM     20  H10 GLY d   1     -18.267   0.751  81.108  0.00  0.00     0.093 H 
BRANCH  19  21
ATOM     21  CB  GLY d   1     -17.159   0.429  82.964  0.00  0.00     0.060 C 
ATOM     22  H11 GLY d   1     -17.715  -0.067  83.774  0.00  0.00     0.079 H 
ATOM     23  H12 GLY d   1     -16.457   1.159  83.394  0.00  0.00     0.079 H 
BRANCH  21  24
ATOM     24  OG  GLY d   1     -16.390  -0.567  82.295  0.00  0.00    -0.280 OA
BRANCH  24  25
ATOM     25  P   GLY d   1     -14.985  -0.197  81.677  0.00  0.00     0.422 P 
ATOM     26  O1P GLY d   1     -15.197   0.450  80.303  0.00  0.00    -0.617 OA
ATOM     27  O2P GLY d   1     -14.274  -1.538  81.367  0.00  0.00    -0.617 OA
ATOM     28  O3P GLY d   1     -14.216   0.696  82.681  0.00  0.00    -0.617 OA
ENDBRANCH  24  25
ENDBRANCH  21  24
ENDBRANCH  19  21
BRANCH  19  29
ATOM     29  C   GLY d   1     -19.574   1.130  82.798  0.00  0.00     0.198 C 
ATOM     30  O   GLY d   1     -20.191   0.056  82.870  0.00  0.00    -0.646 OA
ATOM     31  OXT GLY d   1     -20.144   2.095  83.333  0.00  0.00    -0.646 OA
ENDBRANCH  19  29
ENDBRANCH   3  19
TORSDOF 9
