REMARK  6 active torsions:
REMARK  status: ('A' for Active; 'I' for Inactive)
REMARK    1  A    between atoms: N1_13  and  C12_3 
REMARK    2  A    between atoms: S_10  and  C13_9 
REMARK    3  A    between atoms: S_10  and  N1_13 
REMARK    4  A    between atoms: N_24  and  C2_25 
REMARK    5  A    between atoms: C2_25  and  C1_26 
REMARK    6  A    between atoms: C1_26  and  C_27 
ROOT
ATOM      1  C11 A8X d   1      27.638 163.130 147.976  0.00  0.00    -0.019 C 
ATOM      2  C12 A8X d   1      26.191 162.878 147.446  0.00  0.00     0.024 C 
ATOM      3  C19 A8X d   1      25.525 164.194 146.937  0.00  0.00    -0.041 C 
ATOM      4  C20 A8X d   1      25.254 165.111 148.149  0.00  0.00    -0.029 C 
ATOM      5  C3  A8X d   1      26.484 165.164 149.041  0.00  0.00    -0.000 A 
ATOM      6  C4  A8X d   1      27.544 164.250 148.983  0.00  0.00    -0.026 A 
ATOM      7  C5  A8X d   1      28.453 164.574 150.016  0.00  0.00    -0.007 A 
ATOM      8  C10 A8X d   1      27.915 165.728 150.699  0.00  0.00     0.025 A 
ATOM      9  C9  A8X d   1      28.591 166.264 151.826  0.00  0.00    -0.061 A 
ATOM     10  C8  A8X d   1      29.782 165.632 152.244  0.00  0.00    -0.081 A 
ATOM     11  C7  A8X d   1      30.319 164.503 151.567  0.00  0.00    -0.082 A 
ATOM     12  C6  A8X d   1      29.670 163.972 150.457  0.00  0.00    -0.071 A 
ATOM     13  N   A8X d   1      26.693 166.130 150.076  0.00  0.00    -0.252 NA
ATOM     14  H1  A8X d   1      28.300 163.421 147.147  0.00  0.00     0.043 H 
ATOM     15  H2  A8X d   1      28.029 162.221 148.456  0.00  0.00     0.043 H 
ATOM     16  H3  A8X d   1      25.595 162.513 148.295  0.00  0.00     0.073 H 
ATOM     17  H9  A8X d   1      24.577 163.958 146.432  0.00  0.00     0.036 H 
ATOM     18  H10 A8X d   1      26.200 164.702 146.232  0.00  0.00     0.036 H 
ATOM     19  H11 A8X d   1      24.404 164.715 148.723  0.00  0.00     0.041 H 
ATOM     20  H12 A8X d   1      25.017 166.125 147.794  0.00  0.00     0.041 H 
ATOM     21  H13 A8X d   1      28.205 167.131 152.349  0.00  0.00     0.086 H 
ATOM     22  H14 A8X d   1      30.305 166.021 153.110  0.00  0.00     0.083 H 
ATOM     23  H15 A8X d   1      31.241 164.053 151.918  0.00  0.00     0.083 H 
ATOM     24  H16 A8X d   1      30.081 163.115 149.936  0.00  0.00     0.084 H 
ENDROOT
BRANCH   2  25
ATOM     25  N1  A8X d   1      26.149 161.867 146.427  0.00  0.00    -0.310 N 
ATOM     26  H8  A8X d   1      26.784 161.967 145.661  0.00  0.00     0.172 HD
BRANCH  25  27
ATOM     27  S   A8X d   1      25.149 160.558 146.406  0.00  0.00     0.259 S 
ATOM     28  O2  A8X d   1      25.133 160.027 147.723  0.00  0.00    -0.201 OA
ATOM     29  O3  A8X d   1      25.624 159.747 145.349  0.00  0.00    -0.201 OA
BRANCH  27  30
ATOM     30  C13 A8X d   1      23.668 161.198 146.081  0.00  0.00     0.079 A 
ATOM     31  C14 A8X d   1      22.829 161.649 147.149  0.00  0.00    -0.058 A 
ATOM     32  C15 A8X d   1      21.604 162.265 146.925  0.00  0.00    -0.044 A 
ATOM     33  H5  A8X d   1      23.162 161.505 148.171  0.00  0.00     0.086 H 
ATOM     34  C16 A8X d   1      21.199 162.421 145.592  0.00  0.00     0.116 A 
ATOM     35  H4  A8X d   1      20.987 162.611 147.747  0.00  0.00     0.088 H 
ATOM     36  F   A8X d   1      20.030 162.974 145.363  0.00  0.00    -0.206 F 
ATOM     37  C17 A8X d   1      21.994 161.969 144.488  0.00  0.00    -0.044 A 
ATOM     38  C18 A8X d   1      23.232 161.352 144.742  0.00  0.00    -0.058 A 
ATOM     39  H6  A8X d   1      21.645 162.101 143.470  0.00  0.00     0.088 H 
ATOM     40  H7  A8X d   1      23.846 160.998 143.922  0.00  0.00     0.086 H 
ENDBRANCH  27  30
ENDBRANCH  25  27
ENDBRANCH   2  25
BRANCH  13  41
ATOM     41  C2  A8X d   1      26.566 167.544 149.626  0.00  0.00    -0.003 C 
ATOM     42  H17 A8X d   1      26.044 167.534 148.658  0.00  0.00     0.057 H 
ATOM     43  H18 A8X d   1      27.584 167.937 149.490  0.00  0.00     0.057 H 
BRANCH  41  44
ATOM     44  C1  A8X d   1      25.834 168.500 150.518  0.00  0.00     0.027 C 
ATOM     45  H19 A8X d   1      25.217 167.953 151.247  0.00  0.00     0.051 H 
ATOM     46  H20 A8X d   1      25.194 169.169 149.924  0.00  0.00     0.051 H 
BRANCH  44  47
ATOM     47  C   A8X d   1      26.905 169.280 151.216  0.00  0.00     0.173 C 
ATOM     48  O   A8X d   1      27.679 170.080 150.726  0.00  0.00    -0.648 OA
ATOM     49  O1  A8X d   1      27.066 169.067 152.515  0.00  0.00    -0.648 OA
ENDBRANCH  44  47
ENDBRANCH  41  44
ENDBRANCH  13  41
TORSDOF 6
