REMARK  4 active torsions:
REMARK  status: ('A' for Active; 'I' for Inactive)
REMARK    1  A    between atoms: N_1  and  CA_2 
REMARK    2  A    between atoms: CA_2  and  C_3 
REMARK    3  A    between atoms: CA_2  and  CB_5 
REMARK    4  A    between atoms: CB_5  and  CG_6 
REMARK       I    between atoms: CG_6  and  ND2_8 
ROOT
ATOM      1  CA  ASN d   1      97.695  32.889  37.637  0.00  0.00     0.190 C 
ATOM      2  H4  ASN d   1      98.773  33.058  37.778  0.00  0.00     0.102 H 
ENDROOT
BRANCH   1   3
ATOM      3  N   ASN d   1      97.520  31.617  36.942  0.00  0.00    -0.065 N 
ATOM      4  H1  ASN d   1      97.962  31.665  36.038  0.00  0.00     0.275 HD
ATOM      5  H2  ASN d   1      96.536  31.430  36.825  0.00  0.00     0.275 HD
ATOM      6  H3  ASN d   1      97.941  30.878  37.483  0.00  0.00     0.275 HD
ENDBRANCH   1   3
BRANCH   1   7
ATOM      7  C   ASN d   1      97.032  32.857  39.026  0.00  0.00     0.205 C 
ATOM      8  O   ASN d   1      96.223  31.964  39.298  0.00  0.00    -0.646 OA
ATOM      9  OXT ASN d   1      97.298  33.701  39.891  0.00  0.00    -0.646 OA
ENDBRANCH   1   7
BRANCH   1  10
ATOM     10  CB  ASN d   1      97.136  34.041  36.786  0.00  0.00     0.045 C 
ATOM     11  H5  ASN d   1      97.724  34.113  35.859  0.00  0.00     0.051 H 
ATOM     12  H6  ASN d   1      97.231  34.978  37.354  0.00  0.00     0.051 H 
BRANCH  10  13
ATOM     13  CG  ASN d   1      95.667  33.836  36.420  0.00  0.00     0.217 C 
ATOM     14  OD1 ASN d   1      94.886  33.345  37.233  0.00  0.00    -0.274 OA
ATOM     15  ND2 ASN d   1      95.286  34.201  35.192  0.00  0.00    -0.370 N 
ATOM     16  H7  ASN d   1      94.334  34.085  34.909  0.00  0.00     0.159 HD
ATOM     17  H8  ASN d   1      95.953  34.590  34.556  0.00  0.00     0.159 HD
ENDBRANCH  10  13
ENDBRANCH   1  10
TORSDOF 4
