REMARK  4 active torsions:
REMARK  status: ('A' for Active; 'I' for Inactive)
REMARK    1  A    between atoms: N_1  and  CA_2 
REMARK    2  A    between atoms: CA_2  and  C_3 
REMARK    3  A    between atoms: CA_2  and  CB_5 
REMARK    4  A    between atoms: CB_5  and  OG_6 
ROOT
ATOM      1  CA  SER d   1       9.544   2.886  17.181  0.00  0.00     0.202 C 
ATOM      2  H4  SER d   1      10.528   3.365  17.292  0.00  0.00     0.104 H 
ENDROOT
BRANCH   1   3
ATOM      3  N   SER d   1       9.014   3.269  15.870  0.00  0.00    -0.063 N 
ATOM      4  H1  SER d   1       8.903   4.270  15.832  0.00  0.00     0.275 HD
ATOM      5  H2  SER d   1       8.120   2.826  15.727  0.00  0.00     0.275 HD
ATOM      6  H3  SER d   1       9.654   2.974  15.149  0.00  0.00     0.275 HD
ENDBRANCH   1   3
BRANCH   1   7
ATOM      7  C   SER d   1       9.743   1.386  17.325  0.00  0.00     0.206 C 
ATOM      8  O   SER d   1       9.256   0.597  16.515  0.00  0.00    -0.646 OA
ATOM      9  OXT SER d   1      10.431   0.938  18.242  0.00  0.00    -0.646 OA
ENDBRANCH   1   7
BRANCH   1  10
ATOM     10  CB  SER d   1       8.638   3.395  18.303  0.00  0.00     0.053 C 
ATOM     11  H5  SER d   1       8.622   4.495  18.275  0.00  0.00     0.077 H 
ATOM     12  H6  SER d   1       9.044   3.058  19.268  0.00  0.00     0.077 H 
BRANCH  10  13
ATOM     13  OG  SER d   1       7.319   2.917  18.173  0.00  0.00    -0.398 OA
ATOM     14  H7  SER d   1       6.958   3.208  17.344  0.00  0.00     0.209 HD
ENDBRANCH  10  13
ENDBRANCH   1  10
TORSDOF 4
