REMARK  22 active torsions:
REMARK  status: ('A' for Active; 'I' for Inactive)
REMARK    1  A    between atoms: C14_1  and  C13_3 
REMARK       I    between atoms: N15_21  and  C14_1 
REMARK    2  A    between atoms: C13_3  and  C12_4 
REMARK    3  A    between atoms: C12_4  and  C11_5 
REMARK    4  A    between atoms: C11_5  and  C10_6 
REMARK    5  A    between atoms: C10_6  and  C02_7 
REMARK    6  A    between atoms: C18_17  and  C19_16 
REMARK    7  A    between atoms: C16_19  and  N15_21 
REMARK    8  A    between atoms: C58_20  and  C59_23 
REMARK    9  A    between atoms: O21_25  and  C20_24 
REMARK   10  A    between atoms: C22_26  and  O21_25 
REMARK   11  A    between atoms: C23_27  and  C22_26 
REMARK       I    between atoms: N24_30  and  C23_27 
REMARK   12  A    between atoms: C34_29  and  C33_32 
REMARK       I    between atoms: N36_43  and  C34_29 
REMARK   13  A    between atoms: C25_36  and  N24_30 
REMARK   14  A    between atoms: C33_32  and  C25_36 
REMARK   15  A    between atoms: C33_32  and  O56_37 
REMARK   16  A    between atoms: C26_34  and  C27_33 
REMARK   17  A    between atoms: C25_36  and  C26_34 
REMARK   18  A    between atoms: C38_42  and  C37_45 
REMARK       I    between atoms: N39_51  and  C38_42 
REMARK   19  A    between atoms: C51_46  and  C52_48 
REMARK   20  A    between atoms: C51_46  and  C53_49 
REMARK   21  A    between atoms: C40_53  and  N39_51 
REMARK   22  A    between atoms: C48_57  and  O49_52 
ROOT
ATOM      1  C25 B0F d   1      14.951  22.454  17.568  0.00  0.00     0.049 C 
ATOM      2  H32 B0F d   1      15.969  22.139  17.293  0.00  0.00     0.077 H 
ENDROOT
BRANCH   1   3
ATOM      3  N24 B0F d   1      14.192  21.310  17.994  0.00  0.00    -0.351 N 
ATOM      4  C23 B0F d   1      14.872  20.117  18.346  0.00  0.00     0.242 C 
ATOM      5  O57 B0F d   1      16.084  19.999  18.285  0.00  0.00    -0.271 OA
ATOM      6  H27 B0F d   1      13.194  21.355  18.042  0.00  0.00     0.163 HD
BRANCH   4   7
ATOM      7  C22 B0F d   1      14.006  18.946  18.790  0.00  0.00     0.099 C 
ATOM      8  H25 B0F d   1      13.855  18.252  17.950  0.00  0.00     0.089 H 
ATOM      9  H26 B0F d   1      14.491  18.415  19.622  0.00  0.00     0.089 H 
BRANCH   7  10
ATOM     10  O21 B0F d   1      12.745  19.476  19.218  0.00  0.00    -0.341 OA
BRANCH  10  11
ATOM     11  C20 B0F d   1      11.777  18.440  19.277  0.00  0.00     0.081 A 
ATOM     12  C18 B0F d   1      11.669  17.639  20.432  0.00  0.00    -0.026 A 
ATOM     13  C17 B0F d   1      10.734  16.587  20.440  0.00  0.00    -0.049 A 
ATOM     14  C16 B0F d   1       9.898  16.400  19.347  0.00  0.00     0.035 A 
ATOM     15  H19 B0F d   1      10.667  15.925  21.296  0.00  0.00     0.087 H 
ATOM     16  C60 B0F d   1       9.958  17.232  18.206  0.00  0.00    -0.049 A 
ATOM     17  C58 B0F d   1      10.952  18.250  18.164  0.00  0.00    -0.026 A 
ATOM     18  H21 B0F d   1       9.264  17.098  17.384  0.00  0.00     0.087 H 
BRANCH  12  19
ATOM     19  C19 B0F d   1      12.537  17.889  21.660  0.00  0.00    -0.049 C 
ATOM     20  H16 B0F d   1      12.290  17.153  22.439  0.00  0.00     0.033 H 
ATOM     21  H17 B0F d   1      12.350  18.904  22.041  0.00  0.00     0.033 H 
ATOM     22  H18 B0F d   1      13.598  17.790  21.386  0.00  0.00     0.033 H 
ENDBRANCH  12  19
BRANCH  14  23
ATOM     23  N15 B0F d   1       8.782  15.469  19.505  0.00  0.00    -0.327 N 
ATOM     24  C14 B0F d   1       8.212  14.749  18.397  0.00  0.00     0.222 C 
ATOM     25  O61 B0F d   1       8.639  14.878  17.276  0.00  0.00    -0.273 OA
ATOM     26  H20 B0F d   1       8.400  15.327  20.418  0.00  0.00     0.169 HD
BRANCH  24  27
ATOM     27  C13 B0F d   1       7.012  13.785  18.678  0.00  0.00     0.010 C 
ATOM     28  H1  B0F d   1       6.461  14.135  19.563  0.00  0.00     0.047 H 
ATOM     29  H2  B0F d   1       7.394  12.770  18.861  0.00  0.00     0.047 H 
BRANCH  27  30
ATOM     30  C12 B0F d   1       6.070  13.765  17.465  0.00  0.00    -0.057 C 
ATOM     31  H3  B0F d   1       6.046  12.750  17.041  0.00  0.00     0.033 H 
ATOM     32  H4  B0F d   1       6.440  14.471  16.707  0.00  0.00     0.033 H 
BRANCH  30  33
ATOM     33  C11 B0F d   1       4.644  14.173  17.887  0.00  0.00    -0.064 C 
ATOM     34  H5  B0F d   1       4.685  14.707  18.848  0.00  0.00     0.033 H 
ATOM     35  H6  B0F d   1       4.021  13.272  17.994  0.00  0.00     0.033 H 
BRANCH  33  36
ATOM     36  C10 B0F d   1       4.040  15.085  16.824  0.00  0.00    -0.051 C 
ATOM     37  H7  B0F d   1       3.615  14.471  16.016  0.00  0.00     0.034 H 
ATOM     38  H8  B0F d   1       4.825  15.737  16.415  0.00  0.00     0.034 H 
BRANCH  36  39
ATOM     39  C02 B0F d   1       2.893  15.980  17.464  0.00  0.00     0.012 A 
ATOM     40  S01 B0F d   1       1.439  15.244  17.265  0.00  0.00    -0.160 SA
ATOM     41  C09 B0F d   1       0.515  16.336  16.417  0.00  0.00    -0.002 A 
ATOM     42  C04 B0F d   1       1.451  17.592  16.143  0.00  0.00     0.042 A 
ATOM     43  H10 B0F d   1      -0.361  16.636  17.011  0.00  0.00     0.052 H 
ATOM     44  H11 B0F d   1       0.181  15.895  15.466  0.00  0.00     0.052 H 
ATOM     45  N05 B0F d   1       1.599  17.770  14.815  0.00  0.00    -0.336 N 
ATOM     46  C03 B0F d   1       2.857  17.352  16.773  0.00  0.00     0.046 A 
ATOM     47  H12 B0F d   1       0.996  18.490  16.587  0.00  0.00     0.077 H 
ATOM     48  C06 B0F d   1       3.065  17.661  14.502  0.00  0.00     0.316 A 
ATOM     49  H13 B0F d   1       0.866  17.943  14.157  0.00  0.00     0.164 HD
ATOM     50  O08 B0F d   1       3.572  17.767  13.408  0.00  0.00    -0.247 OA
ATOM     51  N07 B0F d   1       3.784  17.397  15.789  0.00  0.00    -0.335 N 
ATOM     52  H14 B0F d   1       4.770  17.276  15.901  0.00  0.00     0.164 HD
ATOM     53  H15 B0F d   1       3.068  18.138  17.514  0.00  0.00     0.077 H 
ATOM     54  H9  B0F d   1       3.092  16.115  18.537  0.00  0.00     0.059 H 
ENDBRANCH  36  39
ENDBRANCH  33  36
ENDBRANCH  30  33
ENDBRANCH  27  30
ENDBRANCH  24  27
ENDBRANCH  14  23
BRANCH  17  55
ATOM     55  C59 B0F d   1      11.067  19.164  16.949  0.00  0.00    -0.049 C 
ATOM     56  H22 B0F d   1      10.338  18.853  16.186  0.00  0.00     0.033 H 
ATOM     57  H23 B0F d   1      12.083  19.096  16.534  0.00  0.00     0.033 H 
ATOM     58  H24 B0F d   1      10.862  20.202  17.250  0.00  0.00     0.033 H 
ENDBRANCH  17  55
ENDBRANCH  10  11
ENDBRANCH   7  10
ENDBRANCH   4   7
ENDBRANCH   1   3
BRANCH   1  59
ATOM     59  C33 B0F d   1      15.019  23.414  18.730  0.00  0.00     0.132 C 
ATOM     60  H28 B0F d   1      15.006  22.838  19.667  0.00  0.00     0.101 H 
BRANCH  59  61
ATOM     61  C34 B0F d   1      16.317  24.230  18.641  0.00  0.00     0.252 C 
ATOM     62  O35 B0F d   1      16.428  25.273  18.023  0.00  0.00    -0.270 OA
ATOM     63  N36 B0F d   1      17.452  23.691  19.333  0.00  0.00    -0.326 N 
ATOM     64  C37 B0F d   1      18.777  24.501  19.296  0.00  0.00     0.108 C 
ATOM     65  C55 B0F d   1      17.579  22.481  20.172  0.00  0.00     0.040 C 
ATOM     66  C51 B0F d   1      19.515  23.892  20.487  0.00  0.00     0.032 C 
ATOM     67  H38 B0F d   1      18.582  25.565  19.497  0.00  0.00     0.090 H 
ATOM     68  S54 B0F d   1      19.145  22.236  20.567  0.00  0.00    -0.137 SA
ATOM     69  H39 B0F d   1      17.204  21.610  19.614  0.00  0.00     0.081 H 
ATOM     70  H40 B0F d   1      16.988  22.611  21.090  0.00  0.00     0.081 H 
BRANCH  64  71
ATOM     71  C38 B0F d   1      19.401  24.425  18.039  0.00  0.00     0.242 C 
ATOM     72  O50 B0F d   1      19.417  23.472  17.289  0.00  0.00    -0.271 OA
ATOM     73  N39 B0F d   1      20.083  25.650  17.702  0.00  0.00    -0.348 N 
ATOM     74  H47 B0F d   1      19.957  26.439  18.304  0.00  0.00     0.163 HD
BRANCH  73  75
ATOM     75  C40 B0F d   1      20.905  25.800  16.590  0.00  0.00     0.063 C 
ATOM     76  C41 B0F d   1      20.322  26.441  15.420  0.00  0.00    -0.027 C 
ATOM     77  C46 B0F d   1      19.006  26.105  14.762  0.00  0.00    -0.074 C 
ATOM     78  C42 B0F d   1      21.254  27.252  14.828  0.00  0.00    -0.047 C 
ATOM     79  C45 B0F d   1      18.657  26.826  13.537  0.00  0.00    -0.082 C 
ATOM     80  H50 B0F d   1      18.343  25.357  15.181  0.00  0.00     0.084 H 
ATOM     81  C44 B0F d   1      19.602  27.772  12.948  0.00  0.00    -0.082 C 
ATOM     82  H51 B0F d   1      17.695  26.658  13.066  0.00  0.00     0.083 H 
ATOM     83  C43 B0F d   1      20.915  28.024  13.566  0.00  0.00    -0.076 C 
ATOM     84  H54 B0F d   1      19.332  28.298  12.040  0.00  0.00     0.083 H 
ATOM     85  H53 B0F d   1      21.613  28.734  13.136  0.00  0.00     0.084 H 
ATOM     86  C47 B0F d   1      22.504  27.376  15.619  0.00  0.00    -0.014 C 
ATOM     87  C48 B0F d   1      21.998  26.795  16.942  0.00  0.00     0.063 C 
ATOM     88  H55 B0F d   1      23.325  26.780  15.192  0.00  0.00     0.044 H 
ATOM     89  H56 B0F d   1      22.826  28.423  15.723  0.00  0.00     0.044 H 
ATOM     90  H52 B0F d   1      22.820  26.278  17.459  0.00  0.00     0.087 H 
ATOM     91  H49 B0F d   1      21.315  24.816  16.318  0.00  0.00     0.084 H 
BRANCH  87  92
ATOM     92  O49 B0F d   1      21.502  27.805  17.774  0.00  0.00    -0.393 OA
ATOM     93  H48 B0F d   1      22.201  28.415  17.981  0.00  0.00     0.210 HD
ENDBRANCH  87  92
ENDBRANCH  73  75
ENDBRANCH  64  71
BRANCH  66  94
ATOM     94  C52 B0F d   1      19.004  24.672  21.765  0.00  0.00    -0.058 C 
ATOM     95  H41 B0F d   1      19.504  24.275  22.661  0.00  0.00     0.029 H 
ATOM     96  H42 B0F d   1      17.916  24.541  21.864  0.00  0.00     0.029 H 
ATOM     97  H43 B0F d   1      19.237  25.742  21.659  0.00  0.00     0.029 H 
ENDBRANCH  66  94
BRANCH  66  98
ATOM     98  C53 B0F d   1      21.001  24.153  20.321  0.00  0.00    -0.058 C 
ATOM     99  H44 B0F d   1      21.371  23.616  19.435  0.00  0.00     0.029 H 
ATOM    100  H45 B0F d   1      21.537  23.800  21.214  0.00  0.00     0.029 H 
ATOM    101  H46 B0F d   1      21.172  25.232  20.194  0.00  0.00     0.029 H 
ENDBRANCH  66  98
ENDBRANCH  59  61
BRANCH  59 102
ATOM    102  O56 B0F d   1      13.962  24.312  18.733  0.00  0.00    -0.384 OA
ATOM    103  H33 B0F d   1      14.045  24.895  19.479  0.00  0.00     0.210 HD
ENDBRANCH  59 102
ENDBRANCH   1  59
BRANCH   1 104
ATOM    104  C26 B0F d   1      14.296  23.106  16.363  0.00  0.00    -0.019 C 
ATOM    105  H29 B0F d   1      13.315  23.512  16.650  0.00  0.00     0.043 H 
ATOM    106  H30 B0F d   1      14.935  23.920  15.991  0.00  0.00     0.043 H 
BRANCH 104 107
ATOM    107  C27 B0F d   1      14.113  22.032  15.248  0.00  0.00    -0.056 A 
ATOM    108  C28 B0F d   1      15.227  21.551  14.514  0.00  0.00    -0.077 A 
ATOM    109  C29 B0F d   1      15.032  20.553  13.544  0.00  0.00    -0.082 A 
ATOM    110  H34 B0F d   1      16.218  21.949  14.699  0.00  0.00     0.084 H 
ATOM    111  C30 B0F d   1      13.755  20.038  13.296  0.00  0.00    -0.083 A 
ATOM    112  H36 B0F d   1      15.880  20.178  12.982  0.00  0.00     0.083 H 
ATOM    113  C31 B0F d   1      12.643  20.524  14.003  0.00  0.00    -0.082 A 
ATOM    114  H31 B0F d   1      13.623  19.259  12.554  0.00  0.00     0.083 H 
ATOM    115  C32 B0F d   1      12.840  21.528  14.987  0.00  0.00    -0.077 A 
ATOM    116  H37 B0F d   1      11.650  20.139  13.800  0.00  0.00     0.083 H 
ATOM    117  H35 B0F d   1      11.990  21.907  15.542  0.00  0.00     0.084 H 
ENDBRANCH 104 107
ENDBRANCH   1 104
TORSDOF 22
