REMARK  8 active torsions:
REMARK  status: ('A' for Active; 'I' for Inactive)
REMARK    1  A    between atoms: P13_1  and  O16_4 
REMARK    2  A    between atoms: O29_12  and  P13_1 
REMARK    3  A    between atoms: O16_4  and  P17_5 
REMARK    4  A    between atoms: C30_13  and  C21_9 
REMARK    5  A    between atoms: C28_11  and  C27_10 
REMARK    6  A    between atoms: C28_11  and  O29_12 
REMARK    7  A    between atoms: C30_13  and  C31_14 
REMARK    8  A    between atoms: C31_14  and  O33_15 
ROOT
ATOM      1  C27 H6P d   1     -86.380 -68.361 -19.486  0.00  0.00    -0.076 C 
ATOM      2  C30 H6P d   1     -86.674 -68.940 -20.637  0.00  0.00    -0.062 C 
ATOM      3  H4  H6P d   1     -86.866 -68.728 -18.583  0.00  0.00     0.080 H 
ENDROOT
BRANCH   1   4
ATOM      4  C28 H6P d   1     -85.390 -67.199 -19.358  0.00  0.00     0.047 C 
ATOM      5  H5  H6P d   1     -84.770 -67.143 -20.265  0.00  0.00     0.081 H 
ATOM      6  H6  H6P d   1     -84.745 -67.361 -18.482  0.00  0.00     0.081 H 
BRANCH   4   7
ATOM      7  O29 H6P d   1     -86.104 -65.992 -19.201  0.00  0.00    -0.286 OA
BRANCH   7   8
ATOM      8  P13 H6P d   1     -85.239 -64.602 -19.239  0.00  0.00     0.418 P 
ATOM      9  O14 H6P d   1     -84.473 -64.590 -20.542  0.00  0.00    -0.624 OA
ATOM     10  O15 H6P d   1     -86.167 -63.420 -19.131  0.00  0.00    -0.624 OA
BRANCH   8  11
ATOM     11  O16 H6P d   1     -84.166 -64.613 -18.007  0.00  0.00    -0.173 OA
BRANCH  11  12
ATOM     12  P17 H6P d   1     -84.435 -64.820 -16.400  0.00  0.00     0.431 P 
ATOM     13  O18 H6P d   1     -84.035 -63.543 -15.725  0.00  0.00    -0.616 OA
ATOM     14  O19 H6P d   1     -85.870 -65.221 -16.217  0.00  0.00    -0.616 OA
ATOM     15  O20 H6P d   1     -83.508 -65.960 -16.078  0.00  0.00    -0.616 OA
ENDBRANCH  11  12
ENDBRANCH   8  11
ENDBRANCH   7   8
ENDBRANCH   4   7
ENDBRANCH   1   4
BRANCH   2  16
ATOM     16  C21 H6P d   1     -86.029 -68.495 -21.947  0.00  0.00    -0.053 C 
ATOM     17  H1  H6P d   1     -85.332 -67.667 -21.750  0.00  0.00     0.033 H 
ATOM     18  H2  H6P d   1     -86.810 -68.158 -22.645  0.00  0.00     0.033 H 
ATOM     19  H3  H6P d   1     -85.480 -69.339 -22.391  0.00  0.00     0.033 H 
ENDBRANCH   2  16
BRANCH   2  20
ATOM     20  C31 H6P d   1     -87.685 -70.089 -20.684  0.00  0.00     0.036 C 
ATOM     21  H7  H6P d   1     -87.277 -70.900 -21.306  0.00  0.00     0.081 H 
ATOM     22  H8  H6P d   1     -88.623 -69.723 -21.127  0.00  0.00     0.081 H 
BRANCH  20  23
ATOM     23  O33 H6P d   1     -87.951 -70.588 -19.400  0.00  0.00    -0.397 OA
ATOM     24  H9  H6P d   1     -88.308 -69.893 -18.859  0.00  0.00     0.209 HD
ENDBRANCH  20  23
ENDBRANCH   2  20
TORSDOF 8
