REMARK  8 active torsions:
REMARK  status: ('A' for Active; 'I' for Inactive)
REMARK    1  A    between atoms: C10_4  and  C1_20 
REMARK    2  A    between atoms: C12_6  and  C15_7 
REMARK    3  A    between atoms: C17_8  and  C21_9 
REMARK    4  A    between atoms: C22_13  and  C23_14 
REMARK    5  A    between atoms: C4_23  and  S1_26 
REMARK    6  A    between atoms: S1_26  and  C13_29 
REMARK    7  A    between atoms: C13_29  and  C14_30 
REMARK    8  A    between atoms: C14_30  and  O3_31 
ROOT
ATOM      1  F1  XAF d   1     -32.524   5.861  -8.963  0.00  0.00    -0.205 F 
ATOM      2  C9  XAF d   1     -32.752   4.576  -8.643  0.00  0.00     0.127 A 
ATOM      3  C8  XAF d   1     -33.867   3.877  -9.185  0.00  0.00    -0.044 A 
ATOM      4  C10 XAF d   1     -31.886   3.927  -7.753  0.00  0.00     0.013 A 
ATOM      5  C11 XAF d   1     -32.105   2.558  -7.458  0.00  0.00    -0.058 A 
ATOM      6  C12 XAF d   1     -33.229   1.811  -7.954  0.00  0.00    -0.021 A 
ATOM      7  C7  XAF d   1     -34.066   2.520  -8.851  0.00  0.00    -0.069 A 
ATOM      8  H1  XAF d   1     -34.558   4.383  -9.849  0.00  0.00     0.088 H 
ATOM      9  H2  XAF d   1     -31.388   2.048  -6.825  0.00  0.00     0.086 H 
ATOM     10  H11 XAF d   1     -34.900   1.995  -9.303  0.00  0.00     0.085 H 
ENDROOT
BRANCH   4  11
ATOM     11  C1  XAF d   1     -30.664   4.627  -7.201  0.00  0.00    -0.023 A 
ATOM     12  C6  XAF d   1     -29.852   5.518  -7.986  0.00  0.00    -0.071 A 
ATOM     13  C5  XAF d   1     -28.649   6.061  -7.414  0.00  0.00    -0.061 A 
ATOM     14  H12 XAF d   1     -30.143   5.777  -8.997  0.00  0.00     0.084 H 
ATOM     15  C4  XAF d   1     -28.328   5.696  -6.129  0.00  0.00     0.059 A 
ATOM     16  H13 XAF d   1     -28.016   6.736  -7.979  0.00  0.00     0.085 H 
ATOM     17  C3  XAF d   1     -29.068   4.824  -5.319  0.00  0.00    -0.061 A 
ATOM     18  C2  XAF d   1     -30.231   4.239  -5.912  0.00  0.00    -0.071 A 
ATOM     19  H14 XAF d   1     -28.775   4.605  -4.299  0.00  0.00     0.085 H 
ATOM     20  H15 XAF d   1     -30.788   3.487  -5.365  0.00  0.00     0.084 H 
BRANCH  15  21
ATOM     21  S1  XAF d   1     -26.803   6.370  -5.474  0.00  0.00     0.177 S 
ATOM     22  O1  XAF d   1     -26.730   7.642  -6.153  0.00  0.00    -0.223 OA
ATOM     23  O2  XAF d   1     -26.809   6.161  -4.005  0.00  0.00    -0.223 OA
BRANCH  21  24
ATOM     24  C13 XAF d   1     -25.422   5.249  -6.014  0.00  0.00     0.052 C 
ATOM     25  H16 XAF d   1     -25.696   4.210  -5.778  0.00  0.00     0.059 H 
ATOM     26  H17 XAF d   1     -24.509   5.521  -5.464  0.00  0.00     0.059 H 
BRANCH  24  27
ATOM     27  C14 XAF d   1     -25.141   5.357  -7.530  0.00  0.00     0.029 C 
ATOM     28  H18 XAF d   1     -24.084   5.136  -7.739  0.00  0.00     0.075 H 
ATOM     29  H19 XAF d   1     -25.383   6.367  -7.892  0.00  0.00     0.075 H 
BRANCH  27  30
ATOM     30  O3  XAF d   1     -25.983   4.391  -8.157  0.00  0.00    -0.400 OA
ATOM     31  H20 XAF d   1     -25.769   3.526  -7.829  0.00  0.00     0.209 HD
ENDBRANCH  27  30
ENDBRANCH  24  27
ENDBRANCH  21  24
ENDBRANCH  15  21
ENDBRANCH   4  11
BRANCH   6  32
ATOM     32  C15 XAF d   1     -33.373   0.368  -7.635  0.00  0.00     0.024 A 
ATOM     33  C17 XAF d   1     -33.113  -0.341  -6.424  0.00  0.00     0.091 A 
ATOM     34  N2  XAF d   1     -33.289  -1.660  -6.578  0.00  0.00    -0.275 N 
ATOM     35  N1  XAF d   1     -33.596  -1.866  -7.892  0.00  0.00    -0.186 NA
ATOM     36  H9  XAF d   1     -33.208  -2.380  -5.846  0.00  0.00     0.189 HD
ATOM     37  C16 XAF d   1     -33.658  -0.651  -8.539  0.00  0.00     0.035 A 
ATOM     38  H10 XAF d   1     -33.893  -0.510  -9.593  0.00  0.00     0.118 H 
BRANCH  33  39
ATOM     39  C21 XAF d   1     -32.784   0.247  -5.089  0.00  0.00     0.086 A 
ATOM     40  C20 XAF d   1     -33.850   0.493  -4.182  0.00  0.00    -0.053 A 
ATOM     41  C19 XAF d   1     -33.606   1.047  -2.925  0.00  0.00    -0.079 A 
ATOM     42  H3  XAF d   1     -34.866   0.247  -4.470  0.00  0.00     0.087 H 
ATOM     43  C18 XAF d   1     -32.272   1.342  -2.630  0.00  0.00    -0.059 A 
ATOM     44  H4  XAF d   1     -34.405   1.238  -2.218  0.00  0.00     0.083 H 
ATOM     45  C22 XAF d   1     -31.270   1.080  -3.548  0.00  0.00     0.031 A 
ATOM     46  H8  XAF d   1     -32.019   1.781  -1.671  0.00  0.00     0.086 H 
ATOM     47  N3  XAF d   1     -31.507   0.548  -4.780  0.00  0.00    -0.252 NA
BRANCH  45  48
ATOM     48  C23 XAF d   1     -29.841   1.413  -3.191  0.00  0.00    -0.035 C 
ATOM     49  H5  XAF d   1     -29.805   1.831  -2.174  0.00  0.00     0.035 H 
ATOM     50  H6  XAF d   1     -29.447   2.151  -3.905  0.00  0.00     0.035 H 
ATOM     51  H7  XAF d   1     -29.230   0.499  -3.234  0.00  0.00     0.035 H 
ENDBRANCH  45  48
ENDBRANCH  33  39
ENDBRANCH   6  32
TORSDOF 8
