REMARK  11 active torsions:
REMARK  status: ('A' for Active; 'I' for Inactive)
REMARK    1  A    between atoms: SAG_38  and  CAC_3 
REMARK    2  A    between atoms: CAF_6  and  CAH_7 
REMARK    3  A    between atoms: CAH_7  and  CAI_8 
REMARK       I    between atoms: CAI_8  and  NAJ_33 
REMARK    4  A    between atoms: NAJ_33  and  CAK_9 
REMARK    5  A    between atoms: CAN_12  and  CAQ_15 
REMARK    6  A    between atoms: CAT_18  and  CAX_21 
REMARK    7  A    between atoms: CAX_21  and  CAY_22 
REMARK    8  A    between atoms: CAX_21  and  CAZ_23 
REMARK    9  A    between atoms: CAX_21  and  OBA_34 
REMARK   10  A    between atoms: CBJ_24  and  CBK_25 
REMARK   11  A    between atoms: CBJ_24  and  SAG_38 
ROOT
ATOM      1  CAK B6L d   1      30.265  -7.189  -3.802  0.00  0.00     0.034 A 
ATOM      2  CAL B6L d   1      30.513  -7.970  -2.690  0.00  0.00    -0.056 A 
ATOM      3  CAM B6L d   1      31.425  -9.012  -2.757  0.00  0.00    -0.070 A 
ATOM      4  CAN B6L d   1      32.071  -9.243  -3.954  0.00  0.00    -0.023 A 
ATOM      5  CAO B6L d   1      31.835  -8.461  -5.074  0.00  0.00    -0.070 A 
ATOM      6  CAP B6L d   1      30.909  -7.428  -5.011  0.00  0.00    -0.056 A 
ATOM      7  H7  B6L d   1      29.992  -7.767  -1.761  0.00  0.00     0.086 H 
ATOM      8  H8  B6L d   1      31.626  -9.630  -1.890  0.00  0.00     0.084 H 
ATOM      9  H9  B6L d   1      32.371  -8.655  -5.996  0.00  0.00     0.084 H 
ATOM     10  H10 B6L d   1      30.693  -6.822  -5.884  0.00  0.00     0.086 H 
ENDROOT
BRANCH   1  11
ATOM     11  NAJ B6L d   1      29.282  -6.139  -3.632  0.00  0.00    -0.327 N 
ATOM     12  CAI B6L d   1      29.006  -5.115  -4.613  0.00  0.00     0.226 C 
ATOM     13  OBL B6L d   1      29.615  -5.016  -5.623  0.00  0.00    -0.273 OA
ATOM     14  H19 B6L d   1      28.760  -6.122  -2.779  0.00  0.00     0.169 HD
BRANCH  12  15
ATOM     15  CAH B6L d   1      27.920  -4.104  -4.252  0.00  0.00     0.033 C 
ATOM     16  H5  B6L d   1      27.394  -3.746  -5.149  0.00  0.00     0.054 H 
ATOM     17  H6  B6L d   1      27.193  -4.534  -3.547  0.00  0.00     0.054 H 
BRANCH  15  18
ATOM     18  CAF B6L d   1      28.721  -2.993  -3.605  0.00  0.00    -0.049 A 
ATOM     19  CAA B6L d   1      28.903  -1.821  -4.304  0.00  0.00    -0.075 A 
ATOM     20  CAB B6L d   1      29.655  -0.803  -3.732  0.00  0.00    -0.062 A 
ATOM     21  H1  B6L d   1      28.465  -1.694  -5.288  0.00  0.00     0.084 H 
ATOM     22  CAC B6L d   1      30.224  -0.983  -2.485  0.00  0.00     0.059 A 
ATOM     23  H2  B6L d   1      29.796   0.132  -4.263  0.00  0.00     0.085 H 
ATOM     24  CAD B6L d   1      30.063  -2.169  -1.787  0.00  0.00    -0.062 A 
ATOM     25  CAE B6L d   1      29.303  -3.184  -2.362  0.00  0.00    -0.075 A 
ATOM     26  H3  B6L d   1      30.520  -2.304  -0.813  0.00  0.00     0.085 H 
ATOM     27  H4  B6L d   1      29.167  -4.123  -1.838  0.00  0.00     0.084 H 
BRANCH  22  28
ATOM     28  SAG B6L d   1      31.196   0.390  -1.829  0.00  0.00     0.175 S 
ATOM     29  OBH B6L d   1      31.544   0.141  -0.250  0.00  0.00    -0.223 OA
ATOM     30  OBI B6L d   1      30.355   1.766  -2.120  0.00  0.00    -0.223 OA
BRANCH  28  31
ATOM     31  CBJ B6L d   1      32.794   0.493  -2.678  0.00  0.00     0.030 C 
ATOM     32  H14 B6L d   1      32.637   0.758  -3.734  0.00  0.00     0.056 H 
ATOM     33  H15 B6L d   1      33.422   1.258  -2.197  0.00  0.00     0.056 H 
BRANCH  31  34
ATOM     34  CBK B6L d   1      33.479  -0.873  -2.584  0.00  0.00    -0.064 C 
ATOM     35  H16 B6L d   1      34.453  -0.831  -3.095  0.00  0.00     0.028 H 
ATOM     36  H17 B6L d   1      32.846  -1.634  -3.063  0.00  0.00     0.028 H 
ATOM     37  H18 B6L d   1      33.631  -1.135  -1.526  0.00  0.00     0.028 H 
ENDBRANCH  31  34
ENDBRANCH  28  31
ENDBRANCH  22  28
ENDBRANCH  15  18
ENDBRANCH  12  15
ENDBRANCH   1  11
BRANCH   4  38
ATOM     38  CAQ B6L d   1      33.090 -10.354  -4.121  0.00  0.00     0.013 A 
ATOM     39  CAR B6L d   1      34.343 -10.311  -3.543  0.00  0.00     0.128 A 
ATOM     40  CAS B6L d   1      35.230 -11.369  -3.771  0.00  0.00    -0.035 A 
ATOM     41  FAW B6L d   1      34.684  -9.265  -2.729  0.00  0.00    -0.205 F 
ATOM     42  CAT B6L d   1      34.844 -12.415  -4.606  0.00  0.00    -0.003 A 
ATOM     43  H11 B6L d   1      36.208 -11.374  -3.303  0.00  0.00     0.089 H 
ATOM     44  CAU B6L d   1      33.596 -12.414  -5.180  0.00  0.00    -0.072 A 
ATOM     45  CAV B6L d   1      32.721 -11.376  -4.947  0.00  0.00    -0.069 A 
ATOM     46  H12 B6L d   1      33.298 -13.236  -5.821  0.00  0.00     0.084 H 
ATOM     47  H13 B6L d   1      31.744 -11.371  -5.417  0.00  0.00     0.085 H 
BRANCH  42  48
ATOM     48  CAX B6L d   1      35.743 -13.610  -4.944  0.00  0.00     0.281 C 
BRANCH  48  49
ATOM     49  CAY B6L d   1      35.922 -14.483  -3.723  0.00  0.00     0.431 C 
ATOM     50  FBE B6L d   1      36.427 -13.773  -2.684  0.00  0.00    -0.167 F 
ATOM     51  FBF B6L d   1      36.784 -15.466  -4.054  0.00  0.00    -0.167 F 
ATOM     52  FBG B6L d   1      34.698 -15.019  -3.421  0.00  0.00    -0.167 F 
ENDBRANCH  48  49
BRANCH  48  53
ATOM     53  CAZ B6L d   1      37.022 -13.120  -5.617  0.00  0.00     0.431 C 
ATOM     54  FBB B6L d   1      37.800 -14.220  -5.842  0.00  0.00    -0.167 F 
ATOM     55  FBC B6L d   1      37.708 -12.192  -4.883  0.00  0.00    -0.167 F 
ATOM     56  FBD B6L d   1      36.651 -12.549  -6.812  0.00  0.00    -0.167 F 
ENDBRANCH  48  53
BRANCH  48  57
ATOM     57  OBA B6L d   1      35.155 -14.443  -5.914  0.00  0.00    -0.370 OA
ATOM     58  H20 B6L d   1      35.016 -13.948  -6.713  0.00  0.00     0.211 HD
ENDBRANCH  48  57
ENDBRANCH  42  48
ENDBRANCH   4  38
TORSDOF 11
