REMARK  4 active torsions:
REMARK  status: ('A' for Active; 'I' for Inactive)
REMARK    1  A    between atoms: N01_4  and  C13_2 
REMARK    2  A    between atoms: C02_5  and  N01_4 
REMARK    3  A    between atoms: N03_16  and  C12_11 
REMARK    4  A    between atoms: N15_18  and  C19_15 
ROOT
ATOM      1  C13 B4L d   1       8.135   4.462 -34.988  0.00  0.00     0.050 C 
ATOM      2  C17 B4L d   1       7.176   2.472 -35.915  0.00  0.00    -0.041 C 
ATOM      3  C14 B4L d   1       8.338   5.026 -36.411  0.00  0.00     0.102 C 
ATOM      4  C16 B4L d   1       7.332   3.058 -37.335  0.00  0.00     0.083 C 
ATOM      5  C18 B4L d   1       8.138   3.010 -34.990  0.00  0.00    -0.043 C 
ATOM      6  N15 B4L d   1       7.362   4.508 -37.328  0.00  0.00    -0.073 N 
ATOM      7  H2  B4L d   1       7.168   4.816 -34.600  0.00  0.00     0.075 H 
ATOM      8  H3  B4L d   1       7.308   1.381 -35.967  0.00  0.00     0.035 H 
ATOM      9  H4  B4L d   1       6.165   2.702 -35.547  0.00  0.00     0.035 H 
ATOM     10  H11 B4L d   1       9.342   4.750 -36.765  0.00  0.00     0.079 H 
ATOM     11  H12 B4L d   1       8.250   6.122 -36.377  0.00  0.00     0.079 H 
ATOM     12  H13 B4L d   1       6.484   2.724 -37.951  0.00  0.00     0.075 H 
ATOM     13  H14 B4L d   1       8.271   2.686 -37.771  0.00  0.00     0.075 H 
ATOM     14  H15 B4L d   1       7.896   2.653 -33.978  0.00  0.00     0.036 H 
ATOM     15  H16 B4L d   1       9.140   2.657 -35.274  0.00  0.00     0.036 H 
ATOM     16  H21 B4L d   1       6.458   4.826 -37.016  0.00  0.00     0.279 HD
ENDROOT
BRANCH   1  17
ATOM     17  N01 B4L d   1       9.239   4.955 -34.095  0.00  0.00    -0.220 N 
ATOM     18  H5  B4L d   1      10.172   5.152 -34.485  0.00  0.00     0.178 HD
BRANCH  17  19
ATOM     19  C02 B4L d   1       8.984   5.153 -32.678  0.00  0.00     0.683 A 
ATOM     20  N03 B4L d   1       9.910   5.728 -31.905  0.00  0.00    -0.150 N 
ATOM     21  C04 B4L d   1       9.699   5.920 -30.614  0.00  0.00     0.290 A 
ATOM     22  C06 B4L d   1       8.476   5.508 -30.037  0.00  0.00     0.129 A 
ATOM     23  O05 B4L d   1      10.523   6.431 -29.930  0.00  0.00    -0.265 OA
ATOM     24  C07 B4L d   1       7.538   4.919 -30.843  0.00  0.00     0.082 A 
ATOM     25  N11 B4L d   1       7.999   5.578 -28.764  0.00  0.00    -0.360 N 
ATOM     26  C09 B4L d   1       6.429   4.618 -30.002  0.00  0.00    -0.039 A 
ATOM     27  N08 B4L d   1       7.813   4.750 -32.172  0.00  0.00    -0.189 N 
ATOM     28  C10 B4L d   1       6.782   5.053 -28.729  0.00  0.00    -0.020 A 
ATOM     29  H6  B4L d   1       5.494   4.143 -30.296  0.00  0.00     0.089 H 
ATOM     30  H1  B4L d   1       6.156   4.975 -27.841  0.00  0.00     0.111 H 
ATOM     31  H20 B4L d   1       7.114   4.310 -32.787  0.00  0.00     0.184 HD
ATOM     32  H7  B4L d   1       8.502   5.975 -27.958  0.00  0.00     0.165 HD
BRANCH  20  33
ATOM     33  C12 B4L d   1      11.165   6.149 -32.502  0.00  0.00     0.006 C 
ATOM     34  H8  B4L d   1      11.159   5.909 -33.576  0.00  0.00     0.058 H 
ATOM     35  H9  B4L d   1      11.998   5.623 -32.014  0.00  0.00     0.058 H 
ATOM     36  H10 B4L d   1      11.289   7.234 -32.369  0.00  0.00     0.058 H 
ENDBRANCH  20  33
ENDBRANCH  17  19
ENDBRANCH   1  17
BRANCH   6  37
ATOM     37  C19 B4L d   1       7.538   4.942 -38.441  0.00  0.00     0.066 C 
ATOM     38  H17 B4L d   1       7.556   6.041 -38.407  0.00  0.00     0.068 H 
ATOM     39  H18 B4L d   1       6.721   4.609 -39.098  0.00  0.00     0.068 H 
ATOM     40  H19 B4L d   1       8.497   4.571 -38.832  0.00  0.00     0.068 H 
ENDBRANCH   6  37
TORSDOF 4
