REMARK  5 active torsions:
REMARK  status: ('A' for Active; 'I' for Inactive)
REMARK    1  A    between atoms: C4_7  and  C7_1 
REMARK    2  A    between atoms: N9_5  and  C14_13 
REMARK    3  A    between atoms: C11_11  and  N13_23 
REMARK    4  A    between atoms: N13_23  and  C15_14 
REMARK    5  A    between atoms: N16_24  and  C29_22 
ROOT
ATOM      1  C7  B8O d   1     -14.834  -6.194  15.003  0.00  0.00    -0.003 C 
ATOM      2  C8  B8O d   1     -14.828  -7.667  15.338  0.00  0.00     0.090 C 
ATOM      3  C10 B8O d   1     -16.679  -8.098  14.232  0.00  0.00     0.102 C 
ATOM      4  N9  B8O d   1     -16.041  -8.224  15.390  0.00  0.00    -0.072 N 
ATOM      5  C11 B8O d   1     -16.882  -6.628  13.842  0.00  0.00     0.050 C 
ATOM      6  C12 B8O d   1     -15.537  -6.022  13.675  0.00  0.00    -0.035 C 
ATOM      7  H1  B8O d   1     -15.408  -5.670  15.781  0.00  0.00     0.050 H 
ATOM      8  H2  B8O d   1     -14.348  -7.795  16.319  0.00  0.00     0.077 H 
ATOM      9  H3  B8O d   1     -14.240  -8.192  14.571  0.00  0.00     0.077 H 
ATOM     10  H4  B8O d   1     -17.663  -8.582  14.315  0.00  0.00     0.079 H 
ATOM     11  H5  B8O d   1     -16.091  -8.595  13.447  0.00  0.00     0.079 H 
ATOM     12  H6  B8O d   1     -16.563  -7.725  16.093  0.00  0.00     0.279 HD
ATOM     13  H10 B8O d   1     -17.429  -6.097  14.635  0.00  0.00     0.075 H 
ATOM     14  H11 B8O d   1     -14.981  -6.539  12.879  0.00  0.00     0.037 H 
ATOM     15  H12 B8O d   1     -15.627  -4.954  13.426  0.00  0.00     0.037 H 
ENDROOT
BRANCH   5  16
ATOM     16  N13 B8O d   1     -17.638  -6.577  12.634  0.00  0.00    -0.220 N 
ATOM     17  H25 B8O d   1     -17.459  -7.249  11.874  0.00  0.00     0.178 HD
BRANCH  16  18
ATOM     18  C15 B8O d   1     -18.605  -5.620  12.504  0.00  0.00     0.683 A 
ATOM     19  N16 B8O d   1     -19.382  -5.535  11.211  0.00  0.00    -0.150 N 
ATOM     20  C17 B8O d   1     -20.370  -4.607  10.955  0.00  0.00     0.290 A 
ATOM     21  C18 B8O d   1     -20.648  -3.733  11.992  0.00  0.00     0.129 A 
ATOM     22  O24 B8O d   1     -21.002  -4.644   9.824  0.00  0.00    -0.265 OA
ATOM     23  C19 B8O d   1     -19.885  -3.850  13.251  0.00  0.00     0.082 A 
ATOM     24  N21 B8O d   1     -21.508  -2.638  12.258  0.00  0.00    -0.360 N 
ATOM     25  C23 B8O d   1     -20.500  -2.738  14.028  0.00  0.00    -0.039 A 
ATOM     26  N20 B8O d   1     -18.970  -4.718  13.484  0.00  0.00    -0.189 N 
ATOM     27  C22 B8O d   1     -21.357  -2.175  13.379  0.00  0.00    -0.020 A 
ATOM     28  H17 B8O d   1     -20.218  -2.466  15.044  0.00  0.00     0.089 H 
ATOM     29  H16 B8O d   1     -21.937  -1.336  13.760  0.00  0.00     0.111 H 
ATOM     30  H26 B8O d   1     -18.507  -4.742  14.404  0.00  0.00     0.184 HD
ATOM     31  H27 B8O d   1     -22.189  -2.271  11.578  0.00  0.00     0.165 HD
BRANCH  19  32
ATOM     32  C29 B8O d   1     -19.008  -6.516  10.203  0.00  0.00     0.006 C 
ATOM     33  H22 B8O d   1     -18.208  -7.160  10.597  0.00  0.00     0.058 H 
ATOM     34  H23 B8O d   1     -18.650  -5.997   9.302  0.00  0.00     0.058 H 
ATOM     35  H24 B8O d   1     -19.883  -7.132   9.948  0.00  0.00     0.058 H 
ENDBRANCH  19  32
ENDBRANCH  16  18
ENDBRANCH   5  16
BRANCH   4  36
ATOM     36  C14 B8O d   1     -16.044  -9.468  15.716  0.00  0.00     0.066 C 
ATOM     37  H13 B8O d   1     -15.520  -9.597  16.674  0.00  0.00     0.068 H 
ATOM     38  H14 B8O d   1     -15.533 -10.053  14.937  0.00  0.00     0.068 H 
ATOM     39  H15 B8O d   1     -17.082  -9.818  15.816  0.00  0.00     0.068 H 
ENDBRANCH   4  36
BRANCH   1  40
ATOM     40  C4  B8O d   1     -13.459  -5.565  14.944  0.00  0.00    -0.050 A 
ATOM     41  C5  B8O d   1     -12.513  -6.197  14.385  0.00  0.00    -0.042 A 
ATOM     42  C6  B8O d   1     -11.066  -5.650  14.289  0.00  0.00     0.102 A 
ATOM     43  H7  B8O d   1     -12.727  -7.168  13.953  0.00  0.00     0.088 H 
ATOM     44  C1  B8O d   1     -10.914  -4.354  14.889  0.00  0.00     0.102 A 
ATOM     45  O25 B8O d   1     -10.014  -6.298  13.599  0.00  0.00    -0.346 OA
ATOM     46  C2  B8O d   1     -12.234  -3.831  15.522  0.00  0.00    -0.047 A 
ATOM     47  O28 B8O d   1      -9.727  -3.769  14.880  0.00  0.00    -0.346 OA
ATOM     48  C3  B8O d   1     -13.345  -4.482  15.468  0.00  0.00    -0.074 A 
ATOM     49  H9  B8O d   1     -12.219  -2.875  16.032  0.00  0.00     0.087 H 
ATOM     50  H8  B8O d   1     -14.224  -4.034  15.917  0.00  0.00     0.084 H 
ATOM     51  C27 B8O d   1      -8.742  -4.405  14.366  0.00  0.00     0.046 C 
ATOM     52  C26 B8O d   1      -8.845  -5.507  13.410  0.00  0.00     0.046 C 
ATOM     53  H20 B8O d   1      -8.134  -3.639  13.862  0.00  0.00     0.078 H 
ATOM     54  H21 B8O d   1      -8.183  -4.814  15.221  0.00  0.00     0.078 H 
ATOM     55  H18 B8O d   1      -7.962  -6.153  13.523  0.00  0.00     0.078 H 
ATOM     56  H19 B8O d   1      -8.865  -5.088  12.393  0.00  0.00     0.078 H 
ENDBRANCH   1  40
TORSDOF 5
