REMARK  10 active torsions:
REMARK  status: ('A' for Active; 'I' for Inactive)
REMARK    1  A    between atoms: PG_1  and  O3B_5 
REMARK    2  A    between atoms: O3B_5  and  PB_6 
REMARK    3  A    between atoms: PB_6  and  O3A_9 
REMARK    4  A    between atoms: O3A_9  and  PA_10 
REMARK    5  A    between atoms: PA_10  and  O5'_13 
REMARK    6  A    between atoms: O5'_13  and  C5'_14 
REMARK    7  A    between atoms: C5'_14  and  C4'_15 
REMARK    8  A    between atoms: C3'_17  and  O3'_18 
REMARK    9  A    between atoms: C2'_19  and  O2'_20 
REMARK   10  A    between atoms: C1'_21  and  N9_22 
ROOT
ATOM      1  C4' GTP d   1       3.668   5.182  49.613  0.00  0.00     0.089 C 
ATOM      2  O4' GTP d   1       4.138   5.387  50.928  0.00  0.00    -0.353 OA
ATOM      3  C3' GTP d   1       2.218   4.735  49.711  0.00  0.00     0.091 C 
ATOM      4  C2' GTP d   1       1.847   4.872  51.172  0.00  0.00     0.105 C 
ATOM      5  C1' GTP d   1       3.175   5.018  51.893  0.00  0.00     0.139 C 
ATOM      6  H3  GTP d   1       4.267   4.418  49.095  0.00  0.00     0.090 H 
ATOM      7  H4  GTP d   1       1.570   5.361  49.080  0.00  0.00     0.091 H 
ATOM      8  H6  GTP d   1       1.224   5.765  51.329  0.00  0.00     0.093 H 
ATOM      9  H8  GTP d   1       3.454   4.067  52.370  0.00  0.00     0.122 H 
ENDROOT
BRANCH   1  10
ATOM     10  C5' GTP d   1       3.776   6.516  48.890  0.00  0.00     0.058 C 
ATOM     11  H1  GTP d   1       4.636   7.085  49.272  0.00  0.00     0.079 H 
ATOM     12  H2  GTP d   1       3.896   6.352  47.809  0.00  0.00     0.079 H 
BRANCH  10  13
ATOM     13  O5' GTP d   1       2.580   7.217  49.144  0.00  0.00    -0.287 OA
BRANCH  13  14
ATOM     14  PA  GTP d   1       2.185   8.552  48.343  0.00  0.00     0.417 P 
ATOM     15  O1A GTP d   1       1.480   9.517  49.264  0.00  0.00    -0.624 OA
ATOM     16  O2A GTP d   1       1.331   8.210  47.146  0.00  0.00    -0.624 OA
BRANCH  14  17
ATOM     17  O3A GTP d   1       3.606   9.165  47.902  0.00  0.00    -0.180 OA
BRANCH  17  18
ATOM     18  PB  GTP d   1       3.749  10.150  46.638  0.00  0.00     0.428 P 
ATOM     19  O1B GTP d   1       2.462  10.921  46.478  0.00  0.00    -0.624 OA
ATOM     20  O2B GTP d   1       4.919  11.085  46.828  0.00  0.00    -0.624 OA
BRANCH  18  21
ATOM     21  O3B GTP d   1       3.970   9.184  45.370  0.00  0.00    -0.173 OA
BRANCH  21  22
ATOM     22  PG  GTP d   1       3.891   9.755  43.864  0.00  0.00     0.431 P 
ATOM     23  O1G GTP d   1       2.621  10.553  43.695  0.00  0.00    -0.616 OA
ATOM     24  O2G GTP d   1       3.904   8.605  42.887  0.00  0.00    -0.616 OA
ATOM     25  O3G GTP d   1       5.083  10.647  43.606  0.00  0.00    -0.616 OA
ENDBRANCH  21  22
ENDBRANCH  18  21
ENDBRANCH  17  18
ENDBRANCH  14  17
ENDBRANCH  13  14
ENDBRANCH  10  13
ENDBRANCH   1  10
BRANCH   3  26
ATOM     26  O3' GTP d   1       2.111   3.384  49.328  0.00  0.00    -0.390 OA
ATOM     27  H5  GTP d   1       1.204   3.109  49.391  0.00  0.00     0.210 HD
ENDBRANCH   3  26
BRANCH   5  28
ATOM     28  N9  GTP d   1       3.090   6.080  52.909  0.00  0.00    -0.295 N 
ATOM     29  C8  GTP d   1       2.795   7.404  52.703  0.00  0.00     0.071 A 
ATOM     30  N7  GTP d   1       2.827   8.038  53.898  0.00  0.00    -0.234 NA
ATOM     31  H9  GTP d   1       2.573   7.866  51.742  0.00  0.00     0.144 H 
ATOM     32  C5  GTP d   1       3.143   7.140  54.858  0.00  0.00     0.171 A 
ATOM     33  C6  GTP d   1       3.309   7.250  56.233  0.00  0.00     0.292 A 
ATOM     34  C4  GTP d   1       3.313   5.907  54.247  0.00  0.00     0.161 A 
ATOM     35  O6  GTP d   1       3.161   8.336  56.791  0.00  0.00    -0.265 OA
ATOM     36  N1  GTP d   1       3.642   6.129  56.968  0.00  0.00    -0.154 N 
ATOM     37  C2  GTP d   1       3.803   4.911  56.338  0.00  0.00     0.680 A 
ATOM     38  H10 GTP d   1       3.767   6.200  57.958  0.00  0.00     0.187 HD
ATOM     39  N2  GTP d   1       4.122   3.830  57.044  0.00  0.00    -0.234 N 
ATOM     40  N3  GTP d   1       3.636   4.812  54.974  0.00  0.00    -0.174 N 
ATOM     41  H11 GTP d   1       4.241   2.923  56.571  0.00  0.00     0.174 HD
ATOM     42  H12 GTP d   1       4.250   3.900  58.064  0.00  0.00     0.174 HD
ATOM     43  H13 GTP d   1       3.757   3.902  54.506  0.00  0.00     0.186 HD
ENDBRANCH   5  28
BRANCH   4  44
ATOM     44  O2' GTP d   1       1.151   3.735  51.624  0.00  0.00    -0.388 OA
ATOM     45  H7  GTP d   1       1.700   2.967  51.519  0.00  0.00     0.210 HD
ENDBRANCH   4  44
TORSDOF 10
