REMARK  12 active torsions:
REMARK  status: ('A' for Active; 'I' for Inactive)
REMARK    1  A    between atoms: PG_1  and  S1G_2 
REMARK    2  A    between atoms: O3B_8  and  PG_1 
REMARK    3  A    between atoms: PB_5  and  O3B_8 
REMARK    4  A    between atoms: O3A_12  and  PB_5 
REMARK    5  A    between atoms: PA_9  and  O3A_12 
REMARK    6  A    between atoms: PA_9  and  O5'_13 
REMARK    7  A    between atoms: O5'_13  and  C5'_14 
REMARK    8  A    between atoms: C5'_14  and  C4'_15 
REMARK    9  A    between atoms: C3'_17  and  O3'_18 
REMARK   10  A    between atoms: C2'_19  and  O2'_20 
REMARK   11  A    between atoms: C1'_21  and  N9_22 
REMARK   12  A    between atoms: C6_26  and  N6_27 
ROOT
ATOM      1  C4' AGS d   1     -81.008  67.586  -0.910  0.00  0.00     0.089 C 
ATOM      2  O4' AGS d   1     -82.041  66.706  -0.421  0.00  0.00    -0.353 OA
ATOM      3  C3' AGS d   1     -81.427  67.907  -2.336  0.00  0.00     0.091 C 
ATOM      4  C2' AGS d   1     -82.962  67.938  -2.243  0.00  0.00     0.105 C 
ATOM      5  C1' AGS d   1     -83.263  66.967  -1.092  0.00  0.00     0.139 C 
ATOM      6  H4  AGS d   1     -80.043  67.059  -0.932  0.00  0.00     0.090 H 
ATOM      7  H5  AGS d   1     -81.045  68.891  -2.646  0.00  0.00     0.091 H 
ATOM      8  H7  AGS d   1     -83.313  68.953  -2.005  0.00  0.00     0.093 H 
ATOM      9  H9  AGS d   1     -83.648  66.033  -1.528  0.00  0.00     0.122 H 
ENDROOT
BRANCH   1  10
ATOM     10  C5' AGS d   1     -80.864  68.779   0.014  0.00  0.00     0.058 C 
ATOM     11  H2  AGS d   1     -81.861  69.127   0.324  0.00  0.00     0.079 H 
ATOM     12  H3  AGS d   1     -80.285  68.488   0.903  0.00  0.00     0.079 H 
BRANCH  10  13
ATOM     13  O5' AGS d   1     -80.176  69.843  -0.685  0.00  0.00    -0.287 OA
BRANCH  13  14
ATOM     14  PA  AGS d   1     -80.567  71.402  -0.638  0.00  0.00     0.417 P 
ATOM     15  O1A AGS d   1     -82.033  71.595  -0.739  0.00  0.00    -0.624 OA
ATOM     16  O2A AGS d   1     -79.812  72.097  -1.782  0.00  0.00    -0.624 OA
BRANCH  14  17
ATOM     17  O3A AGS d   1     -80.074  71.961   0.773  0.00  0.00    -0.180 OA
BRANCH  17  18
ATOM     18  PB  AGS d   1     -79.485  73.433   1.036  0.00  0.00     0.426 P 
ATOM     19  O1B AGS d   1     -80.098  74.033   2.233  0.00  0.00    -0.624 OA
ATOM     20  O2B AGS d   1     -79.700  74.308  -0.197  0.00  0.00    -0.624 OA
BRANCH  18  21
ATOM     21  O3B AGS d   1     -77.956  73.147   1.267  0.00  0.00    -0.195 OA
BRANCH  21  22
ATOM     22  PG  AGS d   1     -76.816  74.085   0.756  0.00  0.00     0.322 P 
ATOM     23  O2G AGS d   1     -76.700  74.100  -0.812  0.00  0.00    -0.638 OA
ATOM     24  O3G AGS d   1     -77.126  75.533   1.256  0.00  0.00    -0.638 OA
BRANCH  22  25
ATOM     25  S1G AGS d   1     -75.147  73.434   1.556  0.00  0.00    -0.054 SA
ATOM     26  H1  AGS d   1     -75.236  73.430   2.560  0.00  0.00     0.114 HD
ENDBRANCH  22  25
ENDBRANCH  21  22
ENDBRANCH  18  21
ENDBRANCH  17  18
ENDBRANCH  14  17
ENDBRANCH  13  14
ENDBRANCH  10  13
ENDBRANCH   1  10
BRANCH   3  27
ATOM     27  O3' AGS d   1     -80.928  66.920  -3.230  0.00  0.00    -0.390 OA
ATOM     28  H6  AGS d   1     -81.197  67.132  -4.116  0.00  0.00     0.210 HD
ENDBRANCH   3  27
BRANCH   5  29
ATOM     29  N9  AGS d   1     -84.244  67.440  -0.102  0.00  0.00    -0.294 N 
ATOM     30  C8  AGS d   1     -84.036  68.381   0.875  0.00  0.00     0.071 A 
ATOM     31  N7  AGS d   1     -85.076  68.588   1.647  0.00  0.00    -0.236 NA
ATOM     32  H10 AGS d   1     -83.091  68.909   0.998  0.00  0.00     0.144 H 
ATOM     33  C5  AGS d   1     -86.034  67.711   1.155  0.00  0.00     0.149 A 
ATOM     34  C6  AGS d   1     -87.361  67.436   1.545  0.00  0.00     0.155 A 
ATOM     35  C4  AGS d   1     -85.536  66.997   0.078  0.00  0.00     0.167 A 
ATOM     36  N1  AGS d   1     -88.042  66.512   0.840  0.00  0.00    -0.222 NA
ATOM     37  C2  AGS d   1     -87.428  65.897  -0.175  0.00  0.00     0.091 A 
ATOM     38  N3  AGS d   1     -86.186  66.069  -0.633  0.00  0.00    -0.222 NA
ATOM     39  H13 AGS d   1     -88.020  65.156  -0.699  0.00  0.00     0.146 H 
BRANCH  34  40
ATOM     40  N6  AGS d   1     -87.981  68.040   2.562  0.00  0.00    -0.382 N 
ATOM     41  H11 AGS d   1     -88.953  67.791   2.793  0.00  0.00     0.157 HD
ATOM     42  H12 AGS d   1     -87.487  68.755   3.115  0.00  0.00     0.157 HD
ENDBRANCH  34  40
ENDBRANCH   5  29
BRANCH   4  43
ATOM     43  O2' AGS d   1     -83.595  67.493  -3.439  0.00  0.00    -0.388 OA
ATOM     44  H8  AGS d   1     -83.332  66.598  -3.621  0.00  0.00     0.210 HD
ENDBRANCH   4  43
TORSDOF 12
