REMARK  13 active torsions:
REMARK  status: ('A' for Active; 'I' for Inactive)
REMARK    1  A    between atoms: O6_23  and  C1_1 
REMARK    2  A    between atoms: C2_2  and  O2_7 
REMARK    3  A    between atoms: C3_3  and  O3_8 
REMARK    4  A    between atoms: C4_4  and  O4_9 
REMARK    5  A    between atoms: C5_5  and  C6_6 
REMARK    6  A    between atoms: C6_6  and  O6_11 
REMARK    7  A    between atoms: C2_15  and  O1_12 
REMARK    8  A    between atoms: C1_13  and  O2_14 
REMARK    9  A    between atoms: C2_15  and  C1_13 
REMARK   10  A    between atoms: C3_17  and  O4_18 
REMARK   11  A    between atoms: C4_19  and  O5_20 
REMARK   12  A    between atoms: C6_22  and  C5_21 
REMARK   13  A    between atoms: C6_22  and  O6_23 
ROOT
ATOM      1  O6  GLC d   1      -6.941 -32.948 -15.586  0.00  0.00    -0.356 OA
ENDROOT
BRANCH   1   2
ATOM      2  C1  GLC d   1      -6.491 -32.409 -14.349  0.00  0.00     0.158 C 
ATOM      3  C2  GLC d   1      -7.755 -32.132 -13.512  0.00  0.00     0.110 C 
ATOM      4  C3  GLC d   1      -8.660 -31.123 -14.182  0.00  0.00     0.092 C 
ATOM      5  H2  GLC d   1      -7.442 -31.720 -12.541  0.00  0.00     0.094 H 
ATOM      6  C4  GLC d   1      -7.827 -29.873 -14.399  0.00  0.00     0.090 C 
ATOM      7  H3  GLC d   1      -8.986 -31.515 -15.157  0.00  0.00     0.091 H 
ATOM      8  C5  GLC d   1      -6.546 -30.191 -15.164  0.00  0.00     0.089 C 
ATOM      9  H4  GLC d   1      -7.528 -29.493 -13.411  0.00  0.00     0.091 H 
ATOM     10  O5  GLC d   1      -5.800 -31.198 -14.515  0.00  0.00    -0.348 OA
ATOM     11  H5  GLC d   1      -6.796 -30.503 -16.189  0.00  0.00     0.090 H 
ATOM     12  H1  GLC d   1      -5.840 -33.135 -13.840  0.00  0.00     0.133 H 
BRANCH   3  13
ATOM     13  O2  GLC d   1      -8.454 -33.350 -13.283  0.00  0.00    -0.388 OA
ATOM     14  H8  GLC d   1      -7.873 -33.973 -12.862  0.00  0.00     0.210 HD
ENDBRANCH   3  13
BRANCH   4  15
ATOM     15  O3  GLC d   1      -9.855 -30.856 -13.368  0.00  0.00    -0.390 OA
ATOM     16  H9  GLC d   1     -10.397 -30.210 -13.806  0.00  0.00     0.210 HD
ENDBRANCH   4  15
BRANCH   6  17
ATOM     17  O4  GLC d   1      -8.638 -28.842 -15.034  0.00  0.00    -0.390 OA
ATOM     18  H10 GLC d   1      -8.888 -29.129 -15.905  0.00  0.00     0.210 HD
ENDBRANCH   6  17
BRANCH   8  19
ATOM     19  C6  GLC d   1      -5.653 -28.962 -15.181  0.00  0.00     0.043 C 
ATOM     20  H6  GLC d   1      -5.322 -28.756 -14.152  0.00  0.00     0.078 H 
ATOM     21  H7  GLC d   1      -6.239 -28.110 -15.555  0.00  0.00     0.078 H 
BRANCH  19  22
ATOM     22  O6  GLC d   1      -4.491 -29.116 -16.012  0.00  0.00    -0.398 OA
ATOM     23  H11 GLC d   1      -4.763 -29.285 -16.906  0.00  0.00     0.209 HD
ENDBRANCH  19  22
ENDBRANCH   8  19
ENDBRANCH   1   2
BRANCH   1  24
ATOM     24  C6  GLC d   1      -5.879 -33.114 -16.540  0.00  0.00     0.049 C 
ATOM     25  H21 GLC d   1      -6.221 -32.759 -17.523  0.00  0.00     0.078 H 
ATOM     26  H22 GLC d   1      -5.010 -32.521 -16.218  0.00  0.00     0.078 H 
BRANCH  24  27
ATOM     27  C5  GLC d   1      -5.468 -34.579 -16.654  0.00  0.00     0.090 C 
ATOM     28  O3  GLC d   1      -5.026 -35.090 -15.395  0.00  0.00    -0.341 OA
ATOM     29  C2  GLC d   1      -5.261 -36.496 -15.315  0.00  0.00     0.213 C 
ATOM     30  C3  GLC d   1      -5.916 -36.896 -16.613  0.00  0.00     0.118 C 
ATOM     31  C4  GLC d   1      -6.519 -35.574 -17.102  0.00  0.00     0.092 C 
ATOM     32  H16 GLC d   1      -5.148 -37.233 -17.325  0.00  0.00     0.095 H 
ATOM     33  H18 GLC d   1      -7.465 -35.365 -16.582  0.00  0.00     0.091 H 
ATOM     34  H20 GLC d   1      -4.637 -34.617 -17.374  0.00  0.00     0.090 H 
BRANCH  29  35
ATOM     35  O1  GLC d   1      -4.004 -37.143 -15.126  0.00  0.00    -0.362 OA
ATOM     36  H12 GLC d   1      -4.138 -38.082 -15.070  0.00  0.00     0.213 HD
ENDBRANCH  29  35
BRANCH  29  37
ATOM     37  C1  GLC d   1      -6.099 -36.801 -14.081  0.00  0.00     0.071 C 
ATOM     38  H13 GLC d   1      -7.094 -36.344 -14.189  0.00  0.00     0.082 H 
ATOM     39  H14 GLC d   1      -6.206 -37.890 -13.968  0.00  0.00     0.082 H 
BRANCH  37  40
ATOM     40  O2  GLC d   1      -5.438 -36.255 -12.914  0.00  0.00    -0.395 OA
ATOM     41  H15 GLC d   1      -5.957 -36.443 -12.141  0.00  0.00     0.209 HD
ENDBRANCH  37  40
ENDBRANCH  29  37
BRANCH  30  42
ATOM     42  O4  GLC d   1      -6.861 -37.962 -16.472  0.00  0.00    -0.387 OA
ATOM     43  H17 GLC d   1      -7.236 -38.166 -17.321  0.00  0.00     0.210 HD
ENDBRANCH  30  42
BRANCH  31  44
ATOM     44  O5  GLC d   1      -6.805 -35.624 -18.539  0.00  0.00    -0.390 OA
ATOM     45  H19 GLC d   1      -7.423 -36.324 -18.713  0.00  0.00     0.210 HD
ENDBRANCH  31  44
ENDBRANCH  24  27
ENDBRANCH   1  24
TORSDOF 13
