REMARK  13 active torsions:
REMARK  status: ('A' for Active; 'I' for Inactive)
REMARK    1  A    between atoms: O1_7  and  C1_1 
REMARK    2  A    between atoms: C2_2  and  O2_8 
REMARK    3  A    between atoms: C3_3  and  O3_9 
REMARK    4  A    between atoms: C4_4  and  O4_10 
REMARK    5  A    between atoms: C5_5  and  C6_6 
REMARK    6  A    between atoms: C6_6  and  O6_12 
REMARK    7  A    between atoms: C2'_14  and  O1_7 
REMARK    8  A    between atoms: C2'_14  and  C1'_13 
REMARK    9  A    between atoms: C1'_13  and  O1'_19 
REMARK   10  A    between atoms: C3'_15  and  O3'_21 
REMARK   11  A    between atoms: C4'_16  and  O4'_22 
REMARK   12  A    between atoms: C6'_18  and  C5'_17 
REMARK   13  A    between atoms: O6'_23  and  C6'_18 
ROOT
ATOM      1  O1  SUC d   1      -6.896 -33.422 -14.821  0.00  0.00    -0.318 OA
ENDROOT
BRANCH   1   2
ATOM      2  C1  SUC d   1      -6.652 -32.499 -13.771  0.00  0.00     0.162 C 
ATOM      3  C2  SUC d   1      -8.018 -32.169 -13.128  0.00  0.00     0.110 C 
ATOM      4  C3  SUC d   1      -8.808 -31.211 -14.015  0.00  0.00     0.092 C 
ATOM      5  H2  SUC d   1      -7.833 -31.690 -12.155  0.00  0.00     0.094 H 
ATOM      6  C4  SUC d   1      -7.945 -29.965 -14.251  0.00  0.00     0.090 C 
ATOM      7  H3  SUC d   1      -9.073 -31.692 -14.968  0.00  0.00     0.091 H 
ATOM      8  C5  SUC d   1      -6.648 -30.384 -14.932  0.00  0.00     0.089 C 
ATOM      9  H4  SUC d   1      -7.692 -29.528 -13.274  0.00  0.00     0.091 H 
ATOM     10  O5  SUC d   1      -5.935 -31.326 -14.118  0.00  0.00    -0.348 OA
ATOM     11  H5  SUC d   1      -6.873 -30.833 -15.911  0.00  0.00     0.090 H 
ATOM     12  H1  SUC d   1      -6.041 -33.020 -13.020  0.00  0.00     0.133 H 
BRANCH   3  13
ATOM     13  O2  SUC d   1      -8.821 -33.333 -12.920  0.00  0.00    -0.388 OA
ATOM     14  H8  SUC d   1      -8.350 -33.947 -12.369  0.00  0.00     0.210 HD
ENDBRANCH   3  13
BRANCH   4  15
ATOM     15  O3  SUC d   1     -10.013 -30.786 -13.294  0.00  0.00    -0.390 OA
ATOM     16  H9  SUC d   1     -10.486 -30.149 -13.817  0.00  0.00     0.210 HD
ENDBRANCH   4  15
BRANCH   6  17
ATOM     17  O4  SUC d   1      -8.665 -28.969 -15.003  0.00  0.00    -0.390 OA
ATOM     18  H10 SUC d   1      -8.883 -29.317 -15.860  0.00  0.00     0.210 HD
ENDBRANCH   6  17
BRANCH   8  19
ATOM     19  C6  SUC d   1      -5.767 -29.152 -15.109  0.00  0.00     0.043 C 
ATOM     20  H6  SUC d   1      -5.443 -28.802 -14.118  0.00  0.00     0.078 H 
ATOM     21  H7  SUC d   1      -6.354 -28.364 -15.602  0.00  0.00     0.078 H 
BRANCH  19  22
ATOM     22  O6  SUC d   1      -4.594 -29.433 -15.912  0.00  0.00    -0.398 OA
ATOM     23  H11 SUC d   1      -4.865 -29.730 -16.773  0.00  0.00     0.209 HD
ENDBRANCH  19  22
ENDBRANCH   8  19
ENDBRANCH   1   2
BRANCH   1  24
ATOM     24  C2' SUC d   1      -5.804 -34.177 -15.376  0.00  0.00     0.217 C 
ATOM     25  C3' SUC d   1      -5.518 -35.437 -14.474  0.00  0.00     0.118 C 
ATOM     26  C4' SUC d   1      -6.513 -36.451 -14.971  0.00  0.00     0.092 C 
ATOM     27  H14 SUC d   1      -4.519 -35.799 -14.759  0.00  0.00     0.095 H 
ATOM     28  C5' SUC d   1      -6.395 -36.175 -16.485  0.00  0.00     0.089 C 
ATOM     29  H15 SUC d   1      -7.523 -36.225 -14.599  0.00  0.00     0.091 H 
ATOM     30  O2' SUC d   1      -6.277 -34.750 -16.588  0.00  0.00    -0.341 OA
ATOM     31  H16 SUC d   1      -5.500 -36.671 -16.889  0.00  0.00     0.090 H 
BRANCH  24  32
ATOM     32  C1' SUC d   1      -4.515 -33.373 -15.571  0.00  0.00     0.071 C 
ATOM     33  H12 SUC d   1      -4.127 -33.062 -14.590  0.00  0.00     0.082 H 
ATOM     34  H13 SUC d   1      -4.730 -32.482 -16.179  0.00  0.00     0.082 H 
BRANCH  32  35
ATOM     35  O1' SUC d   1      -3.531 -34.179 -16.238  0.00  0.00    -0.395 OA
ATOM     36  H19 SUC d   1      -3.865 -34.447 -17.086  0.00  0.00     0.209 HD
ENDBRANCH  32  35
ENDBRANCH  24  32
BRANCH  25  37
ATOM     37  O3' SUC d   1      -5.437 -35.286 -13.059  0.00  0.00    -0.387 OA
ATOM     38  H20 SUC d   1      -6.283 -35.015 -12.722  0.00  0.00     0.210 HD
ENDBRANCH  25  37
BRANCH  26  39
ATOM     39  O4' SUC d   1      -6.198 -37.841 -14.631  0.00  0.00    -0.390 OA
ATOM     40  H21 SUC d   1      -5.307 -38.037 -14.897  0.00  0.00     0.210 HD
ENDBRANCH  26  39
BRANCH  28  41
ATOM     41  C6' SUC d   1      -7.586 -36.622 -17.250  0.00  0.00     0.043 C 
ATOM     42  H17 SUC d   1      -8.444 -35.997 -16.961  0.00  0.00     0.078 H 
ATOM     43  H18 SUC d   1      -7.794 -37.671 -16.994  0.00  0.00     0.078 H 
BRANCH  41  44
ATOM     44  O6' SUC d   1      -7.404 -36.523 -18.680  0.00  0.00    -0.398 OA
ATOM     45  H22 SUC d   1      -6.670 -37.065 -18.943  0.00  0.00     0.209 HD
ENDBRANCH  41  44
ENDBRANCH  28  41
ENDBRANCH   1  24
TORSDOF 13
