REMARK  12 active torsions:
REMARK  status: ('A' for Active; 'I' for Inactive)
REMARK    1  A    between atoms: O1_7  and  C1_1 
REMARK    2  A    between atoms: C2_2  and  O2_8 
REMARK    3  A    between atoms: C3_3  and  O3_9 
REMARK    4  A    between atoms: C4_4  and  O4_10 
REMARK    5  A    between atoms: C5_5  and  C6_6 
REMARK    6  A    between atoms: C6_6  and  O6_12 
REMARK    7  A    between atoms: C1P_13  and  O1_7 
REMARK    8  A    between atoms: C2P_14  and  O2P_19 
REMARK    9  A    between atoms: C3P_15  and  O3P_20 
REMARK   10  A    between atoms: C4P_16  and  O4P_21 
REMARK   11  A    between atoms: C6P_18  and  C5P_17 
REMARK   12  A    between atoms: O6P_23  and  C6P_18 
ROOT
ATOM      1  O1  TRE d   1      -6.795 -33.057 -15.330  0.00  0.00    -0.326 OA
ENDROOT
BRANCH   1   2
ATOM      2  C1  TRE d   1      -6.560 -32.404 -14.096  0.00  0.00     0.162 C 
ATOM      3  C2  TRE d   1      -7.873 -32.135 -13.382  0.00  0.00     0.110 C 
ATOM      4  C3  TRE d   1      -8.746 -31.146 -14.139  0.00  0.00     0.092 C 
ATOM      5  H2  TRE d   1      -7.660 -31.730 -12.382  0.00  0.00     0.094 H 
ATOM      6  C4  TRE d   1      -7.972 -29.847 -14.334  0.00  0.00     0.090 C 
ATOM      7  H3  TRE d   1      -9.013 -31.564 -15.121  0.00  0.00     0.091 H 
ATOM      8  C5  TRE d   1      -6.683 -30.201 -15.044  0.00  0.00     0.089 C 
ATOM      9  H4  TRE d   1      -7.737 -29.414 -13.351  0.00  0.00     0.091 H 
ATOM     10  O5  TRE d   1      -5.905 -31.142 -14.272  0.00  0.00    -0.348 OA
ATOM     11  H5  TRE d   1      -6.944 -30.651 -16.013  0.00  0.00     0.090 H 
ATOM     12  H1  TRE d   1      -5.929 -33.053 -13.471  0.00  0.00     0.133 H 
BRANCH   3  13
ATOM     13  O2  TRE d   1      -8.583 -33.372 -13.259  0.00  0.00    -0.388 OA
ATOM     14  H8  TRE d   1      -8.047 -33.998 -12.787  0.00  0.00     0.210 HD
ENDBRANCH   3  13
BRANCH   4  15
ATOM     15  O3  TRE d   1      -9.967 -30.894 -13.369  0.00  0.00    -0.390 OA
ATOM     16  H9  TRE d   1     -10.512 -30.273 -13.837  0.00  0.00     0.210 HD
ENDBRANCH   4  15
BRANCH   6  17
ATOM     17  O4  TRE d   1      -8.729 -28.899 -15.071  0.00  0.00    -0.390 OA
ATOM     18  H10 TRE d   1      -8.944 -29.260 -15.923  0.00  0.00     0.210 HD
ENDBRANCH   6  17
BRANCH   8  19
ATOM     19  C6  TRE d   1      -5.788 -29.026 -15.280  0.00  0.00     0.043 C 
ATOM     20  H6  TRE d   1      -5.435 -28.658 -14.305  0.00  0.00     0.078 H 
ATOM     21  H7  TRE d   1      -6.373 -28.239 -15.779  0.00  0.00     0.078 H 
BRANCH  19  22
ATOM     22  O6  TRE d   1      -4.644 -29.321 -16.092  0.00  0.00    -0.398 OA
ATOM     23  H11 TRE d   1      -4.122 -29.993 -15.669  0.00  0.00     0.209 HD
ENDBRANCH  19  22
ENDBRANCH   8  19
ENDBRANCH   1   2
BRANCH   1  24
ATOM     24  C1P TRE d   1      -5.596 -33.555 -15.890  0.00  0.00     0.162 C 
ATOM     25  C2P TRE d   1      -5.868 -34.120 -17.253  0.00  0.00     0.110 C 
ATOM     26  C3P TRE d   1      -6.696 -35.402 -17.167  0.00  0.00     0.092 C 
ATOM     27  H13 TRE d   1      -4.899 -34.368 -17.711  0.00  0.00     0.094 H 
ATOM     28  C4P TRE d   1      -6.006 -36.293 -16.203  0.00  0.00     0.090 C 
ATOM     29  H14 TRE d   1      -7.707 -35.177 -16.797  0.00  0.00     0.091 H 
ATOM     30  C5P TRE d   1      -5.849 -35.634 -14.865  0.00  0.00     0.089 C 
ATOM     31  H15 TRE d   1      -5.019 -36.584 -16.592  0.00  0.00     0.091 H 
ATOM     32  O5P TRE d   1      -4.996 -34.499 -15.045  0.00  0.00    -0.348 OA
ATOM     33  H16 TRE d   1      -6.839 -35.327 -14.497  0.00  0.00     0.090 H 
ATOM     34  H12 TRE d   1      -4.896 -32.714 -16.004  0.00  0.00     0.133 H 
BRANCH  25  35
ATOM     35  O2P TRE d   1      -6.524 -33.190 -18.095  0.00  0.00    -0.388 OA
ATOM     36  H19 TRE d   1      -6.008 -32.394 -18.148  0.00  0.00     0.210 HD
ENDBRANCH  25  35
BRANCH  26  37
ATOM     37  O3P TRE d   1      -6.799 -35.988 -18.505  0.00  0.00    -0.390 OA
ATOM     38  H20 TRE d   1      -7.289 -36.800 -18.457  0.00  0.00     0.210 HD
ENDBRANCH  26  37
BRANCH  28  39
ATOM     39  O4P TRE d   1      -6.861 -37.449 -16.052  0.00  0.00    -0.390 OA
ATOM     40  H21 TRE d   1      -6.968 -37.875 -16.895  0.00  0.00     0.210 HD
ENDBRANCH  28  39
BRANCH  30  41
ATOM     41  C6P TRE d   1      -5.148 -36.508 -13.793  0.00  0.00     0.043 C 
ATOM     42  H17 TRE d   1      -4.480 -35.886 -13.179  0.00  0.00     0.078 H 
ATOM     43  H18 TRE d   1      -4.564 -37.303 -14.280  0.00  0.00     0.078 H 
BRANCH  41  44
ATOM     44  O6P TRE d   1      -6.164 -37.083 -12.976  0.00  0.00    -0.398 OA
ATOM     45  H22 TRE d   1      -5.762 -37.626 -12.308  0.00  0.00     0.209 HD
ENDBRANCH  41  44
ENDBRANCH  30  41
ENDBRANCH   1  24
TORSDOF 12
