REMARK  12 active torsions:
REMARK  status: ('A' for Active; 'I' for Inactive)
REMARK    1  A    between atoms: O1_7  and  C1_1 
REMARK    2  A    between atoms: C2_2  and  O2_8 
REMARK    3  A    between atoms: C3_3  and  O3_9 
REMARK    4  A    between atoms: C4_4  and  O4_10 
REMARK    5  A    between atoms: C5_5  and  C6_6 
REMARK    6  A    between atoms: C6_6  and  O6_12 
REMARK    7  A    between atoms: C4'_16  and  O1_7 
REMARK    8  A    between atoms: C1'_13  and  O1'_19 
REMARK    9  A    between atoms: C2'_14  and  O2'_20 
REMARK   10  A    between atoms: C3'_15  and  O3'_21 
REMARK   11  A    between atoms: C6'_18  and  C5'_17 
REMARK   12  A    between atoms: O6'_23  and  C6'_18 
ROOT
ATOM      1  O1  MAL d   1      -6.639 -32.957 -14.846  0.00  0.00    -0.348 OA
ENDROOT
BRANCH   1   2
ATOM      2  C1  MAL d   1      -6.253 -32.216 -13.712  0.00  0.00     0.159 C 
ATOM      3  C2  MAL d   1      -7.599 -31.908 -13.022  0.00  0.00     0.110 C 
ATOM      4  C3  MAL d   1      -8.442 -30.873 -13.799  0.00  0.00     0.092 C 
ATOM      5  H2  MAL d   1      -7.390 -31.517 -12.015  0.00  0.00     0.094 H 
ATOM      6  C4  MAL d   1      -7.607 -29.633 -14.022  0.00  0.00     0.090 C 
ATOM      7  H3  MAL d   1      -8.749 -31.292 -14.769  0.00  0.00     0.091 H 
ATOM      8  C5  MAL d   1      -6.284 -30.018 -14.730  0.00  0.00     0.089 C 
ATOM      9  H4  MAL d   1      -7.354 -29.194 -13.046  0.00  0.00     0.091 H 
ATOM     10  O5  MAL d   1      -5.558 -31.000 -14.017  0.00  0.00    -0.348 OA
ATOM     11  H5  MAL d   1      -6.506 -30.399 -15.738  0.00  0.00     0.090 H 
ATOM     12  H1  MAL d   1      -5.614 -32.831 -13.062  0.00  0.00     0.133 H 
BRANCH   3  13
ATOM     13  O2  MAL d   1      -8.378 -33.074 -12.920  0.00  0.00    -0.388 OA
ATOM     14  H8  MAL d   1      -7.891 -33.738 -12.446  0.00  0.00     0.210 HD
ENDBRANCH   3  13
BRANCH   4  15
ATOM     15  O3  MAL d   1      -9.608 -30.550 -13.021  0.00  0.00    -0.390 OA
ATOM     16  H9  MAL d   1     -10.127 -29.903 -13.484  0.00  0.00     0.210 HD
ENDBRANCH   4  15
BRANCH   6  17
ATOM     17  O4  MAL d   1      -8.383 -28.679 -14.752  0.00  0.00    -0.390 OA
ATOM     18  H10 MAL d   1      -8.607 -29.039 -15.602  0.00  0.00     0.210 HD
ENDBRANCH   6  17
BRANCH   8  19
ATOM     19  C6  MAL d   1      -5.443 -28.740 -14.825  0.00  0.00     0.043 C 
ATOM     20  H6  MAL d   1      -5.164 -28.419 -13.810  0.00  0.00     0.078 H 
ATOM     21  H7  MAL d   1      -6.042 -27.953 -15.307  0.00  0.00     0.078 H 
BRANCH  19  22
ATOM     22  O6  MAL d   1      -4.234 -28.954 -15.601  0.00  0.00    -0.398 OA
ATOM     23  H11 MAL d   1      -3.709 -29.630 -15.188  0.00  0.00     0.209 HD
ENDBRANCH  19  22
ENDBRANCH   8  19
ENDBRANCH   1   2
BRANCH   1  24
ATOM     24  C4' MAL d   1      -5.721 -33.944 -15.330  0.00  0.00     0.096 C 
ATOM     25  C3' MAL d   1      -5.858 -35.261 -14.533  0.00  0.00     0.092 C 
ATOM     26  C2' MAL d   1      -5.108 -36.377 -15.177  0.00  0.00     0.110 C 
ATOM     27  H14 MAL d   1      -6.926 -35.520 -14.498  0.00  0.00     0.091 H 
ATOM     28  C1' MAL d   1      -5.410 -36.551 -16.647  0.00  0.00     0.156 C 
ATOM     29  H13 MAL d   1      -4.038 -36.141 -15.085  0.00  0.00     0.094 H 
ATOM     30  O5' MAL d   1      -5.211 -35.245 -17.294  0.00  0.00    -0.349 OA
ATOM     31  H12 MAL d   1      -4.741 -37.303 -17.091  0.00  0.00     0.133 H 
ATOM     32  C5' MAL d   1      -5.975 -34.151 -16.811  0.00  0.00     0.089 C 
ATOM     33  H16 MAL d   1      -7.047 -34.358 -16.946  0.00  0.00     0.090 H 
ATOM     34  H15 MAL d   1      -4.695 -33.569 -15.199  0.00  0.00     0.091 H 
BRANCH  25  35
ATOM     35  O3' MAL d   1      -5.362 -35.167 -13.188  0.00  0.00    -0.390 OA
ATOM     36  H21 MAL d   1      -5.473 -36.003 -12.752  0.00  0.00     0.210 HD
ENDBRANCH  25  35
BRANCH  26  37
ATOM     37  O2' MAL d   1      -5.350 -37.638 -14.495  0.00  0.00    -0.388 OA
ATOM     38  H20 MAL d   1      -4.861 -38.329 -14.926  0.00  0.00     0.210 HD
ENDBRANCH  26  37
BRANCH  28  39
ATOM     39  O1' MAL d   1      -6.705 -36.939 -16.789  0.00  0.00    -0.369 OA
ATOM     40  H19 MAL d   1      -6.914 -37.009 -17.713  0.00  0.00     0.212 HD
ENDBRANCH  28  39
BRANCH  32  41
ATOM     41  C6' MAL d   1      -5.587 -32.963 -17.687  0.00  0.00     0.043 C 
ATOM     42  H17 MAL d   1      -6.144 -32.075 -17.354  0.00  0.00     0.078 H 
ATOM     43  H18 MAL d   1      -5.846 -33.188 -18.732  0.00  0.00     0.078 H 
BRANCH  41  44
ATOM     44  O6' MAL d   1      -4.190 -32.696 -17.601  0.00  0.00    -0.398 OA
ATOM     45  H22 MAL d   1      -3.976 -31.954 -18.154  0.00  0.00     0.209 HD
ENDBRANCH  41  44
ENDBRANCH  32  41
ENDBRANCH   1  24
TORSDOF 12
