REMARK  13 active torsions:
REMARK  status: ('A' for Active; 'I' for Inactive)
REMARK    1  A    between atoms: O6_23  and  C1_1 
REMARK    2  A    between atoms: C2_2  and  O2_7 
REMARK    3  A    between atoms: C3_3  and  O3_8 
REMARK    4  A    between atoms: C4_4  and  O4_9 
REMARK    5  A    between atoms: C5_5  and  C6_6 
REMARK    6  A    between atoms: C6_6  and  O6_11 
REMARK    7  A    between atoms: C2_15  and  O1_12 
REMARK    8  A    between atoms: C1_13  and  O2_14 
REMARK    9  A    between atoms: C2_15  and  C1_13 
REMARK   10  A    between atoms: C3_17  and  O4_18 
REMARK   11  A    between atoms: C4_19  and  O5_20 
REMARK   12  A    between atoms: C6_22  and  C5_21 
REMARK   13  A    between atoms: C6_22  and  O6_23 
ROOT
ATOM      1  O6  GLC d   1      -7.082 -33.092 -15.846  0.00  0.00    -0.356 OA
ENDROOT
BRANCH   1   2
ATOM      2  C1  GLC d   1      -6.641 -32.572 -14.571  0.00  0.00     0.158 C 
ATOM      3  C2  GLC d   1      -7.888 -32.407 -13.709  0.00  0.00     0.110 C 
ATOM      4  C3  GLC d   1      -8.852 -31.401 -14.344  0.00  0.00     0.092 C 
ATOM      5  H2  GLC d   1      -7.580 -32.051 -12.715  0.00  0.00     0.094 H 
ATOM      6  C4  GLC d   1      -8.130 -30.060 -14.535  0.00  0.00     0.090 C 
ATOM      7  H3  GLC d   1      -9.182 -31.794 -15.317  0.00  0.00     0.091 H 
ATOM      8  C5  GLC d   1      -6.776 -30.281 -15.303  0.00  0.00     0.089 C 
ATOM      9  H4  GLC d   1      -7.902 -29.666 -13.534  0.00  0.00     0.091 H 
ATOM     10  O5  GLC d   1      -6.013 -31.326 -14.703  0.00  0.00    -0.348 OA
ATOM     11  H5  GLC d   1      -7.022 -30.571 -16.335  0.00  0.00     0.090 H 
ATOM     12  H1  GLC d   1      -5.944 -33.282 -14.102  0.00  0.00     0.133 H 
BRANCH   3  13
ATOM     13  O2  GLC d   1      -8.627 -33.624 -13.570  0.00  0.00    -0.388 OA
ATOM     14  H8  GLC d   1      -8.072 -34.287 -13.178  0.00  0.00     0.210 HD
ENDBRANCH   3  13
BRANCH   4  15
ATOM     15  O3  GLC d   1     -10.019 -31.123 -13.517  0.00  0.00    -0.390 OA
ATOM     16  H9  GLC d   1     -10.577 -30.495 -13.960  0.00  0.00     0.210 HD
ENDBRANCH   4  15
BRANCH   6  17
ATOM     17  O4  GLC d   1      -8.903 -29.053 -15.235  0.00  0.00    -0.390 OA
ATOM     18  H10 GLC d   1      -9.079 -29.349 -16.120  0.00  0.00     0.210 HD
ENDBRANCH   6  17
BRANCH   8  19
ATOM     19  C6  GLC d   1      -5.904 -29.046 -15.353  0.00  0.00     0.043 C 
ATOM     20  H6  GLC d   1      -5.591 -28.786 -14.331  0.00  0.00     0.078 H 
ATOM     21  H7  GLC d   1      -6.484 -28.215 -15.782  0.00  0.00     0.078 H 
BRANCH  19  22
ATOM     22  O6  GLC d   1      -4.718 -29.269 -16.170  0.00  0.00    -0.398 OA
ATOM     23  H11 GLC d   1      -4.211 -29.983 -15.802  0.00  0.00     0.209 HD
ENDBRANCH  19  22
ENDBRANCH   8  19
ENDBRANCH   1   2
BRANCH   1  24
ATOM     24  C6  GLC d   1      -6.037 -33.323 -16.856  0.00  0.00     0.049 C 
ATOM     25  H21 GLC d   1      -6.416 -33.011 -17.840  0.00  0.00     0.078 H 
ATOM     26  H22 GLC d   1      -5.151 -32.724 -16.597  0.00  0.00     0.078 H 
BRANCH  24  27
ATOM     27  C5  GLC d   1      -5.643 -34.780 -16.921  0.00  0.00     0.090 C 
ATOM     28  O3  GLC d   1      -5.187 -35.235 -15.661  0.00  0.00    -0.341 OA
ATOM     29  C2  GLC d   1      -5.478 -36.633 -15.525  0.00  0.00     0.213 C 
ATOM     30  C3  GLC d   1      -6.141 -37.020 -16.819  0.00  0.00     0.118 C 
ATOM     31  C4  GLC d   1      -6.753 -35.729 -17.313  0.00  0.00     0.092 C 
ATOM     32  H16 GLC d   1      -5.375 -37.351 -17.535  0.00  0.00     0.095 H 
ATOM     33  H18 GLC d   1      -7.693 -35.488 -16.795  0.00  0.00     0.091 H 
ATOM     34  H20 GLC d   1      -4.831 -34.870 -17.657  0.00  0.00     0.090 H 
BRANCH  29  35
ATOM     35  O1  GLC d   1      -4.207 -37.270 -15.375  0.00  0.00    -0.362 OA
ATOM     36  H12 GLC d   1      -4.333 -38.207 -15.280  0.00  0.00     0.213 HD
ENDBRANCH  29  35
BRANCH  29  37
ATOM     37  C1  GLC d   1      -6.331 -36.889 -14.303  0.00  0.00     0.071 C 
ATOM     38  H13 GLC d   1      -7.268 -36.319 -14.384  0.00  0.00     0.082 H 
ATOM     39  H14 GLC d   1      -6.560 -37.963 -14.235  0.00  0.00     0.082 H 
BRANCH  37  40
ATOM     40  O2  GLC d   1      -5.612 -36.471 -13.113  0.00  0.00    -0.395 OA
ATOM     41  H15 GLC d   1      -6.149 -36.633 -12.347  0.00  0.00     0.209 HD
ENDBRANCH  37  40
ENDBRANCH  29  37
BRANCH  30  42
ATOM     42  O4  GLC d   1      -7.070 -38.088 -16.669  0.00  0.00    -0.387 OA
ATOM     43  H17 GLC d   1      -7.457 -38.290 -17.513  0.00  0.00     0.210 HD
ENDBRANCH  30  42
BRANCH  31  44
ATOM     44  O5  GLC d   1      -6.993 -35.789 -18.733  0.00  0.00    -0.390 OA
ATOM     45  H19 GLC d   1      -7.589 -36.504 -18.922  0.00  0.00     0.210 HD
ENDBRANCH  31  44
ENDBRANCH  24  27
ENDBRANCH   1  24
TORSDOF 13
