REMARK  13 active torsions:
REMARK  status: ('A' for Active; 'I' for Inactive)
REMARK    1  A    between atoms: O1_7  and  C1_1 
REMARK    2  A    between atoms: C2_2  and  O2_8 
REMARK    3  A    between atoms: C3_3  and  O3_9 
REMARK    4  A    between atoms: C4_4  and  O4_10 
REMARK    5  A    between atoms: C5_5  and  C6_6 
REMARK    6  A    between atoms: C6_6  and  O6_12 
REMARK    7  A    between atoms: C2'_14  and  O1_7 
REMARK    8  A    between atoms: C2'_14  and  C1'_13 
REMARK    9  A    between atoms: C1'_13  and  O1'_19 
REMARK   10  A    between atoms: C3'_15  and  O3'_21 
REMARK   11  A    between atoms: C4'_16  and  O4'_22 
REMARK   12  A    between atoms: C6'_18  and  C5'_17 
REMARK   13  A    between atoms: O6'_23  and  C6'_18 
ROOT
ATOM      1  O1  SUC d   1      -7.053 -33.511 -14.898  0.00  0.00    -0.318 OA
ENDROOT
BRANCH   1   2
ATOM      2  C1  SUC d   1      -6.840 -32.585 -13.807  0.00  0.00     0.162 C 
ATOM      3  C2  SUC d   1      -8.178 -32.233 -13.138  0.00  0.00     0.110 C 
ATOM      4  C3  SUC d   1      -9.042 -31.297 -14.006  0.00  0.00     0.092 C 
ATOM      5  H2  SUC d   1      -7.977 -31.767 -12.162  0.00  0.00     0.094 H 
ATOM      6  C4  SUC d   1      -8.216 -30.050 -14.317  0.00  0.00     0.090 C 
ATOM      7  H3  SUC d   1      -9.329 -31.807 -14.937  0.00  0.00     0.091 H 
ATOM      8  C5  SUC d   1      -6.851 -30.452 -14.952  0.00  0.00     0.089 C 
ATOM      9  H4  SUC d   1      -7.993 -29.571 -13.352  0.00  0.00     0.091 H 
ATOM     10  O5  SUC d   1      -6.124 -31.398 -14.152  0.00  0.00    -0.348 OA
ATOM     11  H5  SUC d   1      -7.068 -30.926 -15.921  0.00  0.00     0.090 H 
ATOM     12  H1  SUC d   1      -6.228 -33.114 -13.062  0.00  0.00     0.133 H 
BRANCH   3  13
ATOM     13  O2  SUC d   1      -8.985 -33.406 -12.980  0.00  0.00    -0.388 OA
ATOM     14  H8  SUC d   1      -8.518 -34.041 -12.450  0.00  0.00     0.210 HD
ENDBRANCH   3  13
BRANCH   4  15
ATOM     15  O3  SUC d   1     -10.210 -30.900 -13.291  0.00  0.00    -0.390 OA
ATOM     16  H9  SUC d   1     -10.717 -30.299 -13.824  0.00  0.00     0.210 HD
ENDBRANCH   4  15
BRANCH   6  17
ATOM     17  O4  SUC d   1      -8.914 -29.068 -15.101  0.00  0.00    -0.390 OA
ATOM     18  H10 SUC d   1      -9.084 -29.419 -15.967  0.00  0.00     0.210 HD
ENDBRANCH   6  17
BRANCH   8  19
ATOM     19  C6  SUC d   1      -5.977 -29.252 -15.205  0.00  0.00     0.043 C 
ATOM     20  H6  SUC d   1      -5.669 -28.841 -14.232  0.00  0.00     0.078 H 
ATOM     21  H7  SUC d   1      -6.572 -28.503 -15.748  0.00  0.00     0.078 H 
BRANCH  19  22
ATOM     22  O6  SUC d   1      -4.776 -29.527 -15.982  0.00  0.00    -0.398 OA
ATOM     23  H11 SUC d   1      -5.022 -29.872 -16.832  0.00  0.00     0.209 HD
ENDBRANCH  19  22
ENDBRANCH   8  19
ENDBRANCH   1   2
BRANCH   1  24
ATOM     24  C2' SUC d   1      -5.973 -34.288 -15.388  0.00  0.00     0.217 C 
ATOM     25  C3' SUC d   1      -5.609 -35.546 -14.545  0.00  0.00     0.118 C 
ATOM     26  C4' SUC d   1      -6.611 -36.540 -15.085  0.00  0.00     0.092 C 
ATOM     27  H14 SUC d   1      -4.583 -35.869 -14.777  0.00  0.00     0.095 H 
ATOM     28  C5' SUC d   1      -6.497 -36.198 -16.581  0.00  0.00     0.089 C 
ATOM     29  H15 SUC d   1      -7.617 -36.283 -14.722  0.00  0.00     0.091 H 
ATOM     30  O2' SUC d   1      -6.442 -34.749 -16.631  0.00  0.00    -0.341 OA
ATOM     31  H16 SUC d   1      -5.603 -36.661 -17.023  0.00  0.00     0.090 H 
BRANCH  24  32
ATOM     32  C1' SUC d   1      -4.723 -33.382 -15.648  0.00  0.00     0.071 C 
ATOM     33  H12 SUC d   1      -4.332 -33.008 -14.690  0.00  0.00     0.082 H 
ATOM     34  H13 SUC d   1      -5.009 -32.532 -16.284  0.00  0.00     0.082 H 
BRANCH  32  35
ATOM     35  O1' SUC d   1      -3.718 -34.158 -16.307  0.00  0.00    -0.395 OA
ATOM     36  H19 SUC d   1      -4.059 -34.480 -17.133  0.00  0.00     0.209 HD
ENDBRANCH  32  35
ENDBRANCH  24  32
BRANCH  25  37
ATOM     37  O3' SUC d   1      -5.698 -35.380 -13.144  0.00  0.00    -0.387 OA
ATOM     38  H20 SUC d   1      -6.566 -35.068 -12.918  0.00  0.00     0.210 HD
ENDBRANCH  25  37
BRANCH  26  39
ATOM     39  O4' SUC d   1      -6.397 -37.910 -14.738  0.00  0.00    -0.390 OA
ATOM     40  H21 SUC d   1      -5.522 -38.170 -15.003  0.00  0.00     0.210 HD
ENDBRANCH  26  39
BRANCH  28  41
ATOM     41  C6' SUC d   1      -7.723 -36.594 -17.335  0.00  0.00     0.043 C 
ATOM     42  H17 SUC d   1      -8.544 -35.923 -17.042  0.00  0.00     0.078 H 
ATOM     43  H18 SUC d   1      -7.980 -37.628 -17.063  0.00  0.00     0.078 H 
BRANCH  41  44
ATOM     44  O6' SUC d   1      -7.567 -36.525 -18.760  0.00  0.00    -0.398 OA
ATOM     45  H22 SUC d   1      -6.867 -37.108 -19.029  0.00  0.00     0.209 HD
ENDBRANCH  41  44
ENDBRANCH  28  41
ENDBRANCH   1  24
TORSDOF 13
