REMARK  6 active torsions:
REMARK  status: ('A' for Active; 'I' for Inactive)
REMARK    1  A    between atoms: C1_1  and  O1_7 
REMARK    2  A    between atoms: C2_2  and  O2_8 
REMARK    3  A    between atoms: C3_3  and  O3_9 
REMARK    4  A    between atoms: C4_4  and  O4_10 
REMARK    5  A    between atoms: C6_6  and  C5_5 
REMARK    6  A    between atoms: O6_12  and  C6_6 
ROOT
ATOM      1  C1  GLC d   1      -6.525 -32.209 -14.066  0.00  0.00     0.156 C 
ATOM      2  C2  GLC d   1      -7.786 -31.919 -13.275  0.00  0.00     0.110 C 
ATOM      3  C3  GLC d   1      -8.623 -30.886 -14.007  0.00  0.00     0.092 C 
ATOM      4  C4  GLC d   1      -7.789 -29.629 -14.191  0.00  0.00     0.090 C 
ATOM      5  C5  GLC d   1      -6.498 -29.969 -14.934  0.00  0.00     0.089 C 
ATOM      6  O5  GLC d   1      -5.805 -30.978 -14.243  0.00  0.00    -0.349 OA
ATOM      7  H1  GLC d   1      -5.893 -32.908 -13.499  0.00  0.00     0.133 H 
ATOM      8  H2  GLC d   1      -7.519 -31.533 -12.280  0.00  0.00     0.094 H 
ATOM      9  H3  GLC d   1      -8.929 -31.275 -14.989  0.00  0.00     0.091 H 
ATOM     10  H4  GLC d   1      -7.543 -29.201 -13.208  0.00  0.00     0.091 H 
ATOM     11  H5  GLC d   1      -6.744 -30.318 -15.948  0.00  0.00     0.090 H 
ENDROOT
BRANCH   5  12
ATOM     12  C6  GLC d   1      -5.601 -28.743 -15.022  0.00  0.00     0.043 C 
ATOM     13  H6  GLC d   1      -5.271 -28.477 -14.007  0.00  0.00     0.078 H 
ATOM     14  H7  GLC d   1      -6.183 -27.913 -15.448  0.00  0.00     0.078 H 
BRANCH  12  15
ATOM     15  O6  GLC d   1      -4.434 -28.956 -15.844  0.00  0.00    -0.398 OA
ATOM     16  H12 GLC d   1      -4.706 -29.179 -16.726  0.00  0.00     0.209 HD
ENDBRANCH  12  15
ENDBRANCH   5  12
BRANCH   4  17
ATOM     17  O4  GLC d   1      -8.547 -28.690 -14.947  0.00  0.00    -0.390 OA
ATOM     18  H11 GLC d   1      -8.760 -29.065 -15.793  0.00  0.00     0.210 HD
ENDBRANCH   4  17
BRANCH   3  19
ATOM     19  O3  GLC d   1      -9.789 -30.602 -13.212  0.00  0.00    -0.390 OA
ATOM     20  H10 GLC d   1     -10.315 -29.942 -13.648  0.00  0.00     0.210 HD
ENDBRANCH   3  19
BRANCH   1  21
ATOM     21  O1  GLC d   1      -6.868 -32.810 -15.289  0.00  0.00    -0.369 OA
ATOM     22  H8  GLC d   1      -6.077 -33.000 -15.780  0.00  0.00     0.212 HD
ENDBRANCH   1  21
BRANCH   2  23
ATOM     23  O2  GLC d   1      -8.522 -33.144 -13.136  0.00  0.00    -0.388 OA
ATOM     24  H9  GLC d   1      -7.989 -33.782 -12.677  0.00  0.00     0.210 HD
ENDBRANCH   2  23
TORSDOF 6
