REMARK  8 active torsions:
REMARK  status: ('A' for Active; 'I' for Inactive)
REMARK    1  A    between atoms: N1_1  and  C1_13 
REMARK    2  A    between atoms: C8_7  and  N4_24 
REMARK    3  A    between atoms: C10_8  and  C11_14 
REMARK    4  A    between atoms: S2_26  and  C10_8 
REMARK    5  A    between atoms: C17_11  and  C18_18 
REMARK    6  A    between atoms: N4_24  and  C17_11 
REMARK    7  A    between atoms: C18_18  and  C19_19 
REMARK    8  A    between atoms: C9_22  and  S2_26 
ROOT
ATOM      1  N1  BC0 d   1       9.803  -9.970   1.468  0.00  0.00    -0.070 N 
ATOM      2  N3  BC0 d   1      14.459 -12.500   4.943  0.00  0.00    -0.215 NA
ATOM      3  C4  BC0 d   1      11.318 -11.682   3.183  0.00  0.00    -0.025 A 
ATOM      4  C5  BC0 d   1      11.920 -10.893   2.281  0.00  0.00     0.018 A 
ATOM      5  C6  BC0 d   1      13.553 -11.979   4.058  0.00  0.00     0.115 A 
ATOM      6  C7  BC0 d   1      12.228 -12.301   4.190  0.00  0.00     0.053 A 
ATOM      7  C8  BC0 d   1      11.871 -13.188   5.275  0.00  0.00     0.140 A 
ATOM      8  C20 BC0 d   1      11.136 -10.217   1.220  0.00  0.00     0.113 C 
ATOM      9  C2  BC0 d   1       9.039 -10.950   2.125  0.00  0.00     0.087 C 
ATOM     10  C3  BC0 d   1       9.801 -11.888   3.122  0.00  0.00    -0.016 C 
ATOM     11  C9  BC0 d   1      14.078 -13.335   5.945  0.00  0.00     0.191 A 
ATOM     12  N2  BC0 d   1      12.792 -13.647   6.083  0.00  0.00    -0.204 NA
ATOM     13  S1  BC0 d   1      13.582 -10.946   2.705  0.00  0.00    -0.072 SA
ATOM     14  H1  BC0 d   1       9.809  -9.187   2.103  0.00  0.00     0.279 HD
ATOM     15  H8  BC0 d   1      11.618  -9.248   1.022  0.00  0.00     0.084 H 
ATOM     16  H9  BC0 d   1      11.192 -10.846   0.319  0.00  0.00     0.084 H 
ATOM     17  H18 BC0 d   1       8.580 -11.586   1.354  0.00  0.00     0.076 H 
ATOM     18  H19 BC0 d   1       8.250 -10.433   2.691  0.00  0.00     0.076 H 
ATOM     19  H20 BC0 d   1       9.394 -11.716   4.129  0.00  0.00     0.042 H 
ATOM     20  H21 BC0 d   1       9.611 -12.929   2.822  0.00  0.00     0.042 H 
ENDROOT
BRANCH  11  21
ATOM     21  S2  BC0 d   1      15.238 -14.084   7.199  0.00  0.00    -0.085 SA
BRANCH  21  22
ATOM     22  C10 BC0 d   1      16.437 -15.320   6.506  0.00  0.00     0.008 C 
ATOM     23  H2  BC0 d   1      15.892 -15.880   5.732  0.00  0.00     0.056 H 
ATOM     24  H3  BC0 d   1      17.244 -14.739   6.037  0.00  0.00     0.056 H 
BRANCH  22  25
ATOM     25  C11 BC0 d   1      17.153 -16.418   7.440  0.00  0.00    -0.048 A 
ATOM     26  C12 BC0 d   1      18.309 -16.150   8.191  0.00  0.00    -0.074 A 
ATOM     27  C13 BC0 d   1      18.911 -17.157   8.970  0.00  0.00    -0.061 A 
ATOM     28  H13 BC0 d   1      18.743 -15.157   8.171  0.00  0.00     0.084 H 
ATOM     29  C14 BC0 d   1      18.382 -18.425   8.985  0.00  0.00     0.034 A 
ATOM     30  H4  BC0 d   1      19.793 -16.931   9.559  0.00  0.00     0.086 H 
ATOM     31  C15 BC0 d   1      17.264 -18.698   8.233  0.00  0.00    -0.061 A 
ATOM     32 CL   BC0 d   1      19.157 -19.724   9.976  0.00  0.00    -0.084 Cl
ATOM     33  C16 BC0 d   1      16.656 -17.676   7.458  0.00  0.00    -0.074 A 
ATOM     34  H5  BC0 d   1      16.845 -19.698   8.232  0.00  0.00     0.086 H 
ATOM     35  H14 BC0 d   1      15.776 -17.908   6.869  0.00  0.00     0.084 H 
ENDBRANCH  22  25
ENDBRANCH  21  22
ENDBRANCH  11  21
BRANCH   7  36
ATOM     36  N4  BC0 d   1      10.468 -13.578   5.474  0.00  0.00    -0.370 N 
ATOM     37  H22 BC0 d   1       9.851 -13.710   4.660  0.00  0.00     0.161 HD
BRANCH  36  38
ATOM     38  C17 BC0 d   1       9.944 -13.780   6.825  0.00  0.00     0.008 C 
ATOM     39  H6  BC0 d   1      10.275 -14.757   7.207  0.00  0.00     0.070 H 
ATOM     40  H7  BC0 d   1      10.313 -12.983   7.487  0.00  0.00     0.070 H 
BRANCH  38  41
ATOM     41  C18 BC0 d   1       8.391 -13.739   6.776  0.00  0.00    -0.095 C 
ATOM     42  H15 BC0 d   1       7.875 -12.827   6.479  0.00  0.00     0.078 H 
BRANCH  41  43
ATOM     43  C19 BC0 d   1       7.708 -14.808   7.094  0.00  0.00    -0.123 C 
ATOM     44  H16 BC0 d   1       6.620 -14.788   7.062  0.00  0.00     0.066 H 
ATOM     45  H17 BC0 d   1       8.228 -15.718   7.390  0.00  0.00     0.066 H 
ENDBRANCH  41  43
ENDBRANCH  38  41
ENDBRANCH  36  38
ENDBRANCH   7  36
BRANCH   1  46
ATOM     46  C1  BC0 d   1       9.199  -9.565   0.416  0.00  0.00     0.067 C 
ATOM     47  H10 BC0 d   1       8.140  -9.378   0.650  0.00  0.00     0.068 H 
ATOM     48  H11 BC0 d   1       9.271 -10.334  -0.367  0.00  0.00     0.068 H 
ATOM     49  H12 BC0 d   1       9.666  -8.634   0.060  0.00  0.00     0.068 H 
ENDBRANCH   1  46
TORSDOF 8
