REMARK  6 active torsions:
REMARK  status: ('A' for Active; 'I' for Inactive)
REMARK    1  A    between atoms: C14_16  and  C13_2 
REMARK    2  A    between atoms: C13_2  and  N01_20 
REMARK    3  A    between atoms: C15_3  and  C14_16 
REMARK    4  A    between atoms: N02_21  and  C15_3 
REMARK    5  A    between atoms: C11_14  and  O01_22 
REMARK    6  A    between atoms: C12_15  and  O02_23 
ROOT
ATOM      1  C10 BBO d   1     -10.306   9.943   1.532  0.00  0.00    -0.072 A 
ATOM      2  C01 BBO d   1      -8.934   9.736   1.446  0.00  0.00    -0.082 A 
ATOM      3  C02 BBO d   1      -8.048  10.518   2.197  0.00  0.00    -0.072 A 
ATOM      4  C03 BBO d   1      -8.540  11.513   3.041  0.00  0.00    -0.025 A 
ATOM      5  C04 BBO d   1      -7.689  12.321   3.812  0.00  0.00    -0.072 A 
ATOM      6  C05 BBO d   1      -8.242  13.307   4.642  0.00  0.00    -0.082 A 
ATOM      7  C06 BBO d   1      -9.603  13.503   4.723  0.00  0.00    -0.072 A 
ATOM      8  C07 BBO d   1     -10.422  12.717   3.972  0.00  0.00     0.009 A 
ATOM      9  C08 BBO d   1      -9.906  11.718   3.127  0.00  0.00    -0.005 A 
ATOM     10  C09 BBO d   1     -10.783  10.926   2.365  0.00  0.00     0.009 A 
ATOM     11  C11 BBO d   1     -12.288  11.147   2.460  0.00  0.00     0.222 A 
ATOM     12  C12 BBO d   1     -11.921  12.938   4.064  0.00  0.00     0.222 A 
ATOM     13  N01 BBO d   1     -12.809  12.142   3.311  0.00  0.00    -0.010 N 
ATOM     14  H1  BBO d   1     -10.990   9.337   0.950  0.00  0.00     0.084 H 
ATOM     15  H8  BBO d   1      -8.547   8.963   0.792  0.00  0.00     0.083 H 
ATOM     16  H9  BBO d   1      -6.980  10.350   2.122  0.00  0.00     0.084 H 
ATOM     17  H10 BBO d   1      -6.615  12.184   3.766  0.00  0.00     0.084 H 
ATOM     18  H11 BBO d   1      -7.582  13.930   5.234  0.00  0.00     0.083 H 
ATOM     19  H12 BBO d   1     -10.014  14.268   5.372  0.00  0.00     0.084 H 
ATOM     20  H13 BBO d   1     -12.234  11.876   1.638  0.00  0.00     0.137 H 
ATOM     21  H14 BBO d   1     -11.868  13.660   3.236  0.00  0.00     0.137 H 
ATOM     22  H23 BBO d   1     -12.871  11.477   4.066  0.00  0.00     0.286 HD
ENDROOT
BRANCH  13  23
ATOM     23  C13 BBO d   1     -14.241  12.373   3.385  0.00  0.00     0.091 C 
ATOM     24  H2  BBO d   1     -14.399  13.424   3.668  0.00  0.00     0.076 H 
ATOM     25  H3  BBO d   1     -14.663  12.195   2.385  0.00  0.00     0.076 H 
BRANCH  23  26
ATOM     26  C14 BBO d   1     -15.008  11.500   4.379  0.00  0.00    -0.019 C 
ATOM     27  H15 BBO d   1     -14.309  11.105   5.130  0.00  0.00     0.037 H 
ATOM     28  H16 BBO d   1     -15.479  10.664   3.841  0.00  0.00     0.037 H 
BRANCH  26  29
ATOM     29  C15 BBO d   1     -16.094  12.327   5.082  0.00  0.00     0.085 C 
ATOM     30  H4  BBO d   1     -15.603  13.073   5.724  0.00  0.00     0.076 H 
ATOM     31  H5  BBO d   1     -16.701  11.651   5.702  0.00  0.00     0.076 H 
BRANCH  29  32
ATOM     32  N02 BBO d   1     -16.980  13.025   4.156  0.00  0.00    -0.067 N 
ATOM     33  C16 BBO d   1     -18.364  12.654   4.460  0.00  0.00     0.103 C 
ATOM     34  C17 BBO d   1     -19.374  13.808   4.380  0.00  0.00     0.042 C 
ATOM     35  H17 BBO d   1     -18.675  11.878   3.745  0.00  0.00     0.079 H 
ATOM     36  H18 BBO d   1     -18.392  12.245   5.481  0.00  0.00     0.079 H 
ATOM     37  O03 BBO d   1     -18.971  15.030   4.943  0.00  0.00    -0.388 OA
ATOM     38  H6  BBO d   1     -20.290  13.487   4.897  0.00  0.00     0.076 H 
ATOM     39  H7  BBO d   1     -19.596  13.986   3.317  0.00  0.00     0.076 H 
ATOM     40  C18 BBO d   1     -17.629  15.097   5.315  0.00  0.00     0.042 C 
ATOM     41  C19 BBO d   1     -16.752  14.468   4.242  0.00  0.00     0.103 C 
ATOM     42  H19 BBO d   1     -17.341  16.150   5.447  0.00  0.00     0.076 H 
ATOM     43  H20 BBO d   1     -17.488  14.556   6.262  0.00  0.00     0.076 H 
ATOM     44  H21 BBO d   1     -15.696  14.651   4.488  0.00  0.00     0.079 H 
ATOM     45  H22 BBO d   1     -16.987  14.928   3.271  0.00  0.00     0.079 H 
ATOM     46  H24 BBO d   1     -16.770  12.729   3.216  0.00  0.00     0.280 HD
ENDBRANCH  29  32
ENDBRANCH  26  29
ENDBRANCH  23  26
ENDBRANCH  13  23
BRANCH  11  47
ATOM     47  O01 BBO d   1     -13.152  10.356   1.707  0.00  0.00    -0.366 OA
ATOM     48  H25 BBO d   1     -12.646   9.739   1.191  0.00  0.00     0.212 HD
ENDBRANCH  11  47
BRANCH  12  49
ATOM     49  O02 BBO d   1     -12.413  13.934   4.907  0.00  0.00    -0.366 OA
ATOM     50  H26 BBO d   1     -12.907  14.564   4.396  0.00  0.00     0.212 HD
ENDBRANCH  12  49
TORSDOF 6
