REMARK  6 active torsions:
REMARK  status: ('A' for Active; 'I' for Inactive)
REMARK    1  A    between atoms: C9_22  and  C10_2 
REMARK    2  A    between atoms: C10_2  and  N3_25 
REMARK    3  A    between atoms: C13_5  and  C11_3 
REMARK       I    between atoms: C11_3  and  N1_23 
REMARK    4  A    between atoms: C14_6  and  N2_24 
REMARK    5  A    between atoms: C5_18  and  C4_17 
REMARK    6  A    between atoms: N1_23  and  C5_18 
ROOT
ATOM      1  C12 JUK d   1      13.824 -12.486   4.796  0.00  0.00    -0.049 A 
ATOM      2  C13 JUK d   1      13.718 -13.357   5.932  0.00  0.00     0.059 A 
ATOM      3  C14 JUK d   1      12.411 -13.734   6.351  0.00  0.00     0.050 A 
ATOM      4  C15 JUK d   1      12.676 -11.231   2.951  0.00  0.00     0.199 A 
ATOM      5  C16 JUK d   1      12.633 -12.080   4.112  0.00  0.00     0.049 A 
ATOM      6  C17 JUK d   1      11.381 -12.513   4.568  0.00  0.00     0.082 A 
ATOM      7  C18 JUK d   1      11.600 -10.043   1.214  0.00  0.00    -0.011 A 
ATOM      8  C19 JUK d   1      10.367 -11.266   2.760  0.00  0.00     0.136 A 
ATOM      9  C20 JUK d   1       9.126 -10.874   2.095  0.00  0.00    -0.038 A 
ATOM     10  C21 JUK d   1       9.184 -10.035   0.956  0.00  0.00    -0.078 A 
ATOM     11  C22 JUK d   1      10.430  -9.619   0.512  0.00  0.00    -0.067 A 
ATOM     12  N3  JUK d   1      11.292 -13.346   5.681  0.00  0.00     0.005 A 
ATOM     13  N4  JUK d   1      10.277 -12.101   3.893  0.00  0.00    -0.229 NA
ATOM     14  N5  JUK d   1      11.507 -10.854   2.313  0.00  0.00    -0.284 N 
ATOM     15  O1  JUK d   1      13.917 -10.782   2.468  0.00  0.00    -0.171 OA
ATOM     16  H5  JUK d   1      14.799 -12.138   4.458  0.00  0.00     0.086 H 
ATOM     17  H6  JUK d   1      12.580  -9.716   0.870  0.00  0.00     0.112 H 
ATOM     18  H9  JUK d   1       8.166 -11.224   2.472  0.00  0.00     0.089 H 
ATOM     19  H10 JUK d   1       8.275  -9.725   0.443  0.00  0.00     0.083 H 
ATOM     20  H11 JUK d   1      10.516  -8.976  -0.363  0.00  0.00     0.085 H 
ENDROOT
BRANCH   2  21
ATOM     21  C11 JUK d   1      15.099 -13.708   6.628  0.00  0.00     0.254 C 
ATOM     22  N1  JUK d   1      15.746 -14.992   7.198  0.00  0.00    -0.354 N 
ATOM     23  H20 JUK d   1      16.647 -14.812   7.592  0.00  0.00     0.162 HD
ATOM     24  O4  JUK d   1      15.811 -12.722   6.745  0.00  0.00    -0.268 OA
BRANCH  22  25
ATOM     25  C5  JUK d   1      15.375 -16.407   7.308  0.00  0.00     0.019 C 
ATOM     26  H15 JUK d   1      14.405 -16.509   7.816  0.00  0.00     0.068 H 
ATOM     27  H16 JUK d   1      15.316 -16.865   6.310  0.00  0.00     0.068 H 
BRANCH  25  28
ATOM     28  C4  JUK d   1      16.510 -17.091   8.156  0.00  0.00     0.053 C 
ATOM     29  C1  JUK d   1      17.656 -16.434   8.244  0.00  0.00    -0.037 C 
ATOM     30  C2  JUK d   1      18.679 -17.469   8.941  0.00  0.00    -0.043 C 
ATOM     31  H1  JUK d   1      18.016 -16.149   7.244  0.00  0.00     0.036 H 
ATOM     32  H2  JUK d   1      17.538 -15.532   8.862  0.00  0.00     0.036 H 
ATOM     33  C3  JUK d   1      18.122 -18.687   8.833  0.00  0.00     0.020 C 
ATOM     34  H7  JUK d   1      18.820 -17.208  10.000  0.00  0.00     0.036 H 
ATOM     35  H8  JUK d   1      19.651 -17.448   8.425  0.00  0.00     0.036 H 
ATOM     36  O2  JUK d   1      16.988 -18.524   7.806  0.00  0.00    -0.384 OA
ATOM     37  H12 JUK d   1      17.720 -19.014   9.803  0.00  0.00     0.074 H 
ATOM     38  H13 JUK d   1      18.862 -19.419   8.477  0.00  0.00     0.074 H 
ATOM     39  H14 JUK d   1      16.085 -17.143   9.169  0.00  0.00     0.085 H 
ENDBRANCH  25  28
ENDBRANCH  22  25
ENDBRANCH   2  21
BRANCH   3  40
ATOM     40  N2  JUK d   1      12.280 -14.563   7.475  0.00  0.00    -0.398 N 
ATOM     41  H21 JUK d   1      13.118 -14.865   7.993  0.00  0.00     0.156 HD
ATOM     42  H22 JUK d   1      11.346 -14.870   7.783  0.00  0.00     0.156 HD
ENDBRANCH   3  40
BRANCH  12  43
ATOM     43  C10 JUK d   1       9.922 -13.775   6.186  0.00  0.00     0.008 C 
ATOM     44  H3  JUK d   1      10.005 -13.912   7.274  0.00  0.00     0.050 H 
ATOM     45  H4  JUK d   1       9.224 -12.952   5.972  0.00  0.00     0.050 H 
BRANCH  43  46
ATOM     46  C9  JUK d   1       9.304 -15.050   5.617  0.00  0.00     0.057 A 
ATOM     47  C6  JUK d   1       8.630 -15.133   4.434  0.00  0.00    -0.052 A 
ATOM     48  C7  JUK d   1       8.217 -16.543   4.383  0.00  0.00    -0.059 A 
ATOM     49  H17 JUK d   1       8.443 -14.346   3.705  0.00  0.00     0.087 H 
ATOM     50  C8  JUK d   1       8.683 -17.125   5.546  0.00  0.00     0.019 A 
ATOM     51  H18 JUK d   1       7.656 -17.031   3.587  0.00  0.00     0.086 H 
ATOM     52  O3  JUK d   1       9.301 -16.226   6.247  0.00  0.00    -0.327 OA
ATOM     53  H19 JUK d   1       8.553 -18.169   5.828  0.00  0.00     0.123 H 
ENDBRANCH  43  46
ENDBRANCH  12  43
TORSDOF 6
