REMARK  12 active torsions:
REMARK  status: ('A' for Active; 'I' for Inactive)
REMARK    1  A    between atoms: O1_7  and  C1_1 
REMARK    2  A    between atoms: C2_2  and  O2_8 
REMARK    3  A    between atoms: C3_3  and  O3_9 
REMARK    4  A    between atoms: C4_4  and  O4_10 
REMARK    5  A    between atoms: C5_5  and  C6_6 
REMARK    6  A    between atoms: C6_6  and  O6_12 
REMARK    7  A    between atoms: C1P_13  and  O1_7 
REMARK    8  A    between atoms: C2P_14  and  O2P_19 
REMARK    9  A    between atoms: C3P_15  and  O3P_20 
REMARK   10  A    between atoms: C4P_16  and  O4P_21 
REMARK   11  A    between atoms: C6P_18  and  C5P_17 
REMARK   12  A    between atoms: O6P_23  and  C6P_18 
ROOT
ATOM      1  O1  TRE d   1      -6.561 -33.038 -15.204  0.00  0.00    -0.326 OA
ENDROOT
BRANCH   1   2
ATOM      2  C1  TRE d   1      -6.358 -32.342 -13.998  0.00  0.00     0.162 C 
ATOM      3  C2  TRE d   1      -7.694 -32.083 -13.266  0.00  0.00     0.110 C 
ATOM      4  C3  TRE d   1      -8.526 -31.050 -14.075  0.00  0.00     0.092 C 
ATOM      5  H2  TRE d   1      -7.488 -31.680 -12.264  0.00  0.00     0.094 H 
ATOM      6  C4  TRE d   1      -7.736 -29.767 -14.271  0.00  0.00     0.090 C 
ATOM      7  H3  TRE d   1      -8.787 -31.470 -15.057  0.00  0.00     0.091 H 
ATOM      8  C5  TRE d   1      -6.431 -30.145 -14.994  0.00  0.00     0.089 C 
ATOM      9  H4  TRE d   1      -7.494 -29.329 -13.291  0.00  0.00     0.091 H 
ATOM     10  O5  TRE d   1      -5.685 -31.075 -14.198  0.00  0.00    -0.348 OA
ATOM     11  H5  TRE d   1      -6.675 -30.592 -15.969  0.00  0.00     0.090 H 
ATOM     12  H1  TRE d   1      -5.725 -32.969 -13.353  0.00  0.00     0.133 H 
BRANCH   3  13
ATOM     13  O2  TRE d   1      -8.435 -33.325 -13.138  0.00  0.00    -0.388 OA
ATOM     14  H8  TRE d   1      -7.920 -33.950 -12.643  0.00  0.00     0.210 HD
ENDBRANCH   3  13
BRANCH   4  15
ATOM     15  O3  TRE d   1      -9.748 -30.770 -13.310  0.00  0.00    -0.390 OA
ATOM     16  H9  TRE d   1     -10.280 -30.142 -13.784  0.00  0.00     0.210 HD
ENDBRANCH   4  15
BRANCH   6  17
ATOM     17  O4  TRE d   1      -8.509 -28.821 -15.015  0.00  0.00    -0.390 OA
ATOM     18  H10 TRE d   1      -8.735 -29.193 -15.860  0.00  0.00     0.210 HD
ENDBRANCH   6  17
BRANCH   8  19
ATOM     19  C6  TRE d   1      -5.553 -28.952 -15.190  0.00  0.00     0.043 C 
ATOM     20  H6  TRE d   1      -5.180 -28.621 -14.210  0.00  0.00     0.078 H 
ATOM     21  H7  TRE d   1      -6.146 -28.146 -15.648  0.00  0.00     0.078 H 
BRANCH  19  22
ATOM     22  O6  TRE d   1      -4.406 -29.249 -16.058  0.00  0.00    -0.398 OA
ATOM     23  H11 TRE d   1      -3.885 -29.940 -15.667  0.00  0.00     0.209 HD
ENDBRANCH  19  22
ENDBRANCH   8  19
ENDBRANCH   1   2
BRANCH   1  24
ATOM     24  C1P TRE d   1      -5.359 -33.530 -15.788  0.00  0.00     0.162 C 
ATOM     25  C2P TRE d   1      -5.716 -34.056 -17.141  0.00  0.00     0.110 C 
ATOM     26  C3P TRE d   1      -6.592 -35.290 -17.045  0.00  0.00     0.092 C 
ATOM     27  H13 TRE d   1      -4.779 -34.346 -17.640  0.00  0.00     0.094 H 
ATOM     28  C4P TRE d   1      -5.934 -36.264 -16.096  0.00  0.00     0.090 C 
ATOM     29  H14 TRE d   1      -7.587 -35.014 -16.665  0.00  0.00     0.091 H 
ATOM     30  C5P TRE d   1      -5.691 -35.655 -14.748  0.00  0.00     0.089 C 
ATOM     31  H15 TRE d   1      -4.990 -36.639 -16.518  0.00  0.00     0.091 H 
ATOM     32  O5P TRE d   1      -4.830 -34.518 -14.939  0.00  0.00    -0.348 OA
ATOM     33  H16 TRE d   1      -6.637 -35.322 -14.296  0.00  0.00     0.090 H 
ATOM     34  H12 TRE d   1      -4.626 -32.717 -15.895  0.00  0.00     0.133 H 
BRANCH  25  35
ATOM     35  O2P TRE d   1      -6.345 -33.072 -17.944  0.00  0.00    -0.388 OA
ATOM     36  H19 TRE d   1      -7.178 -32.833 -17.556  0.00  0.00     0.210 HD
ENDBRANCH  25  35
BRANCH  26  37
ATOM     37  O3P TRE d   1      -6.723 -35.891 -18.357  0.00  0.00    -0.390 OA
ATOM     38  H20 TRE d   1      -7.255 -36.675 -18.293  0.00  0.00     0.210 HD
ENDBRANCH  26  37
BRANCH  28  39
ATOM     39  O4P TRE d   1      -6.875 -37.298 -15.932  0.00  0.00    -0.390 OA
ATOM     40  H21 TRE d   1      -7.049 -37.703 -16.774  0.00  0.00     0.210 HD
ENDBRANCH  28  39
BRANCH  30  41
ATOM     41  C6P TRE d   1      -5.055 -36.779 -13.859  0.00  0.00     0.043 C 
ATOM     42  H17 TRE d   1      -4.037 -37.026 -14.194  0.00  0.00     0.078 H 
ATOM     43  H18 TRE d   1      -5.673 -37.689 -13.861  0.00  0.00     0.078 H 
BRANCH  41  44
ATOM     44  O6P TRE d   1      -5.044 -36.180 -12.611  0.00  0.00    -0.398 OA
ATOM     45  H22 TRE d   1      -5.933 -35.961 -12.358  0.00  0.00     0.209 HD
ENDBRANCH  41  44
ENDBRANCH  30  41
ENDBRANCH   1  24
TORSDOF 12
