REMARK  12 active torsions:
REMARK  status: ('A' for Active; 'I' for Inactive)
REMARK    1  A    between atoms: O1_7  and  C1_1 
REMARK    2  A    between atoms: C2_2  and  O2_8 
REMARK    3  A    between atoms: C3_3  and  O3_9 
REMARK    4  A    between atoms: C4_4  and  O4_10 
REMARK    5  A    between atoms: C5_5  and  C6_6 
REMARK    6  A    between atoms: C6_6  and  O6_12 
REMARK    7  A    between atoms: C4'_16  and  O1_7 
REMARK    8  A    between atoms: C1'_13  and  O1'_19 
REMARK    9  A    between atoms: C2'_14  and  O2'_20 
REMARK   10  A    between atoms: C3'_15  and  O3'_21 
REMARK   11  A    between atoms: C6'_18  and  C5'_17 
REMARK   12  A    between atoms: O6'_23  and  C6'_18 
ROOT
ATOM      1  O1  MAL d   1      -6.825 -33.356 -14.955  0.00  0.00    -0.348 OA
ENDROOT
BRANCH   1   2
ATOM      2  C1  MAL d   1      -6.593 -32.536 -13.822  0.00  0.00     0.159 C 
ATOM      3  C2  MAL d   1      -7.967 -32.230 -13.181  0.00  0.00     0.110 C 
ATOM      4  C3  MAL d   1      -8.728 -31.269 -14.034  0.00  0.00     0.092 C 
ATOM      5  H2  MAL d   1      -7.807 -31.801 -12.181  0.00  0.00     0.094 H 
ATOM      6  C4  MAL d   1      -7.944 -29.965 -14.255  0.00  0.00     0.090 C 
ATOM      7  H3  MAL d   1      -8.941 -31.736 -15.007  0.00  0.00     0.091 H 
ATOM      8  C5  MAL d   1      -6.629 -30.351 -14.944  0.00  0.00     0.089 C 
ATOM      9  H4  MAL d   1      -7.723 -29.514 -13.277  0.00  0.00     0.091 H 
ATOM     10  O5  MAL d   1      -5.908 -31.311 -14.167  0.00  0.00    -0.348 OA
ATOM     11  H5  MAL d   1      -6.838 -30.745 -15.950  0.00  0.00     0.090 H 
ATOM     12  H1  MAL d   1      -5.972 -33.089 -13.102  0.00  0.00     0.133 H 
BRANCH   3  13
ATOM     13  O2  MAL d   1      -8.773 -33.395 -13.079  0.00  0.00    -0.388 OA
ATOM     14  H8  MAL d   1      -8.923 -33.752 -13.947  0.00  0.00     0.210 HD
ENDBRANCH   3  13
BRANCH   4  15
ATOM     15  O3  MAL d   1      -9.997 -30.933 -13.344  0.00  0.00    -0.390 OA
ATOM     16  H9  MAL d   1     -10.501 -30.335 -13.884  0.00  0.00     0.210 HD
ENDBRANCH   4  15
BRANCH   6  17
ATOM     17  O4  MAL d   1      -8.655 -29.014 -15.025  0.00  0.00    -0.390 OA
ATOM     18  H10 MAL d   1      -8.852 -29.383 -15.878  0.00  0.00     0.210 HD
ENDBRANCH   6  17
BRANCH   8  19
ATOM     19  C6  MAL d   1      -5.723 -29.145 -15.015  0.00  0.00     0.043 C 
ATOM     20  H6  MAL d   1      -5.345 -28.925 -14.006  0.00  0.00     0.078 H 
ATOM     21  H7  MAL d   1      -6.302 -28.286 -15.385  0.00  0.00     0.078 H 
BRANCH  19  22
ATOM     22  O6  MAL d   1      -4.594 -29.367 -15.902  0.00  0.00    -0.398 OA
ATOM     23  H11 MAL d   1      -4.912 -29.553 -16.778  0.00  0.00     0.209 HD
ENDBRANCH  19  22
ENDBRANCH   8  19
ENDBRANCH   1   2
BRANCH   1  24
ATOM     24  C4' MAL d   1      -5.794 -34.328 -15.240  0.00  0.00     0.096 C 
ATOM     25  C3' MAL d   1      -6.142 -35.673 -14.649  0.00  0.00     0.092 C 
ATOM     26  C2' MAL d   1      -5.308 -36.735 -15.310  0.00  0.00     0.110 C 
ATOM     27  H14 MAL d   1      -7.215 -35.885 -14.763  0.00  0.00     0.091 H 
ATOM     28  C1' MAL d   1      -5.517 -36.698 -16.820  0.00  0.00     0.156 C 
ATOM     29  H13 MAL d   1      -4.247 -36.554 -15.083  0.00  0.00     0.094 H 
ATOM     30  O5' MAL d   1      -5.054 -35.422 -17.299  0.00  0.00    -0.349 OA
ATOM     31  H12 MAL d   1      -4.890 -37.485 -17.263  0.00  0.00     0.133 H 
ATOM     32  C5' MAL d   1      -5.719 -34.286 -16.720  0.00  0.00     0.089 C 
ATOM     33  H16 MAL d   1      -6.711 -34.127 -17.168  0.00  0.00     0.090 H 
ATOM     34  H15 MAL d   1      -4.833 -34.008 -14.812  0.00  0.00     0.091 H 
BRANCH  25  35
ATOM     35  O3' MAL d   1      -5.758 -35.654 -13.277  0.00  0.00    -0.390 OA
ATOM     36  H21 MAL d   1      -5.966 -36.491 -12.879  0.00  0.00     0.210 HD
ENDBRANCH  25  35
BRANCH  26  37
ATOM     37  O2' MAL d   1      -5.694 -38.058 -14.812  0.00  0.00    -0.388 OA
ATOM     38  H20 MAL d   1      -5.162 -38.722 -15.235  0.00  0.00     0.210 HD
ENDBRANCH  26  37
BRANCH  28  39
ATOM     39  O1' MAL d   1      -6.823 -36.934 -17.233  0.00  0.00    -0.369 OA
ATOM     40  H19 MAL d   1      -6.859 -36.930 -18.182  0.00  0.00     0.212 HD
ENDBRANCH  28  39
BRANCH  32  41
ATOM     41  C6' MAL d   1      -4.715 -33.134 -16.996  0.00  0.00     0.043 C 
ATOM     42  H17 MAL d   1      -3.718 -33.420 -16.631  0.00  0.00     0.078 H 
ATOM     43  H18 MAL d   1      -5.048 -32.224 -16.476  0.00  0.00     0.078 H 
BRANCH  41  44
ATOM     44  O6' MAL d   1      -4.658 -32.898 -18.331  0.00  0.00    -0.398 OA
ATOM     45  H22 MAL d   1      -4.044 -32.193 -18.501  0.00  0.00     0.209 HD
ENDBRANCH  41  44
ENDBRANCH  32  41
ENDBRANCH   1  24
TORSDOF 12
