REMARK  13 active torsions:
REMARK  status: ('A' for Active; 'I' for Inactive)
REMARK    1  A    between atoms: O1_7  and  C1_1 
REMARK    2  A    between atoms: C2_2  and  O2_8 
REMARK    3  A    between atoms: C3_3  and  O3_9 
REMARK    4  A    between atoms: C4_4  and  O4_10 
REMARK    5  A    between atoms: C5_5  and  C6_6 
REMARK    6  A    between atoms: C6_6  and  O6_12 
REMARK    7  A    between atoms: C2'_14  and  O1_7 
REMARK    8  A    between atoms: C2'_14  and  C1'_13 
REMARK    9  A    between atoms: C1'_13  and  O1'_19 
REMARK   10  A    between atoms: C3'_15  and  O3'_21 
REMARK   11  A    between atoms: C4'_16  and  O4'_22 
REMARK   12  A    between atoms: C6'_18  and  C5'_17 
REMARK   13  A    between atoms: O6'_23  and  C6'_18 
ROOT
ATOM      1  O1  SUC d   1      -6.624 -33.309 -14.690  0.00  0.00    -0.318 OA
ENDROOT
BRANCH   1   2
ATOM      2  C1  SUC d   1      -6.404 -32.369 -13.601  0.00  0.00     0.162 C 
ATOM      3  C2  SUC d   1      -7.734 -32.017 -12.966  0.00  0.00     0.110 C 
ATOM      4  C3  SUC d   1      -8.524 -31.027 -13.816  0.00  0.00     0.092 C 
ATOM      5  H2  SUC d   1      -7.544 -31.573 -11.978  0.00  0.00     0.094 H 
ATOM      6  C4  SUC d   1      -7.659 -29.786 -14.069  0.00  0.00     0.090 C 
ATOM      7  H3  SUC d   1      -8.746 -31.494 -14.787  0.00  0.00     0.091 H 
ATOM      8  C5  SUC d   1      -6.359 -30.237 -14.717  0.00  0.00     0.089 C 
ATOM      9  H4  SUC d   1      -7.428 -29.294 -13.113  0.00  0.00     0.091 H 
ATOM     10  O5  SUC d   1      -5.663 -31.221 -13.926  0.00  0.00    -0.348 OA
ATOM     11  H5  SUC d   1      -6.598 -30.697 -15.687  0.00  0.00     0.090 H 
ATOM     12  H1  SUC d   1      -5.814 -32.905 -12.843  0.00  0.00     0.133 H 
BRANCH   3  13
ATOM     13  O2  SUC d   1      -8.530 -33.176 -12.817  0.00  0.00    -0.388 OA
ATOM     14  H8  SUC d   1      -8.063 -33.814 -12.290  0.00  0.00     0.210 HD
ENDBRANCH   3  13
BRANCH   4  15
ATOM     15  O3  SUC d   1      -9.786 -30.712 -13.172  0.00  0.00    -0.390 OA
ATOM     16  H9  SUC d   1     -10.283 -30.119 -13.724  0.00  0.00     0.210 HD
ENDBRANCH   4  15
BRANCH   6  17
ATOM     17  O4  SUC d   1      -8.393 -28.882 -14.885  0.00  0.00    -0.390 OA
ATOM     18  H10 SUC d   1      -8.608 -29.304 -15.709  0.00  0.00     0.210 HD
ENDBRANCH   6  17
BRANCH   8  19
ATOM     19  C6  SUC d   1      -5.484 -28.991 -14.970  0.00  0.00     0.043 C 
ATOM     20  H6  SUC d   1      -5.158 -28.585 -14.001  0.00  0.00     0.078 H 
ATOM     21  H7  SUC d   1      -6.086 -28.238 -15.499  0.00  0.00     0.078 H 
BRANCH  19  22
ATOM     22  O6  SUC d   1      -4.301 -29.294 -15.773  0.00  0.00    -0.398 OA
ATOM     23  H11 SUC d   1      -4.572 -29.639 -16.616  0.00  0.00     0.209 HD
ENDBRANCH  19  22
ENDBRANCH   8  19
ENDBRANCH   1   2
BRANCH   1  24
ATOM     24  C2' SUC d   1      -5.491 -34.076 -15.132  0.00  0.00     0.217 C 
ATOM     25  C3' SUC d   1      -5.178 -35.323 -14.260  0.00  0.00     0.118 C 
ATOM     26  C4' SUC d   1      -6.253 -36.332 -14.707  0.00  0.00     0.092 C 
ATOM     27  H14 SUC d   1      -4.187 -35.698 -14.556  0.00  0.00     0.095 H 
ATOM     28  C5' SUC d   1      -6.156 -36.066 -16.207  0.00  0.00     0.089 C 
ATOM     29  H15 SUC d   1      -7.237 -36.041 -14.311  0.00  0.00     0.091 H 
ATOM     30  O2' SUC d   1      -5.931 -34.663 -16.370  0.00  0.00    -0.341 OA
ATOM     31  H16 SUC d   1      -5.290 -36.618 -16.601  0.00  0.00     0.090 H 
BRANCH  24  32
ATOM     32  C1' SUC d   1      -4.276 -33.155 -15.384  0.00  0.00     0.071 C 
ATOM     33  H12 SUC d   1      -3.930 -32.720 -14.435  0.00  0.00     0.082 H 
ATOM     34  H13 SUC d   1      -4.553 -32.348 -16.078  0.00  0.00     0.082 H 
BRANCH  32  35
ATOM     35  O1' SUC d   1      -3.256 -33.951 -15.951  0.00  0.00    -0.395 OA
ATOM     36  H19 SUC d   1      -3.566 -34.326 -16.767  0.00  0.00     0.209 HD
ENDBRANCH  32  35
ENDBRANCH  24  32
BRANCH  25  37
ATOM     37  O3' SUC d   1      -5.134 -35.174 -12.821  0.00  0.00    -0.387 OA
ATOM     38  H20 SUC d   1      -5.977 -34.866 -12.510  0.00  0.00     0.210 HD
ENDBRANCH  25  37
BRANCH  26  39
ATOM     39  O4' SUC d   1      -6.049 -37.716 -14.374  0.00  0.00    -0.390 OA
ATOM     40  H21 SUC d   1      -5.185 -37.986 -14.662  0.00  0.00     0.210 HD
ENDBRANCH  26  39
BRANCH  28  41
ATOM     41  C6' SUC d   1      -7.352 -36.492 -16.978  0.00  0.00     0.043 C 
ATOM     42  H17 SUC d   1      -8.233 -35.956 -16.594  0.00  0.00     0.078 H 
ATOM     43  H18 SUC d   1      -7.495 -37.575 -16.845  0.00  0.00     0.078 H 
BRANCH  41  44
ATOM     44  O6' SUC d   1      -7.210 -36.209 -18.389  0.00  0.00    -0.398 OA
ATOM     45  H22 SUC d   1      -6.454 -36.673 -18.729  0.00  0.00     0.209 HD
ENDBRANCH  41  44
ENDBRANCH  28  41
ENDBRANCH   1  24
TORSDOF 13
