REMARK  12 active torsions:
REMARK  status: ('A' for Active; 'I' for Inactive)
REMARK    1  A    between atoms: PG_1  and  S1G_2 
REMARK    2  A    between atoms: O3B_8  and  PG_1 
REMARK    3  A    between atoms: PB_5  and  O3B_8 
REMARK    4  A    between atoms: O3A_12  and  PB_5 
REMARK    5  A    between atoms: PA_9  and  O3A_12 
REMARK    6  A    between atoms: PA_9  and  O5'_13 
REMARK    7  A    between atoms: O5'_13  and  C5'_14 
REMARK    8  A    between atoms: C5'_14  and  C4'_15 
REMARK    9  A    between atoms: C3'_17  and  O3'_18 
REMARK   10  A    between atoms: C2'_19  and  O2'_20 
REMARK   11  A    between atoms: C1'_21  and  N9_22 
REMARK   12  A    between atoms: C6_26  and  N6_27 
ROOT
ATOM      1  C4' AGS d   1     -34.332 -13.218  -1.239  0.00  0.00     0.089 C 
ATOM      2  O4' AGS d   1     -35.326 -13.873  -2.060  0.00  0.00    -0.353 OA
ATOM      3  C3' AGS d   1     -34.446 -13.860   0.139  0.00  0.00     0.091 C 
ATOM      4  C2' AGS d   1     -34.997 -15.258  -0.176  0.00  0.00     0.105 C 
ATOM      5  C1' AGS d   1     -35.881 -14.989  -1.391  0.00  0.00     0.139 C 
ATOM      6  H4  AGS d   1     -34.579 -12.150  -1.145  0.00  0.00     0.090 H 
ATOM      7  H5  AGS d   1     -33.461 -13.936   0.624  0.00  0.00     0.091 H 
ATOM      8  H7  AGS d   1     -34.185 -15.963  -0.409  0.00  0.00     0.093 H 
ATOM      9  H9  AGS d   1     -36.891 -14.742  -1.030  0.00  0.00     0.122 H 
ENDROOT
BRANCH   1  10
ATOM     10  C5' AGS d   1     -32.970 -13.315  -1.896  0.00  0.00     0.058 C 
ATOM     11  H2  AGS d   1     -33.037 -12.951  -2.932  0.00  0.00     0.079 H 
ATOM     12  H3  AGS d   1     -32.250 -12.699  -1.337  0.00  0.00     0.079 H 
BRANCH  10  13
ATOM     13  O5' AGS d   1     -32.519 -14.710  -1.898  0.00  0.00    -0.287 OA
BRANCH  13  14
ATOM     14  PA  AGS d   1     -31.020 -15.143  -1.488  0.00  0.00     0.417 P 
ATOM     15  O1A AGS d   1     -31.015 -16.611  -1.286  0.00  0.00    -0.624 OA
ATOM     16  O2A AGS d   1     -30.561 -14.321  -0.282  0.00  0.00    -0.624 OA
BRANCH  14  17
ATOM     17  O3A AGS d   1     -30.202 -14.755  -2.799  0.00  0.00    -0.180 OA
BRANCH  17  18
ATOM     18  PB  AGS d   1     -28.689 -15.104  -3.230  0.00  0.00     0.426 P 
ATOM     19  O1B AGS d   1     -28.685 -15.883  -4.477  0.00  0.00    -0.624 OA
ATOM     20  O2B AGS d   1     -27.935 -15.801  -2.091  0.00  0.00    -0.624 OA
BRANCH  18  21
ATOM     21  O3B AGS d   1     -28.080 -13.691  -3.597  0.00  0.00    -0.195 OA
BRANCH  21  22
ATOM     22  PG  AGS d   1     -26.920 -12.949  -2.864  0.00  0.00     0.322 P 
ATOM     23  O2G AGS d   1     -27.027 -13.072  -1.317  0.00  0.00    -0.638 OA
ATOM     24  O3G AGS d   1     -25.547 -13.518  -3.319  0.00  0.00    -0.638 OA
BRANCH  22  25
ATOM     25  S1G AGS d   1     -27.051 -11.080  -3.398  0.00  0.00    -0.054 SA
ATOM     26  H1  AGS d   1     -26.980 -11.013  -4.401  0.00  0.00     0.114 HD
ENDBRANCH  22  25
ENDBRANCH  21  22
ENDBRANCH  18  21
ENDBRANCH  17  18
ENDBRANCH  14  17
ENDBRANCH  13  14
ENDBRANCH  10  13
ENDBRANCH   1  10
BRANCH   3  27
ATOM     27  O3' AGS d   1     -35.311 -13.086   0.963  0.00  0.00    -0.390 OA
ATOM     28  H6  AGS d   1     -34.959 -12.208   1.053  0.00  0.00     0.210 HD
ENDBRANCH   3  27
BRANCH   5  29
ATOM     29  N9  AGS d   1     -36.005 -16.079  -2.356  0.00  0.00    -0.294 N 
ATOM     30  C8  AGS d   1     -35.166 -16.340  -3.409  0.00  0.00     0.071 A 
ATOM     31  N7  AGS d   1     -35.543 -17.348  -4.160  0.00  0.00    -0.236 NA
ATOM     32  H10 AGS d   1     -34.265 -15.761  -3.605  0.00  0.00     0.144 H 
ATOM     33  C5  AGS d   1     -36.719 -17.776  -3.565  0.00  0.00     0.149 A 
ATOM     34  C6  AGS d   1     -37.623 -18.812  -3.883  0.00  0.00     0.155 A 
ATOM     35  C4  AGS d   1     -37.025 -17.000  -2.462  0.00  0.00     0.167 A 
ATOM     36  N1  AGS d   1     -38.703 -18.968  -3.090  0.00  0.00    -0.222 NA
ATOM     37  C2  AGS d   1     -38.868 -18.139  -2.059  0.00  0.00     0.091 A 
ATOM     38  N3  AGS d   1     -38.089 -17.130  -1.664  0.00  0.00    -0.222 NA
ATOM     39  H13 AGS d   1     -39.756 -18.308  -1.460  0.00  0.00     0.146 H 
BRANCH  34  40
ATOM     40  N6  AGS d   1     -37.467 -19.641  -4.916  0.00  0.00    -0.382 N 
ATOM     41  H11 AGS d   1     -38.164 -20.378  -5.095  0.00  0.00     0.157 HD
ATOM     42  H12 AGS d   1     -36.650 -19.544  -5.535  0.00  0.00     0.157 HD
ENDBRANCH  34  40
ENDBRANCH   5  29
BRANCH   4  43
ATOM     43  O2' AGS d   1     -35.793 -15.772   0.883  0.00  0.00    -0.388 OA
ATOM     44  H8  AGS d   1     -36.529 -15.191   1.035  0.00  0.00     0.210 HD
ENDBRANCH   4  43
TORSDOF 12
