REMARK  12 active torsions:
REMARK  status: ('A' for Active; 'I' for Inactive)
REMARK    1  A    between atoms: PG_1  and  S1G_2 
REMARK    2  A    between atoms: O3B_8  and  PG_1 
REMARK    3  A    between atoms: PB_5  and  O3B_8 
REMARK    4  A    between atoms: O3A_12  and  PB_5 
REMARK    5  A    between atoms: PA_9  and  O3A_12 
REMARK    6  A    between atoms: PA_9  and  O5'_13 
REMARK    7  A    between atoms: O5'_13  and  C5'_14 
REMARK    8  A    between atoms: C5'_14  and  C4'_15 
REMARK    9  A    between atoms: C3'_17  and  O3'_18 
REMARK   10  A    between atoms: C2'_19  and  O2'_20 
REMARK   11  A    between atoms: C1'_21  and  N9_22 
REMARK   12  A    between atoms: C6_26  and  N6_27 
ROOT
ATOM      1  C4' AGS d   1      34.252 -13.325  -2.865  0.00  0.00     0.089 C 
ATOM      2  O4' AGS d   1      35.460 -13.794  -2.232  0.00  0.00    -0.353 OA
ATOM      3  C3' AGS d   1      34.327 -13.882  -4.280  0.00  0.00     0.091 C 
ATOM      4  C2' AGS d   1      34.978 -15.249  -4.054  0.00  0.00     0.105 C 
ATOM      5  C1' AGS d   1      35.929 -14.963  -2.884  0.00  0.00     0.139 C 
ATOM      6  H4  AGS d   1      34.245 -12.226  -2.909  0.00  0.00     0.090 H 
ATOM      7  H5  AGS d   1      33.327 -13.984  -4.726  0.00  0.00     0.091 H 
ATOM      8  H7  AGS d   1      34.223 -15.998  -3.774  0.00  0.00     0.093 H 
ATOM      9  H9  AGS d   1      36.932 -14.779  -3.296  0.00  0.00     0.122 H 
ENDROOT
BRANCH   1  10
ATOM     10  C5' AGS d   1      33.054 -13.773  -2.059  0.00  0.00     0.058 C 
ATOM     11  H2  AGS d   1      33.321 -14.634  -1.428  0.00  0.00     0.079 H 
ATOM     12  H3  AGS d   1      32.694 -12.950  -1.424  0.00  0.00     0.079 H 
BRANCH  10  13
ATOM     13  O5' AGS d   1      32.043 -14.147  -3.008  0.00  0.00    -0.287 OA
BRANCH  13  14
ATOM     14  PA  AGS d   1      30.763 -15.042  -2.741  0.00  0.00     0.417 P 
ATOM     15  O1A AGS d   1      31.151 -16.477  -2.786  0.00  0.00    -0.624 OA
ATOM     16  O2A AGS d   1      29.738 -14.699  -3.827  0.00  0.00    -0.624 OA
BRANCH  14  17
ATOM     17  O3A AGS d   1      30.159 -14.614  -1.319  0.00  0.00    -0.180 OA
BRANCH  17  18
ATOM     18  PB  AGS d   1      28.642 -14.915  -0.870  0.00  0.00     0.426 P 
ATOM     19  O1B AGS d   1      28.617 -15.732   0.365  0.00  0.00    -0.624 OA
ATOM     20  O2B AGS d   1      27.958 -15.602  -2.067  0.00  0.00    -0.624 OA
BRANCH  18  21
ATOM     21  O3B AGS d   1      27.903 -13.515  -0.557  0.00  0.00    -0.195 OA
BRANCH  21  22
ATOM     22  PG  AGS d   1      26.749 -12.872  -1.409  0.00  0.00     0.322 P 
ATOM     23  O2G AGS d   1      27.097 -12.902  -2.930  0.00  0.00    -0.638 OA
ATOM     24  O3G AGS d   1      25.410 -13.634  -1.185  0.00  0.00    -0.638 OA
BRANCH  22  25
ATOM     25  S1G AGS d   1      26.486 -11.022  -0.845  0.00  0.00    -0.054 SA
ATOM     26  H1  AGS d   1      26.261 -11.000   0.137  0.00  0.00     0.114 HD
ENDBRANCH  22  25
ENDBRANCH  21  22
ENDBRANCH  18  21
ENDBRANCH  17  18
ENDBRANCH  14  17
ENDBRANCH  13  14
ENDBRANCH  10  13
ENDBRANCH   1  10
BRANCH   3  27
ATOM     27  O3' AGS d   1      35.137 -13.052  -5.105  0.00  0.00    -0.390 OA
ATOM     28  H6  AGS d   1      35.171 -13.416  -5.982  0.00  0.00     0.210 HD
ENDBRANCH   3  27
BRANCH   5  29
ATOM     29  N9  AGS d   1      36.041 -16.030  -1.882  0.00  0.00    -0.294 N 
ATOM     30  C8  AGS d   1      35.209 -16.252  -0.816  0.00  0.00     0.071 A 
ATOM     31  N7  AGS d   1      35.572 -17.258  -0.056  0.00  0.00    -0.236 NA
ATOM     32  H10 AGS d   1      34.325 -15.647  -0.617  0.00  0.00     0.144 H 
ATOM     33  C5  AGS d   1      36.734 -17.723  -0.660  0.00  0.00     0.149 A 
ATOM     34  C6  AGS d   1      37.614 -18.777  -0.339  0.00  0.00     0.155 A 
ATOM     35  C4  AGS d   1      37.036 -16.971  -1.781  0.00  0.00     0.167 A 
ATOM     36  N1  AGS d   1      38.679 -18.972  -1.151  0.00  0.00    -0.222 NA
ATOM     37  C2  AGS d   1      38.844 -18.165  -2.202  0.00  0.00     0.091 A 
ATOM     38  N3  AGS d   1      38.084 -17.141  -2.598  0.00  0.00    -0.222 NA
ATOM     39  H13 AGS d   1      39.713 -18.369  -2.817  0.00  0.00     0.146 H 
BRANCH  34  40
ATOM     40  N6  AGS d   1      37.456 -19.587   0.709  0.00  0.00    -0.382 N 
ATOM     41  H11 AGS d   1      38.138 -20.339   0.886  0.00  0.00     0.157 HD
ATOM     42  H12 AGS d   1      36.653 -19.461   1.341  0.00  0.00     0.157 HD
ENDBRANCH  34  40
ENDBRANCH   5  29
BRANCH   4  43
ATOM     43  O2' AGS d   1      35.688 -15.715  -5.199  0.00  0.00    -0.388 OA
ATOM     44  H8  AGS d   1      36.376 -15.097  -5.417  0.00  0.00     0.210 HD
ENDBRANCH   4  43
TORSDOF 12
