REMARK  9 active torsions:
REMARK  status: ('A' for Active; 'I' for Inactive)
REMARK    1  A    between atoms: PB_1  and  O3A_5 
REMARK    2  A    between atoms: O3A_5  and  PA_6 
REMARK    3  A    between atoms: PA_6  and  O5'_9 
REMARK    4  A    between atoms: O5'_9  and  C5'_10 
REMARK    5  A    between atoms: C5'_10  and  C4'_11 
REMARK    6  A    between atoms: C3'_13  and  O3'_14 
REMARK    7  A    between atoms: C2'_15  and  O2'_16 
REMARK    8  A    between atoms: C1'_17  and  N9_18 
REMARK    9  A    between atoms: C2_25  and  N2_26 
ROOT
ATOM      1  C4' GDP d   1     -36.128  14.090   7.125  0.00  0.00     0.089 C 
ATOM      2  O4' GDP d   1     -35.881  12.992   6.253  0.00  0.00    -0.353 OA
ATOM      3  C3' GDP d   1     -36.965  13.561   8.267  0.00  0.00     0.091 C 
ATOM      4  C2' GDP d   1     -36.735  12.062   8.225  0.00  0.00     0.105 C 
ATOM      5  C1' GDP d   1     -36.546  11.823   6.740  0.00  0.00     0.139 C 
ATOM      6  H3  GDP d   1     -36.657  14.902   6.604  0.00  0.00     0.090 H 
ATOM      7  H4  GDP d   1     -36.643  13.986   9.229  0.00  0.00     0.091 H 
ATOM      8  H6  GDP d   1     -35.813  11.799   8.764  0.00  0.00     0.093 H 
ATOM      9  H8  GDP d   1     -37.517  11.679   6.244  0.00  0.00     0.122 H 
ENDROOT
BRANCH   5  10
ATOM     10  N9  GDP d   1     -35.668  10.659   6.486  0.00  0.00    -0.295 N 
ATOM     11  C8  GDP d   1     -34.513  10.353   7.114  0.00  0.00     0.071 A 
ATOM     12  N7  GDP d   1     -33.968   9.219   6.609  0.00  0.00    -0.234 NA
ATOM     13  H9  GDP d   1     -34.076  10.940   7.920  0.00  0.00     0.144 H 
ATOM     14  C5  GDP d   1     -34.792   8.793   5.637  0.00  0.00     0.171 A 
ATOM     15  C6  GDP d   1     -34.839   7.657   4.701  0.00  0.00     0.292 A 
ATOM     16  C4  GDP d   1     -35.905   9.746   5.557  0.00  0.00     0.161 A 
ATOM     17  O6  GDP d   1     -33.953   6.781   4.703  0.00  0.00    -0.265 OA
ATOM     18  N1  GDP d   1     -35.884   7.591   3.846  0.00  0.00    -0.154 N 
ATOM     19  C2  GDP d   1     -36.873   8.499   3.812  0.00  0.00     0.680 A 
ATOM     20  H10 GDP d   1     -35.923   6.825   3.204  0.00  0.00     0.187 HD
ATOM     21  N3  GDP d   1     -36.901   9.557   4.653  0.00  0.00    -0.174 N 
ATOM     22  H13 GDP d   1     -37.684  10.225   4.608  0.00  0.00     0.186 HD
BRANCH  19  23
ATOM     23  N2  GDP d   1     -37.889   8.336   2.911  0.00  0.00    -0.234 N 
ATOM     24  H11 GDP d   1     -38.656   9.022   2.870  0.00  0.00     0.174 HD
ATOM     25  H12 GDP d   1     -37.887   7.527   2.273  0.00  0.00     0.174 HD
ENDBRANCH  19  23
ENDBRANCH   5  10
BRANCH   4  26
ATOM     26  O2' GDP d   1     -37.812  11.345   8.827  0.00  0.00    -0.388 OA
ATOM     27  H7  GDP d   1     -37.898  11.609   9.735  0.00  0.00     0.210 HD
ENDBRANCH   4  26
BRANCH   1  28
ATOM     28  C5' GDP d   1     -34.770  14.575   7.625  0.00  0.00     0.058 C 
ATOM     29  H1  GDP d   1     -34.152  14.872   6.765  0.00  0.00     0.079 H 
ATOM     30  H2  GDP d   1     -34.916  15.440   8.288  0.00  0.00     0.079 H 
BRANCH  28  31
ATOM     31  O5' GDP d   1     -34.101  13.526   8.352  0.00  0.00    -0.287 OA
BRANCH  31  32
ATOM     32  PA  GDP d   1     -32.983  13.887   9.461  0.00  0.00     0.418 P 
ATOM     33  O1A GDP d   1     -32.475  12.583  10.019  0.00  0.00    -0.624 OA
ATOM     34  O2A GDP d   1     -33.598  14.829  10.440  0.00  0.00    -0.624 OA
BRANCH  32  35
ATOM     35  O3A GDP d   1     -31.926  14.659   8.526  0.00  0.00    -0.173 OA
BRANCH  35  36
ATOM     36  PB  GDP d   1     -30.555  15.414   8.934  0.00  0.00     0.431 P 
ATOM     37  O1B GDP d   1     -29.526  14.834   8.002  0.00  0.00    -0.616 OA
ATOM     38  O2B GDP d   1     -30.233  15.116  10.406  0.00  0.00    -0.616 OA
ATOM     39  O3B GDP d   1     -30.697  16.904   8.737  0.00  0.00    -0.616 OA
ENDBRANCH  35  36
ENDBRANCH  32  35
ENDBRANCH  31  32
ENDBRANCH  28  31
ENDBRANCH   1  28
BRANCH   3  40
ATOM     40  O3' GDP d   1     -38.345  13.857   8.038  0.00  0.00    -0.390 OA
ATOM     41  H5  GDP d   1     -38.625  13.448   7.228  0.00  0.00     0.210 HD
ENDBRANCH   3  40
TORSDOF 9
