REMARK  6 active torsions:
REMARK  status: ('A' for Active; 'I' for Inactive)
REMARK    1  A    between atoms: CBA_3  and  NAA_4 
REMARK    2  A    between atoms: NBB_7  and  CAO_8 
REMARK    3  A    between atoms: CAO_8  and  CAV_9 
REMARK    4  A    between atoms: CAU_14  and  CAN_15 
REMARK    5  A    between atoms: CAN_15  and  NAQ_16 
REMARK       I    between atoms: NAQ_16  and  CAT_17 
REMARK    6  A    between atoms: CAT_17  and  CAW_19 
ROOT
ATOM      1  CAV BWR d   1       3.455  16.517 -14.793  0.00  0.00    -0.033 A 
ATOM      2  CAG BWR d   1       4.562  17.377 -14.804  0.00  0.00    -0.075 A 
ATOM      3  CAE BWR d   1       4.778  18.262 -13.733  0.00  0.00    -0.075 A 
ATOM      4  CAF BWR d   1       2.617  16.534 -13.671  0.00  0.00    -0.075 A 
ATOM      5  CAD BWR d   1       2.831  17.420 -12.605  0.00  0.00    -0.075 A 
ATOM      6  CAU BWR d   1       3.926  18.289 -12.619  0.00  0.00    -0.041 A 
ATOM      7  H16 BWR d   1       5.253  17.360 -15.639  0.00  0.00     0.084 H 
ATOM      8  H17 BWR d   1       5.623  18.940 -13.769  0.00  0.00     0.084 H 
ATOM      9  H18 BWR d   1       1.782  15.845 -13.625  0.00  0.00     0.084 H 
ATOM     10  H19 BWR d   1       2.144  17.431 -11.766  0.00  0.00     0.084 H 
ENDROOT
BRANCH   1  11
ATOM     11  CAO BWR d   1       3.257  15.598 -15.848  0.00  0.00     0.107 C 
ATOM     12  H14 BWR d   1       4.042  15.774 -16.598  0.00  0.00     0.083 H 
ATOM     13  H15 BWR d   1       3.365  14.584 -15.435  0.00  0.00     0.083 H 
BRANCH  11  14
ATOM     14  NBB BWR d   1       1.944  15.669 -16.540  0.00  0.00    -0.067 N 
ATOM     15  CAL BWR d   1       1.005  14.630 -16.029  0.00  0.00     0.086 C 
ATOM     16  CAJ BWR d   1      -0.369  14.661 -16.756  0.00  0.00    -0.016 C 
ATOM     17  H1  BWR d   1       1.460  13.640 -16.177  0.00  0.00     0.076 H 
ATOM     18  H2  BWR d   1       0.840  14.801 -14.955  0.00  0.00     0.076 H 
ATOM     19  CBA BWR d   1      -0.182  14.509 -18.293  0.00  0.00     0.103 C 
ATOM     20  H3  BWR d   1      -0.867  15.619 -16.546  0.00  0.00     0.038 H 
ATOM     21  H4  BWR d   1      -0.993  13.834 -16.385  0.00  0.00     0.038 H 
ATOM     22  CAK BWR d   1       0.897  15.487 -18.840  0.00  0.00    -0.016 C 
ATOM     23  H5  BWR d   1       0.171  13.485 -18.485  0.00  0.00     0.084 H 
ATOM     24  CAM BWR d   1       2.184  15.410 -17.984  0.00  0.00     0.086 C 
ATOM     25  H9  BWR d   1       0.503  16.514 -18.810  0.00  0.00     0.038 H 
ATOM     26  H10 BWR d   1       1.137  15.217 -19.879  0.00  0.00     0.038 H 
ATOM     27  H11 BWR d   1       2.898  16.158 -18.359  0.00  0.00     0.076 H 
ATOM     28  H12 BWR d   1       2.616  14.404 -18.091  0.00  0.00     0.076 H 
ATOM     29  H13 BWR d   1       1.540  16.583 -16.410  0.00  0.00     0.280 HD
BRANCH  19  30
ATOM     30  NAA BWR d   1      -1.463  14.682 -19.003  0.00  0.00    -0.075 N 
ATOM     31  H6  BWR d   1      -1.314  14.579 -19.995  0.00  0.00     0.274 HD
ATOM     32  H7  BWR d   1      -1.831  15.601 -18.812  0.00  0.00     0.274 HD
ATOM     33  H8  BWR d   1      -2.119  13.985 -18.688  0.00  0.00     0.274 HD
ENDBRANCH  19  30
ENDBRANCH  11  14
ENDBRANCH   1  11
BRANCH   6  34
ATOM     34  CAN BWR d   1       4.158  19.194 -11.556  0.00  0.00     0.019 C 
ATOM     35  H20 BWR d   1       3.351  19.941 -11.546  0.00  0.00     0.071 H 
ATOM     36  H21 BWR d   1       5.121  19.697 -11.725  0.00  0.00     0.071 H 
BRANCH  34  37
ATOM     37  NAQ BWR d   1       4.199  18.516 -10.228  0.00  0.00    -0.353 N 
ATOM     38  CAT BWR d   1       4.762  19.035  -9.106  0.00  0.00     0.253 C 
ATOM     39  OAB BWR d   1       5.442  20.064  -9.153  0.00  0.00    -0.268 OA
ATOM     40  H22 BWR d   1       3.780  17.611 -10.158  0.00  0.00     0.163 HD
BRANCH  38  41
ATOM     41  CAW BWR d   1       4.735  18.315  -7.941  0.00  0.00     0.057 A 
ATOM     42  CAZ BWR d   1       3.842  17.366  -7.472  0.00  0.00     0.084 A 
ATOM     43  CAX BWR d   1       2.745  16.744  -8.012  0.00  0.00     0.282 A 
ATOM     44  CAY BWR d   1       4.184  16.947  -6.207  0.00  0.00     0.091 A 
ATOM     45  OAC BWR d   1       2.271  17.021  -9.113  0.00  0.00    -0.265 OA
ATOM     46  NAR BWR d   1       2.033  15.734  -7.307  0.00  0.00    -0.205 NA
ATOM     47  CAH BWR d   1       2.397  15.351  -6.095  0.00  0.00     0.068 A 
ATOM     48  NAP BWR d   1       3.524  15.974  -5.542  0.00  0.00    -0.344 N 
ATOM     49  H23 BWR d   1       1.846  14.586  -5.551  0.00  0.00     0.143 H 
ATOM     50  H24 BWR d   1       3.855  15.684  -4.611  0.00  0.00     0.167 HD
ATOM     51  SAS BWR d   1       5.512  17.751  -5.683  0.00  0.00    -0.082 SA
ATOM     52  CAI BWR d   1       5.671  18.656  -7.047  0.00  0.00    -0.027 A 
ATOM     53  H25 BWR d   1       6.429  19.423  -7.201  0.00  0.00     0.096 H 
ENDBRANCH  38  41
ENDBRANCH  34  37
ENDBRANCH   6  34
TORSDOF 6
