REMARK  10 active torsions:
REMARK  status: ('A' for Active; 'I' for Inactive)
REMARK    1  A    between atoms: O3B_8  and  PG_1 
REMARK    2  A    between atoms: PB_5  and  O3B_8 
REMARK    3  A    between atoms: O3A_12  and  PB_5 
REMARK    4  A    between atoms: PA_9  and  O3A_12 
REMARK    5  A    between atoms: PA_9  and  O5'_13 
REMARK    6  A    between atoms: O5'_13  and  C5'_14 
REMARK    7  A    between atoms: C5'_14  and  C4'_15 
REMARK    8  A    between atoms: C3'_17  and  O3'_18 
REMARK    9  A    between atoms: C1'_20  and  N9_21 
REMARK   10  A    between atoms: C6_25  and  N6_26 
ROOT
ATOM      1  C4' DTP d   1     -17.151  21.590  -1.414  0.00  0.00     0.087 C 
ATOM      2  O4' DTP d   1     -17.298  21.770  -2.831  0.00  0.00    -0.356 OA
ATOM      3  C3' DTP d   1     -15.878  20.810  -1.185  0.00  0.00     0.066 C 
ATOM      4  C2' DTP d   1     -15.832  19.956  -2.482  0.00  0.00     0.002 C 
ATOM      5  C1' DTP d   1     -16.519  20.869  -3.570  0.00  0.00     0.115 C 
ATOM      6  H3  DTP d   1     -18.012  21.017  -1.038  0.00  0.00     0.090 H 
ATOM      7  H4  DTP d   1     -14.997  21.462  -1.098  0.00  0.00     0.087 H 
ATOM      8  H6  DTP d   1     -16.390  19.017  -2.351  0.00  0.00     0.043 H 
ATOM      9  H7  DTP d   1     -14.793  19.729  -2.763  0.00  0.00     0.043 H 
ATOM     10  H8  DTP d   1     -17.164  20.239  -4.200  0.00  0.00     0.118 H 
ENDROOT
BRANCH   1  11
ATOM     11  C5' DTP d   1     -17.059  22.973  -0.597  0.00  0.00     0.058 C 
ATOM     12  H1  DTP d   1     -18.034  23.480  -0.634  0.00  0.00     0.079 H 
ATOM     13  H2  DTP d   1     -16.797  22.758   0.450  0.00  0.00     0.079 H 
BRANCH  11  14
ATOM     14  O5' DTP d   1     -16.114  23.783  -1.136  0.00  0.00    -0.287 OA
BRANCH  14  15
ATOM     15  PA  DTP d   1     -14.758  24.464  -0.013  0.00  0.00     0.417 P 
ATOM     16  O1A DTP d   1     -14.305  25.560  -0.935  0.00  0.00    -0.624 OA
ATOM     17  O2A DTP d   1     -15.574  24.922   1.180  0.00  0.00    -0.624 OA
BRANCH  15  18
ATOM     18  O3A DTP d   1     -13.810  23.256   0.217  0.00  0.00    -0.180 OA
BRANCH  18  19
ATOM     19  PB  DTP d   1     -13.781  22.134   1.696  0.00  0.00     0.428 P 
ATOM     20  O1B DTP d   1     -13.485  20.858   0.961  0.00  0.00    -0.624 OA
ATOM     21  O2B DTP d   1     -15.201  22.215   2.217  0.00  0.00    -0.624 OA
BRANCH  19  22
ATOM     22  O3B DTP d   1     -12.687  22.540   2.739  0.00  0.00    -0.173 OA
BRANCH  22  23
ATOM     23  PG  DTP d   1     -12.407  24.203   3.459  0.00  0.00     0.431 P 
ATOM     24  O1G DTP d   1     -11.377  24.856   2.555  0.00  0.00    -0.616 OA
ATOM     25  O2G DTP d   1     -13.769  24.850   3.380  0.00  0.00    -0.616 OA
ATOM     26  O3G DTP d   1     -11.925  24.072   4.893  0.00  0.00    -0.616 OA
ENDBRANCH  22  23
ENDBRANCH  19  22
ENDBRANCH  18  19
ENDBRANCH  15  18
ENDBRANCH  14  15
ENDBRANCH  11  14
ENDBRANCH   1  11
BRANCH   3  27
ATOM     27  O3' DTP d   1     -16.016  20.025  -0.014  0.00  0.00    -0.393 OA
ATOM     28  H5  DTP d   1     -15.216  19.533   0.132  0.00  0.00     0.210 HD
ENDBRANCH   3  27
BRANCH   5  29
ATOM     29  N9  DTP d   1     -15.573  21.659  -4.505  0.00  0.00    -0.296 N 
ATOM     30  C8  DTP d   1     -14.666  22.627  -4.039  0.00  0.00     0.070 A 
ATOM     31  N7  DTP d   1     -13.940  23.191  -5.037  0.00  0.00    -0.236 NA
ATOM     32  H9  DTP d   1     -14.558  22.895  -2.989  0.00  0.00     0.144 H 
ATOM     33  C5  DTP d   1     -14.374  22.579  -6.238  0.00  0.00     0.149 A 
ATOM     34  C6  DTP d   1     -13.994  22.740  -7.632  0.00  0.00     0.155 A 
ATOM     35  C4  DTP d   1     -15.399  21.617  -5.913  0.00  0.00     0.167 A 
ATOM     36  N1  DTP d   1     -14.629  21.969  -8.569  0.00  0.00    -0.222 NA
ATOM     37  C2  DTP d   1     -15.607  21.067  -8.151  0.00  0.00     0.091 A 
ATOM     38  N3  DTP d   1     -16.026  20.850  -6.878  0.00  0.00    -0.222 NA
ATOM     39  H12 DTP d   1     -16.083  20.476  -8.925  0.00  0.00     0.146 H 
BRANCH  34  40
ATOM     40  N6  DTP d   1     -13.004  23.653  -8.061  0.00  0.00    -0.382 N 
ATOM     41  H10 DTP d   1     -12.772  23.728  -9.062  0.00  0.00     0.157 HD
ATOM     42  H11 DTP d   1     -12.515  24.243  -7.373  0.00  0.00     0.157 HD
ENDBRANCH  34  40
ENDBRANCH   5  29
TORSDOF 10
