REMARK  6 active torsions:
REMARK  status: ('A' for Active; 'I' for Inactive)
REMARK    1  A    between atoms: CAE_2  and  CAB_4 
REMARK    2  A    between atoms: CAD_6  and  NAA_7 
REMARK    3  A    between atoms: CAF_12  and  NAL_13 
REMARK    4  A    between atoms: NAL_13  and  CAO_14 
REMARK    5  A    between atoms: CAO_14  and  CAP_15 
REMARK    6  A    between atoms: CAP_15  and  NAN_16 
ROOT
ATOM      1  CAB C8O d   1      41.548  23.041 -38.334  0.00  0.00     0.069 A 
ATOM      2  CAC C8O d   1      42.142  24.319 -38.422  0.00  0.00    -0.032 A 
ATOM      3  CAD C8O d   1      43.324  24.526 -39.085  0.00  0.00     0.104 A 
ATOM      4  CAJ C8O d   1      43.912  23.423 -39.688  0.00  0.00    -0.049 A 
ATOM      5  CAK C8O d   1      43.353  22.160 -39.626  0.00  0.00    -0.054 A 
ATOM      6  CAF C8O d   1      42.178  21.939 -38.951  0.00  0.00     0.045 A 
ATOM      7  H1  C8O d   1      41.649  25.162 -37.951  0.00  0.00     0.089 H 
ATOM      8  H2  C8O d   1      44.843  23.556 -40.227  0.00  0.00     0.087 H 
ATOM      9  H3  C8O d   1      43.850  21.332 -40.118  0.00  0.00     0.087 H 
ENDROOT
BRANCH   6  10
ATOM     10  NAL C8O d   1      41.617  20.706 -38.872  0.00  0.00    -0.387 N 
ATOM     11  H4  C8O d   1      40.655  20.649 -38.509  0.00  0.00     0.159 HD
BRANCH  10  12
ATOM     12  CAO C8O d   1      42.277  19.419 -39.268  0.00  0.00     0.015 C 
ATOM     13  H5  C8O d   1      43.354  19.607 -39.389  0.00  0.00     0.066 H 
ATOM     14  H6  C8O d   1      41.852  19.095 -40.229  0.00  0.00     0.066 H 
BRANCH  12  15
ATOM     15  CAP C8O d   1      42.098  18.279 -38.254  0.00  0.00     0.094 C 
ATOM     16  H7  C8O d   1      42.166  17.303 -38.758  0.00  0.00     0.077 H 
ATOM     17  H8  C8O d   1      41.124  18.364 -37.749  0.00  0.00     0.077 H 
BRANCH  15  18
ATOM     18  NAN C8O d   1      43.209  18.435 -37.271  0.00  0.00    -0.078 N 
ATOM     19  H9  C8O d   1      43.145  17.710 -36.574  0.00  0.00     0.274 HD
ATOM     20  H10 C8O d   1      43.139  19.336 -36.825  0.00  0.00     0.274 HD
ATOM     21  H11 C8O d   1      44.093  18.364 -37.749  0.00  0.00     0.274 HD
ENDBRANCH  15  18
ENDBRANCH  12  15
ENDBRANCH  10  12
ENDBRANCH   6  10
BRANCH   1  22
ATOM     22  CAE C8O d   1      40.322  22.938 -37.620  0.00  0.00     0.211 C 
ATOM     23  OAI C8O d   1      39.918  21.823 -37.210  0.00  0.00    -0.644 OA
ATOM     24  OAM C8O d   1      39.634  23.974 -37.368  0.00  0.00    -0.644 OA
ENDBRANCH   1  22
BRANCH   3  25
ATOM     25  NAA C8O d   1      43.941  25.732 -39.183  0.00  0.00    -0.116 N 
ATOM     26  OAH C8O d   1      43.703  26.725 -38.377  0.00  0.00    -0.532 OA
ATOM     27  OAG C8O d   1      44.860  25.882 -40.059  0.00  0.00    -0.532 OA
ENDBRANCH   3  25
TORSDOF 6
