REMARK  5 active torsions:
REMARK  status: ('A' for Active; 'I' for Inactive)
REMARK    1  A    between atoms: C02_2  and  C16_13 
REMARK    2  A    between atoms: N22_28  and  C07_7 
REMARK    3  A    between atoms: C14_11  and  C15_12 
REMARK    4  A    between atoms: N18_26  and  C21_16 
REMARK    5  A    between atoms: C23_17  and  N22_28 
ROOT
ATOM      1  C01 CQF d   1       6.630  71.870  -2.199  0.00  0.00    -0.070 A 
ATOM      2  C02 CQF d   1       7.963  72.503  -2.616  0.00  0.00    -0.022 A 
ATOM      3  C03 CQF d   1       8.849  71.938  -3.721  0.00  0.00    -0.062 A 
ATOM      4  C04 CQF d   1       8.345  70.691  -4.440  0.00  0.00    -0.007 A 
ATOM      5  C05 CQF d   1       7.070  70.094  -4.035  0.00  0.00     0.050 A 
ATOM      6  C06 CQF d   1       6.167  70.629  -2.935  0.00  0.00    -0.055 A 
ATOM      7  C07 CQF d   1       9.217  70.084  -5.551  0.00  0.00     0.038 C 
ATOM      8  C08 CQF d   1       8.602  70.165  -6.934  0.00  0.00    -0.036 C 
ATOM      9  C09 CQF d   1       7.103  70.017  -6.927  0.00  0.00    -0.005 C 
ATOM     10  C10 CQF d   1       6.632  68.831  -6.070  0.00  0.00     0.135 A 
ATOM     11  C14 CQF d   1       6.138  67.732  -4.257  0.00  0.00     0.131 A 
ATOM     12  N11 CQF d   1       6.620  68.900  -4.747  0.00  0.00    -0.284 N 
ATOM     13  N12 CQF d   1       6.168  67.634  -6.441  0.00  0.00    -0.134 NA
ATOM     14  N13 CQF d   1       5.864  66.965  -5.291  0.00  0.00    -0.135 NA
ATOM     15  H1  CQF d   1       6.036  72.298  -1.400  0.00  0.00     0.084 H 
ATOM     16  H2  CQF d   1       9.793  72.401  -3.983  0.00  0.00     0.085 H 
ATOM     17  H3  CQF d   1       5.230  70.143  -2.687  0.00  0.00     0.087 H 
ATOM     18  H4  CQF d   1       9.404  69.029  -5.304  0.00  0.00     0.080 H 
ATOM     19  H5  CQF d   1       9.029  69.363  -7.554  0.00  0.00     0.037 H 
ATOM     20  H6  CQF d   1       8.855  71.142  -7.372  0.00  0.00     0.037 H 
ATOM     21  H7  CQF d   1       6.759  69.864  -7.960  0.00  0.00     0.044 H 
ATOM     22  H8  CQF d   1       6.659  70.940  -6.526  0.00  0.00     0.044 H 
ENDROOT
BRANCH   7  23
ATOM     23  N22 CQF d   1      10.463  70.795  -5.633  0.00  0.00    -0.381 N 
ATOM     24  H21 CQF d   1      10.590  71.532  -6.341  0.00  0.00     0.160 HD
BRANCH  23  25
ATOM     25  C23 CQF d   1      11.519  70.481  -4.738  0.00  0.00     0.028 A 
ATOM     26  C24 CQF d   1      12.892  70.996  -5.110  0.00  0.00    -0.056 A 
ATOM     27  C25 CQF d   1      14.044  70.685  -4.193  0.00  0.00    -0.060 A 
ATOM     28  H17 CQF d   1      13.042  71.575  -6.014  0.00  0.00     0.087 H 
ATOM     29  C26 CQF d   1      13.760  69.879  -2.945  0.00  0.00     0.034 A 
ATOM     30  H18 CQF d   1      15.047  71.028  -4.420  0.00  0.00     0.086 H 
ATOM     31  C27 CQF d   1      12.389  69.381  -2.566  0.00  0.00    -0.060 A 
ATOM     32 CL2  CQF d   1      15.090  69.513  -1.875  0.00  0.00    -0.084 Cl
ATOM     33  C28 CQF d   1      11.240  69.685  -3.485  0.00  0.00    -0.056 A 
ATOM     34  H19 CQF d   1      12.236  68.817  -1.653  0.00  0.00     0.086 H 
ATOM     35  H20 CQF d   1      10.238  69.342  -3.255  0.00  0.00     0.087 H 
ENDBRANCH  23  25
ENDBRANCH   7  23
BRANCH   2  36
ATOM     36  C16 CQF d   1       8.416  73.727  -1.874  0.00  0.00     0.010 A 
ATOM     37  C17 CQF d   1       7.901  74.142  -0.686  0.00  0.00     0.010 A 
ATOM     38  N18 CQF d   1       8.559  75.241  -0.341  0.00  0.00    -0.285 N 
ATOM     39  H12 CQF d   1       7.100  73.663  -0.124  0.00  0.00     0.115 H 
ATOM     40  N19 CQF d   1       9.504  75.510  -1.320  0.00  0.00    -0.185 NA
ATOM     41  C20 CQF d   1       9.414  74.571  -2.252  0.00  0.00     0.034 A 
ATOM     42  H13 CQF d   1      10.024  74.491  -3.151  0.00  0.00     0.118 H 
BRANCH  38  43
ATOM     43  C21 CQF d   1       8.338  76.030   0.858  0.00  0.00     0.002 C 
ATOM     44  H14 CQF d   1       9.034  76.882   0.870  0.00  0.00     0.059 H 
ATOM     45  H15 CQF d   1       8.510  75.404   1.746  0.00  0.00     0.059 H 
ATOM     46  H16 CQF d   1       7.303  76.402   0.866  0.00  0.00     0.059 H 
ENDBRANCH  38  43
ENDBRANCH   2  36
BRANCH  11  47
ATOM     47  C15 CQF d   1       5.952  67.391  -2.788  0.00  0.00    -0.019 C 
ATOM     48  H9  CQF d   1       5.544  66.374  -2.697  0.00  0.00     0.037 H 
ATOM     49  H10 CQF d   1       5.255  68.108  -2.330  0.00  0.00     0.037 H 
ATOM     50  H11 CQF d   1       6.923  67.444  -2.273  0.00  0.00     0.037 H 
ENDBRANCH  11  47
TORSDOF 5
