REMARK  17 active torsions:
REMARK  status: ('A' for Active; 'I' for Inactive)
REMARK    1  A    between atoms: C13_14  and  O2_2 
REMARK    2  A    between atoms: C7_8  and  O8_4 
REMARK    3  A    between atoms: C15_16  and  O4_5 
REMARK    4  A    between atoms: O4_5  and  C24_25 
REMARK    5  A    between atoms: C16_17  and  C7_8 
REMARK    6  A    between atoms: C7_8  and  C17_18 
REMARK    7  A    between atoms: C21_22  and  C10_11 
REMARK    8  A    between atoms: C11_12  and  C20_21 
REMARK    9  A    between atoms: C18_19  and  C12_13 
REMARK   10  A    between atoms: C17_18  and  C13_14 
REMARK   11  A    between atoms: C13_14  and  C21_22 
REMARK   12  A    between atoms: C16_17  and  C18_19 
REMARK   13  A    between atoms: C22_23  and  C23_24 
REMARK   14  A    between atoms: C24_25  and  C25_26 
REMARK   15  A    between atoms: C25_26  and  C27_28 
REMARK   16  A    between atoms: C25_26  and  C28_29 
REMARK   17  A    between atoms: C27_28  and  C29_30 
ROOT
ATOM      1  C5  LVA d   1       6.229  32.976   4.211  0.00  0.00    -0.080 C 
ATOM      2  C6  LVA d   1       7.662  32.792   3.851  0.00  0.00    -0.055 C 
ATOM      3  C8  LVA d   1       5.863  34.009   4.977  0.00  0.00    -0.099 C 
ATOM      4  C9  LVA d   1       8.769  33.615   4.473  0.00  0.00     0.001 C 
ATOM      5  C11 LVA d   1       6.879  35.074   5.364  0.00  0.00    -0.037 C 
ATOM      6  C12 LVA d   1       8.250  34.437   5.652  0.00  0.00    -0.038 C 
ATOM      7  C14 LVA d   1       7.997  31.881   2.938  0.00  0.00    -0.093 C 
ATOM      8  C15 LVA d   1      10.043  32.794   4.828  0.00  0.00     0.056 C 
ATOM      9  C19 LVA d   1      10.296  31.684   3.796  0.00  0.00    -0.034 C 
ATOM     10  C22 LVA d   1       9.445  31.810   2.532  0.00  0.00    -0.038 C 
ATOM     11  H3  LVA d   1       5.481  32.271   3.851  0.00  0.00     0.083 H 
ATOM     12  H5  LVA d   1       4.834  34.089   5.325  0.00  0.00     0.077 H 
ATOM     13  H6  LVA d   1       9.082  34.337   3.705  0.00  0.00     0.051 H 
ATOM     14  H7  LVA d   1       6.536  35.559   6.290  0.00  0.00     0.046 H 
ATOM     15  H8  LVA d   1       8.123  33.760   6.510  0.00  0.00     0.042 H 
ATOM     16  H10 LVA d   1       7.253  31.215   2.503  0.00  0.00     0.078 H 
ATOM     17  H11 LVA d   1      10.883  33.499   4.739  0.00  0.00     0.085 H 
ATOM     18  H18 LVA d   1      10.075  30.715   4.268  0.00  0.00     0.037 H 
ATOM     19  H19 LVA d   1      11.356  31.716   3.505  0.00  0.00     0.037 H 
ATOM     20  H25 LVA d   1       9.729  32.727   1.994  0.00  0.00     0.045 H 
ENDROOT
BRANCH   6  21
ATOM     21  C18 LVA d   1       9.305  35.474   6.020  0.00  0.00    -0.058 C 
ATOM     22  H16 LVA d   1       9.362  36.227   5.220  0.00  0.00     0.033 H 
ATOM     23  H17 LVA d   1      10.279  34.974   6.123  0.00  0.00     0.033 H 
BRANCH  21  24
ATOM     24  C16 LVA d   1       8.960  36.169   7.335  0.00  0.00    -0.041 C 
ATOM     25  H12 LVA d   1       7.974  36.648   7.242  0.00  0.00     0.036 H 
ATOM     26  H13 LVA d   1       8.930  35.421   8.141  0.00  0.00     0.036 H 
BRANCH  24  27
ATOM     27  C7  LVA d   1      10.003  37.231   7.676  0.00  0.00     0.038 C 
ATOM     28  H4  LVA d   1      10.966  36.746   7.895  0.00  0.00     0.083 H 
BRANCH  27  29
ATOM     29  O8  LVA d   1      10.145  38.088   6.536  0.00  0.00    -0.395 OA
ATOM     30  H2  LVA d   1      10.791  38.759   6.724  0.00  0.00     0.210 HD
ENDBRANCH  27  29
BRANCH  27  31
ATOM     31  C17 LVA d   1       9.561  38.041   8.899  0.00  0.00    -0.017 C 
ATOM     32  H14 LVA d   1       8.491  38.276   8.798  0.00  0.00     0.040 H 
ATOM     33  H15 LVA d   1      10.141  38.975   8.931  0.00  0.00     0.040 H 
BRANCH  31  34
ATOM     34  C13 LVA d   1       9.774  37.288  10.213  0.00  0.00     0.047 C 
ATOM     35  H9  LVA d   1       9.369  36.271  10.102  0.00  0.00     0.083 H 
BRANCH  34  36
ATOM     36  O2  LVA d   1      11.161  37.202  10.558  0.00  0.00    -0.395 OA
ATOM     37  H1  LVA d   1      11.517  38.078  10.654  0.00  0.00     0.210 HD
ENDBRANCH  34  36
BRANCH  34  38
ATOM     38  C21 LVA d   1       9.049  37.998  11.353  0.00  0.00     0.039 C 
ATOM     39  H23 LVA d   1       7.985  38.099  11.092  0.00  0.00     0.052 H 
ATOM     40  H24 LVA d   1       9.147  37.396  12.269  0.00  0.00     0.052 H 
BRANCH  38  41
ATOM     41  C10 LVA d   1       9.625  39.371  11.604  0.00  0.00     0.175 C 
ATOM     42  O1  LVA d   1      10.850  39.704  11.186  0.00  0.00    -0.648 OA
ATOM     43  O3  LVA d   1       8.953  40.195  12.209  0.00  0.00    -0.648 OA
ENDBRANCH  38  41
ENDBRANCH  34  38
ENDBRANCH  31  34
ENDBRANCH  27  31
ENDBRANCH  24  27
ENDBRANCH  21  24
ENDBRANCH   6  21
BRANCH   5  44
ATOM     44  C20 LVA d   1       6.935  36.141   4.267  0.00  0.00    -0.069 C 
ATOM     45  H20 LVA d   1       5.929  36.557   4.108  0.00  0.00     0.028 H 
ATOM     46  H21 LVA d   1       7.296  35.687   3.332  0.00  0.00     0.028 H 
ATOM     47  H22 LVA d   1       7.620  36.946   4.573  0.00  0.00     0.028 H 
ENDBRANCH   5  44
BRANCH   8  48
ATOM     48  O4  LVA d   1      10.107  32.281   6.194  0.00  0.00    -0.315 OA
BRANCH  48  49
ATOM     49  C24 LVA d   1      11.135  32.879   7.180  0.00  0.00     0.263 C 
ATOM     50  O26 LVA d   1      12.315  33.228   6.977  0.00  0.00    -0.265 OA
BRANCH  49  51
ATOM     51  C25 LVA d   1      10.836  33.103   8.636  0.00  0.00     0.026 C 
ATOM     52  H29 LVA d   1      10.070  33.885   8.742  0.00  0.00     0.054 H 
BRANCH  51  53
ATOM     53  C27 LVA d   1      12.153  33.594   9.281  0.00  0.00    -0.057 C 
ATOM     54  H30 LVA d   1      12.573  34.385   8.642  0.00  0.00     0.033 H 
ATOM     55  H31 LVA d   1      12.852  32.745   9.321  0.00  0.00     0.033 H 
BRANCH  53  56
ATOM     56  C29 LVA d   1      12.005  34.151  10.687  0.00  0.00    -0.076 C 
ATOM     57  H35 LVA d   1      12.989  34.472  11.059  0.00  0.00     0.027 H 
ATOM     58  H36 LVA d   1      11.599  33.372  11.349  0.00  0.00     0.027 H 
ATOM     59  H37 LVA d   1      11.320  35.012  10.670  0.00  0.00     0.027 H 
ENDBRANCH  53  56
ENDBRANCH  51  53
BRANCH  51  60
ATOM     60  C28 LVA d   1      10.302  31.820   9.262  0.00  0.00    -0.064 C 
ATOM     61  H32 LVA d   1       9.368  31.528   8.759  0.00  0.00     0.028 H 
ATOM     62  H33 LVA d   1      10.105  31.988  10.331  0.00  0.00     0.028 H 
ATOM     63  H34 LVA d   1      11.047  31.018   9.147  0.00  0.00     0.028 H 
ENDBRANCH  51  60
ENDBRANCH  49  51
ENDBRANCH  48  49
ENDBRANCH   8  48
BRANCH  10  64
ATOM     64  C23 LVA d   1       9.623  30.611   1.610  0.00  0.00    -0.070 C 
ATOM     65  H26 LVA d   1       8.996  30.740   0.715  0.00  0.00     0.028 H 
ATOM     66  H27 LVA d   1       9.323  29.694   2.139  0.00  0.00     0.028 H 
ATOM     67  H28 LVA d   1      10.678  30.533   1.310  0.00  0.00     0.028 H 
ENDBRANCH  10  64
TORSDOF 17
