REMARK  11 active torsions:
REMARK  status: ('A' for Active; 'I' for Inactive)
REMARK    1  A    between atoms: O9_22  and  C11_3 
REMARK    2  A    between atoms: C14_6  and  C20_9 
REMARK    3  A    between atoms: C15_7  and  O19_26 
REMARK       I    between atoms: C20_9  and  N22_28 
REMARK    4  A    between atoms: C23_10  and  C24_11 
REMARK    5  A    between atoms: C23_10  and  C27_12 
REMARK    6  A    between atoms: N22_28  and  C23_10 
REMARK    7  A    between atoms: C27_12  and  C28_13 
REMARK    8  A    between atoms: N1_16  and  C10_23 
REMARK    9  A    between atoms: C7_20  and  N4_17 
REMARK   10  A    between atoms: C8_21  and  C7_20 
REMARK   11  A    between atoms: C8_21  and  O9_22 
ROOT
ATOM      1  C11 JBG d   1     -12.847 -32.078 -32.738  0.00  0.00     0.115 A 
ATOM      2  C12 JBG d   1     -12.587 -30.749 -32.363  0.00  0.00     0.070 A 
ATOM      3  C13 JBG d   1     -13.598 -29.784 -32.359  0.00  0.00    -0.041 A 
ATOM      4  C14 JBG d   1     -14.886 -30.138 -32.792  0.00  0.00     0.068 A 
ATOM      5  C15 JBG d   1     -15.154 -31.492 -33.159  0.00  0.00     0.106 A 
ATOM      6  C16 JBG d   1     -14.124 -32.451 -33.185  0.00  0.00     0.103 A 
ATOM      7 CL17 JBG d   1     -14.391 -34.113 -33.728  0.00  0.00    -0.078 Cl
ATOM      8 CL18 JBG d   1     -10.971 -30.313 -31.886  0.00  0.00    -0.081 Cl
ATOM      9  H5  JBG d   1     -13.390 -28.774 -32.025  0.00  0.00     0.087 H 
ENDROOT
BRANCH   1  10
ATOM     10  O9  JBG d   1     -11.789 -32.976 -32.807  0.00  0.00    -0.346 OA
BRANCH  10  11
ATOM     11  C8  JBG d   1     -11.589 -33.855 -31.696  0.00  0.00     0.049 C 
ATOM     12  H19 JBG d   1     -11.270 -33.301 -30.801  0.00  0.00     0.077 H 
ATOM     13  H20 JBG d   1     -12.502 -34.425 -31.469  0.00  0.00     0.077 H 
BRANCH  11  14
ATOM     14  C7  JBG d   1     -10.463 -34.782 -32.213  0.00  0.00     0.103 C 
ATOM     15  H17 JBG d   1     -10.441 -35.706 -31.616  0.00  0.00     0.079 H 
ATOM     16  H18 JBG d   1     -10.644 -35.032 -33.269  0.00  0.00     0.079 H 
BRANCH  14  17
ATOM     17  N4  JBG d   1      -9.164 -34.069 -32.082  0.00  0.00    -0.066 N 
ATOM     18  C3  JBG d   1      -8.090 -34.891 -31.487  0.00  0.00     0.106 C 
ATOM     19  C2  JBG d   1      -6.983 -33.944 -30.959  0.00  0.00     0.105 C 
ATOM     20  H3  JBG d   1      -8.496 -35.487 -30.657  0.00  0.00     0.078 H 
ATOM     21  H4  JBG d   1      -7.671 -35.563 -32.250  0.00  0.00     0.078 H 
ATOM     22  N1  JBG d   1      -6.506 -33.037 -32.035  0.00  0.00    -0.072 N 
ATOM     23  H1  JBG d   1      -6.138 -34.546 -30.594  0.00  0.00     0.078 H 
ATOM     24  H2  JBG d   1      -7.388 -33.341 -30.133  0.00  0.00     0.078 H 
ATOM     25  C6  JBG d   1      -7.593 -32.243 -32.683  0.00  0.00     0.105 C 
ATOM     26  H11 JBG d   1      -6.156 -33.640 -32.763  0.00  0.00     0.279 HD
ATOM     27  C5  JBG d   1      -8.713 -33.190 -33.201  0.00  0.00     0.106 C 
ATOM     28  H15 JBG d   1      -7.175 -31.677 -33.529  0.00  0.00     0.078 H 
ATOM     29  H16 JBG d   1      -8.019 -31.543 -31.949  0.00  0.00     0.078 H 
ATOM     30  H13 JBG d   1      -9.562 -32.592 -33.565  0.00  0.00     0.078 H 
ATOM     31  H14 JBG d   1      -8.322 -33.809 -34.022  0.00  0.00     0.078 H 
ATOM     32  H12 JBG d   1      -9.364 -33.399 -31.356  0.00  0.00     0.280 HD
BRANCH  22  33
ATOM     33  C10 JBG d   1      -5.340 -32.239 -31.589  0.00  0.00     0.066 C 
ATOM     34  H21 JBG d   1      -4.596 -32.904 -31.127  0.00  0.00     0.068 H 
ATOM     35  H22 JBG d   1      -5.668 -31.489 -30.854  0.00  0.00     0.068 H 
ATOM     36  H23 JBG d   1      -4.890 -31.731 -32.455  0.00  0.00     0.068 H 
ENDBRANCH  22  33
ENDBRANCH  14  17
ENDBRANCH  11  14
ENDBRANCH  10  11
ENDBRANCH   1  10
BRANCH   5  37
ATOM     37  O19 JBG d   1     -16.422 -31.907 -33.551  0.00  0.00    -0.358 OA
ATOM     38  H24 JBG d   1     -17.026 -31.176 -33.491  0.00  0.00     0.217 HD
ENDBRANCH   5  37
BRANCH   4  39
ATOM     39  C20 JBG d   1     -15.979 -29.090 -32.699  0.00  0.00     0.255 C 
ATOM     40  O21 JBG d   1     -15.599 -27.951 -32.489  0.00  0.00    -0.268 OA
ATOM     41  N22 JBG d   1     -17.289 -29.439 -32.808  0.00  0.00    -0.342 N 
ATOM     42  H25 JBG d   1     -17.488 -30.396 -33.020  0.00  0.00     0.163 HD
BRANCH  41  43
ATOM     43  C23 JBG d   1     -18.435 -28.542 -32.644  0.00  0.00     0.100 C 
ATOM     44  H6  JBG d   1     -18.084 -27.680 -32.058  0.00  0.00     0.090 H 
BRANCH  43  45
ATOM     45  C24 JBG d   1     -19.495 -29.237 -31.825  0.00  0.00     0.197 C 
ATOM     46  O25 JBG d   1     -19.407 -30.574 -31.752  0.00  0.00    -0.646 OA
ATOM     47  O26 JBG d   1     -20.375 -28.589 -31.288  0.00  0.00    -0.646 OA
ENDBRANCH  43  45
BRANCH  43  48
ATOM     48  C27 JBG d   1     -18.992 -27.964 -33.977  0.00  0.00    -0.013 C 
ATOM     49  H7  JBG d   1     -18.166 -27.464 -34.504  0.00  0.00     0.043 H 
ATOM     50  H8  JBG d   1     -19.770 -27.226 -33.731  0.00  0.00     0.043 H 
BRANCH  48  51
ATOM     51  C28 JBG d   1     -19.606 -29.006 -34.930  0.00  0.00    -0.056 A 
ATOM     52  C29 JBG d   1     -20.948 -29.421 -34.778  0.00  0.00    -0.077 A 
ATOM     53  C30 JBG d   1     -21.492 -30.364 -35.667  0.00  0.00    -0.082 A 
ATOM     54  H9  JBG d   1     -21.556 -29.014 -33.978  0.00  0.00     0.084 H 
ATOM     55  C31 JBG d   1     -20.719 -30.863 -36.734  0.00  0.00    -0.083 A 
ATOM     56  H10 JBG d   1     -22.511 -30.709 -35.531  0.00  0.00     0.083 H 
ATOM     57  C32 JBG d   1     -19.391 -30.425 -36.914  0.00  0.00    -0.082 A 
ATOM     58  H26 JBG d   1     -21.147 -31.586 -37.419  0.00  0.00     0.083 H 
ATOM     59  C33 JBG d   1     -18.840 -29.497 -36.009  0.00  0.00    -0.077 A 
ATOM     60  H27 JBG d   1     -18.799 -30.799 -37.742  0.00  0.00     0.083 H 
ATOM     61  H28 JBG d   1     -17.819 -29.157 -36.142  0.00  0.00     0.084 H 
ENDBRANCH  48  51
ENDBRANCH  43  48
ENDBRANCH  41  43
ENDBRANCH   4  39
TORSDOF 11
