REMARK  11 active torsions:
REMARK  status: ('A' for Active; 'I' for Inactive)
REMARK    1  A    between atoms: C13_2  and  N12_1 
REMARK    2  A    between atoms: N12_1  and  S10_18 
REMARK    3  A    between atoms: C14_20  and  C13_2 
REMARK    4  A    between atoms: C13_2  and  C27_28 
REMARK    5  A    between atoms: C16_22  and  C17_3 
REMARK    6  A    between atoms: C20_4  and  C21_5 
REMARK    7  A    between atoms: N15_21  and  C20_4 
REMARK    8  A    between atoms: C28_8  and  O29_29 
REMARK    9  A    between atoms: S10_18  and  C09_17 
REMARK       I    between atoms: N15_21  and  C14_20 
REMARK   10  A    between atoms: N15_21  and  C16_22 
REMARK   11  A    between atoms: O29_29  and  C30_30 
ROOT
ATOM      1  C13 J9S d   1       1.585 -45.080  16.899  0.00  0.00     0.125 C 
ATOM      2  H2  J9S d   1       2.455 -45.543  16.410  0.00  0.00     0.096 H 
ENDROOT
BRANCH   1   3
ATOM      3  N12 J9S d   1       1.283 -43.806  16.139  0.00  0.00    -0.297 N 
ATOM      4  H1  J9S d   1       0.533 -43.205  16.415  0.00  0.00     0.173 HD
BRANCH   3   5
ATOM      5  S10 J9S d   1       2.254 -43.437  14.813  0.00  0.00     0.259 S 
ATOM      6  O11 J9S d   1       3.605 -43.614  15.182  0.00  0.00    -0.201 OA
ATOM      7  O35 J9S d   1       1.960 -42.219  14.177  0.00  0.00    -0.201 OA
BRANCH   5   8
ATOM      8  C09 J9S d   1       1.941 -44.870  13.583  0.00  0.00     0.080 A 
ATOM      9  C08 J9S d   1       0.773 -44.988  12.817  0.00  0.00    -0.048 A 
ATOM     10  C05 J9S d   1       0.476 -46.076  11.900  0.00  0.00    -0.008 A 
ATOM     11  H10 J9S d   1       0.031 -44.204  12.917  0.00  0.00     0.087 H 
ATOM     12  C04 J9S d   1       1.446 -47.112  11.778  0.00  0.00     0.045 A 
ATOM     13  C06 J9S d   1      -0.767 -46.165  11.110  0.00  0.00    -0.066 A 
ATOM     14  N03 J9S d   1       1.207 -48.214  10.892  0.00  0.00    -0.323 N 
ATOM     15  C37 J9S d   1       2.651 -47.026  12.560  0.00  0.00    -0.055 A 
ATOM     16  C02 J9S d   1       0.032 -48.306  10.118  0.00  0.00     0.245 A 
ATOM     17  H7  J9S d   1       1.893 -48.938  10.821  0.00  0.00     0.169 HD
ATOM     18  O01 J9S d   1      -0.099 -49.271   9.383  0.00  0.00    -0.268 OA
ATOM     19  C07 J9S d   1      -0.982 -47.232  10.251  0.00  0.00    -0.017 A 
ATOM     20  H9  J9S d   1      -1.902 -47.282   9.670  0.00  0.00     0.092 H 
ATOM     21  C36 J9S d   1       2.879 -45.948  13.445  0.00  0.00    -0.058 A 
ATOM     22  H22 J9S d   1       3.400 -47.805  12.468  0.00  0.00     0.087 H 
ATOM     23  H21 J9S d   1       3.788 -45.935  14.036  0.00  0.00     0.086 H 
ATOM     24  H8  J9S d   1      -1.522 -45.386  11.202  0.00  0.00     0.085 H 
ENDBRANCH   5   8
ENDBRANCH   3   5
ENDBRANCH   1   3
BRANCH   1  25
ATOM     25  C14 J9S d   1       0.329 -46.146  16.759  0.00  0.00     0.248 C 
ATOM     26  N15 J9S d   1       0.359 -47.508  16.947  0.00  0.00    -0.335 N 
ATOM     27  O26 J9S d   1      -0.707 -45.482  16.464  0.00  0.00    -0.271 OA
BRANCH  26  28
ATOM     28  C20 J9S d   1       1.626 -48.333  17.323  0.00  0.00     0.028 C 
ATOM     29  H3  J9S d   1       2.245 -47.702  17.978  0.00  0.00     0.072 H 
ATOM     30  H4  J9S d   1       1.286 -49.218  17.881  0.00  0.00     0.072 H 
BRANCH  28  31
ATOM     31  C21 J9S d   1       2.554 -48.845  16.151  0.00  0.00     0.000 A 
ATOM     32  C22 J9S d   1       2.393 -49.816  15.178  0.00  0.00    -0.068 A 
ATOM     33  C23 J9S d   1       3.492 -49.987  14.266  0.00  0.00    -0.076 A 
ATOM     34  H5  J9S d   1       1.487 -50.416  15.107  0.00  0.00     0.085 H 
ATOM     35  C24 J9S d   1       4.544 -49.146  14.502  0.00  0.00    -0.044 A 
ATOM     36  H13 J9S d   1       3.487 -50.720  13.460  0.00  0.00     0.084 H 
ATOM     37  S25 J9S d   1       4.151 -48.145  15.869  0.00  0.00    -0.105 SA
ATOM     38  H6  J9S d   1       5.471 -49.109  13.931  0.00  0.00     0.095 H 
ENDBRANCH  28  31
ENDBRANCH  26  28
BRANCH  26  39
ATOM     39  C16 J9S d   1      -0.858 -48.344  16.823  0.00  0.00     0.078 C 
ATOM     40  H11 J9S d   1      -1.681 -47.715  16.453  0.00  0.00     0.081 H 
ATOM     41  H12 J9S d   1      -0.659 -49.150  16.101  0.00  0.00     0.081 H 
BRANCH  39  42
ATOM     42  C17 J9S d   1      -1.312 -49.017  18.248  0.00  0.00     0.191 C 
ATOM     43  O18 J9S d   1      -1.563 -48.212  19.179  0.00  0.00    -0.647 OA
ATOM     44  O19 J9S d   1      -1.373 -50.273  18.348  0.00  0.00    -0.647 OA
ENDBRANCH  39  42
ENDBRANCH  26  39
ENDBRANCH   1  25
BRANCH   1  45
ATOM     45  C27 J9S d   1       2.001 -44.828  18.400  0.00  0.00     0.007 A 
ATOM     46  C28 J9S d   1       3.327 -45.097  18.866  0.00  0.00     0.077 A 
ATOM     47  C31 J9S d   1       3.684 -44.871  20.210  0.00  0.00    -0.050 A 
ATOM     48  C32 J9S d   1       2.740 -44.377  21.130  0.00  0.00    -0.080 A 
ATOM     49  H17 J9S d   1       4.696 -45.080  20.539  0.00  0.00     0.087 H 
ATOM     50  C33 J9S d   1       1.429 -44.099  20.710  0.00  0.00    -0.082 A 
ATOM     51  H18 J9S d   1       3.025 -44.211  22.163  0.00  0.00     0.083 H 
ATOM     52  C34 J9S d   1       1.065 -44.328  19.353  0.00  0.00    -0.072 A 
ATOM     53  H19 J9S d   1       0.700 -43.713  21.413  0.00  0.00     0.083 H 
ATOM     54  H20 J9S d   1       0.050 -44.117  19.036  0.00  0.00     0.084 H 
BRANCH  46  55
ATOM     55  O29 J9S d   1       4.216 -45.590  17.898  0.00  0.00    -0.355 OA
BRANCH  55  56
ATOM     56  C30 J9S d   1       5.626 -45.824  18.181  0.00  0.00     0.010 C 
ATOM     57  H14 J9S d   1       6.122 -46.209  17.278  0.00  0.00     0.066 H 
ATOM     58  H15 J9S d   1       5.720 -46.560  18.993  0.00  0.00     0.066 H 
ATOM     59  H16 J9S d   1       6.100 -44.880  18.486  0.00  0.00     0.066 H 
ENDBRANCH  55  56
ENDBRANCH  46  55
ENDBRANCH   1  45
TORSDOF 11
