REMARK  15 active torsions:
REMARK  status: ('A' for Active; 'I' for Inactive)
REMARK    1  A    between atoms: S11_20  and  C10_1 
REMARK    2  A    between atoms: C13_3  and  N12_2 
REMARK    3  A    between atoms: N12_2  and  S11_20 
REMARK    4  A    between atoms: C13_3  and  C28_10 
REMARK    5  A    between atoms: C14_21  and  C13_3 
REMARK    6  A    between atoms: O16_22  and  C15_4 
REMARK    7  A    between atoms: C17_5  and  O16_22 
REMARK    8  A    between atoms: C18_23  and  C17_5 
REMARK    9  A    between atoms: C20_6  and  C21_7 
REMARK   10  A    between atoms: C19_24  and  C20_6 
REMARK       I    between atoms: C28_10  and  N29_29 
REMARK   11  A    between atoms: C18_23  and  C19_24 
REMARK   12  A    between atoms: N29_29  and  C30_30 
REMARK   13  A    between atoms: N29_29  and  C34_34 
REMARK   14  A    between atoms: C30_30  and  C31_31 
REMARK   15  A    between atoms: C34_34  and  C35_35 
ROOT
ATOM      1  C13 JA7 d   1       0.945 -44.795  16.860  0.00  0.00     0.125 C 
ATOM      2  H2  JA7 d   1       0.050 -44.289  16.470  0.00  0.00     0.096 H 
ENDROOT
BRANCH   1   3
ATOM      3  N12 JA7 d   1       2.132 -44.108  16.165  0.00  0.00    -0.297 N 
ATOM      4  H1  JA7 d   1       3.019 -44.072  16.625  0.00  0.00     0.173 HD
BRANCH   3   5
ATOM      5  S11 JA7 d   1       1.958 -43.409  14.626  0.00  0.00     0.259 S 
ATOM      6  O41 JA7 d   1       3.097 -42.661  14.219  0.00  0.00    -0.201 OA
ATOM      7  O42 JA7 d   1       0.773 -42.631  14.538  0.00  0.00    -0.201 OA
BRANCH   5   8
ATOM      8  C10 JA7 d   1       1.742 -44.937  13.406  0.00  0.00     0.080 A 
ATOM      9  C09 JA7 d   1       2.763 -45.918  13.210  0.00  0.00    -0.058 A 
ATOM     10  C08 JA7 d   1       2.588 -47.026  12.339  0.00  0.00    -0.055 A 
ATOM     11  H13 JA7 d   1       3.701 -45.813  13.743  0.00  0.00     0.086 H 
ATOM     12  C07 JA7 d   1       1.345 -47.243  11.612  0.00  0.00     0.045 A 
ATOM     13  H12 JA7 d   1       3.402 -47.730  12.212  0.00  0.00     0.087 H 
ATOM     14  N03 JA7 d   1       1.152 -48.381  10.719  0.00  0.00    -0.323 N 
ATOM     15  C06 JA7 d   1       0.298 -46.297  11.792  0.00  0.00    -0.008 A 
ATOM     16  C02 JA7 d   1      -0.067 -48.581  10.006  0.00  0.00     0.245 A 
ATOM     17  H9  JA7 d   1       1.896 -49.039  10.604  0.00  0.00     0.169 HD
ATOM     18  O01 JA7 d   1      -0.171 -49.568   9.261  0.00  0.00    -0.268 OA
ATOM     19  C04 JA7 d   1      -1.162 -47.598  10.191  0.00  0.00    -0.017 A 
ATOM     20  C05 JA7 d   1      -0.983 -46.517  11.041  0.00  0.00    -0.066 A 
ATOM     21  H10 JA7 d   1      -2.105 -47.725   9.661  0.00  0.00     0.092 H 
ATOM     22  H11 JA7 d   1      -1.797 -45.805  11.168  0.00  0.00     0.085 H 
ATOM     23  C43 JA7 d   1       0.541 -45.176  12.693  0.00  0.00    -0.048 A 
ATOM     24  H27 JA7 d   1      -0.266 -44.465  12.829  0.00  0.00     0.087 H 
ENDBRANCH   5   8
ENDBRANCH   3   5
ENDBRANCH   1   3
BRANCH   1  25
ATOM     25  C28 JA7 d   1       0.762 -46.376  16.437  0.00  0.00     0.248 C 
ATOM     26  N29 JA7 d   1      -0.475 -47.029  16.290  0.00  0.00    -0.335 N 
ATOM     27  O40 JA7 d   1       1.861 -46.938  16.269  0.00  0.00    -0.271 OA
BRANCH  26  28
ATOM     28  C30 JA7 d   1      -0.545 -48.480  15.895  0.00  0.00     0.078 C 
ATOM     29  H20 JA7 d   1       0.286 -48.676  15.201  0.00  0.00     0.081 H 
ATOM     30  H21 JA7 d   1      -1.502 -48.637  15.375  0.00  0.00     0.081 H 
BRANCH  28  31
ATOM     31  C31 JA7 d   1      -0.454 -49.549  17.066  0.00  0.00     0.191 C 
ATOM     32  O32 JA7 d   1      -0.375 -49.085  18.244  0.00  0.00    -0.647 OA
ATOM     33  O33 JA7 d   1      -0.461 -50.780  16.795  0.00  0.00    -0.647 OA
ENDBRANCH  28  31
ENDBRANCH  26  28
BRANCH  26  34
ATOM     34  C34 JA7 d   1      -1.800 -46.317  16.492  0.00  0.00     0.028 C 
ATOM     35  H22 JA7 d   1      -1.600 -45.420  17.097  0.00  0.00     0.072 H 
ATOM     36  H23 JA7 d   1      -2.455 -46.999  17.053  0.00  0.00     0.072 H 
BRANCH  34  37
ATOM     37  C35 JA7 d   1      -2.594 -45.852  15.216  0.00  0.00     0.000 A 
ATOM     38  C36 JA7 d   1      -2.906 -44.605  14.715  0.00  0.00    -0.068 A 
ATOM     39  C37 JA7 d   1      -3.688 -44.596  13.444  0.00  0.00    -0.076 A 
ATOM     40  H24 JA7 d   1      -2.601 -43.687  15.215  0.00  0.00     0.085 H 
ATOM     41  C38 JA7 d   1      -3.973 -45.846  12.968  0.00  0.00    -0.044 A 
ATOM     42  H25 JA7 d   1      -4.002 -43.681  12.943  0.00  0.00     0.084 H 
ATOM     43  S39 JA7 d   1      -3.296 -47.015  14.076  0.00  0.00    -0.105 SA
ATOM     44  H26 JA7 d   1      -4.525 -46.073  12.057  0.00  0.00     0.095 H 
ENDBRANCH  34  37
ENDBRANCH  26  34
ENDBRANCH   1  25
BRANCH   1  45
ATOM     45  C14 JA7 d   1       0.912 -44.550  18.409  0.00  0.00     0.007 A 
ATOM     46  C15 JA7 d   1      -0.130 -43.768  19.053  0.00  0.00     0.077 A 
ATOM     47  C24 JA7 d   1      -0.082 -43.586  20.446  0.00  0.00    -0.050 A 
ATOM     48  C25 JA7 d   1       0.947 -44.143  21.236  0.00  0.00    -0.080 A 
ATOM     49  H7  JA7 d   1      -0.857 -43.001  20.927  0.00  0.00     0.087 H 
ATOM     50  C26 JA7 d   1       1.972 -44.901  20.638  0.00  0.00    -0.082 A 
ATOM     51  H18 JA7 d   1       0.948 -43.986  22.309  0.00  0.00     0.083 H 
ATOM     52  C27 JA7 d   1       1.938 -45.094  19.234  0.00  0.00    -0.072 A 
ATOM     53  H8  JA7 d   1       2.768 -45.327  21.237  0.00  0.00     0.083 H 
ATOM     54  H19 JA7 d   1       2.724 -45.679  18.770  0.00  0.00     0.084 H 
BRANCH  46  55
ATOM     55  O16 JA7 d   1      -1.151 -43.224  18.274  0.00  0.00    -0.350 OA
BRANCH  55  56
ATOM     56  C17 JA7 d   1      -1.959 -42.078  18.724  0.00  0.00     0.026 C 
ATOM     57  H3  JA7 d   1      -1.284 -41.224  18.884  0.00  0.00     0.075 H 
ATOM     58  H4  JA7 d   1      -2.439 -42.349  19.676  0.00  0.00     0.075 H 
BRANCH  56  59
ATOM     59  C18 JA7 d   1      -3.100 -41.627  17.700  0.00  0.00    -0.044 C 
ATOM     60  H14 JA7 d   1      -3.871 -41.087  18.269  0.00  0.00     0.036 H 
ATOM     61  H15 JA7 d   1      -3.538 -42.535  17.261  0.00  0.00     0.036 H 
BRANCH  59  62
ATOM     62  C19 JA7 d   1      -2.625 -40.688  16.508  0.00  0.00    -0.054 C 
ATOM     63  H16 JA7 d   1      -2.250 -39.748  16.939  0.00  0.00     0.033 H 
ATOM     64  H17 JA7 d   1      -1.810 -41.197  15.973  0.00  0.00     0.033 H 
BRANCH  62  65
ATOM     65  C20 JA7 d   1      -3.738 -40.344  15.484  0.00  0.00     0.016 C 
ATOM     66  H5  JA7 d   1      -4.032 -41.278  14.983  0.00  0.00     0.049 H 
ATOM     67  H6  JA7 d   1      -4.596 -39.942  16.043  0.00  0.00     0.049 H 
BRANCH  65  68
ATOM     68  C21 JA7 d   1      -3.358 -39.293  14.362  0.00  0.00     0.172 C 
ATOM     69  O22 JA7 d   1      -3.820 -39.425  13.181  0.00  0.00    -0.648 OA
ATOM     70  O23 JA7 d   1      -2.594 -38.331  14.670  0.00  0.00    -0.648 OA
ENDBRANCH  65  68
ENDBRANCH  62  65
ENDBRANCH  59  62
ENDBRANCH  56  59
ENDBRANCH  55  56
ENDBRANCH  46  55
ENDBRANCH   1  45
TORSDOF 15
