REMARK  11 active torsions:
REMARK  status: ('A' for Active; 'I' for Inactive)
REMARK    1  A    between atoms: C13_2  and  N12_1 
REMARK    2  A    between atoms: N12_1  and  S10_18 
REMARK    3  A    between atoms: C14_20  and  C13_2 
REMARK    4  A    between atoms: C13_2  and  C27_28 
REMARK    5  A    between atoms: C16_22  and  C17_3 
REMARK    6  A    between atoms: C20_4  and  C21_5 
REMARK    7  A    between atoms: N15_21  and  C20_4 
REMARK    8  A    between atoms: C28_8  and  O29_29 
REMARK    9  A    between atoms: S10_18  and  C09_17 
REMARK       I    between atoms: N15_21  and  C14_20 
REMARK   10  A    between atoms: N15_21  and  C16_22 
REMARK   11  A    between atoms: O29_29  and  C30_30 
ROOT
ATOM      1  C13 J9V d   1       0.682 -44.773  16.809  0.00  0.00     0.125 C 
ATOM      2  H2  J9V d   1      -0.204 -44.324  16.337  0.00  0.00     0.096 H 
ENDROOT
BRANCH   1   3
ATOM      3  N12 J9V d   1       1.890 -44.155  16.211  0.00  0.00    -0.297 N 
ATOM      4  H1  J9V d   1       2.745 -44.144  16.730  0.00  0.00     0.173 HD
BRANCH   3   5
ATOM      5  S10 J9V d   1       1.847 -43.481  14.695  0.00  0.00     0.259 S 
ATOM      6  O11 J9V d   1       0.699 -42.668  14.548  0.00  0.00    -0.201 OA
ATOM      7  O35 J9V d   1       3.085 -42.821  14.458  0.00  0.00    -0.201 OA
BRANCH   5   8
ATOM      8  C09 J9V d   1       1.679 -44.881  13.530  0.00  0.00     0.080 A 
ATOM      9  C08 J9V d   1       0.529 -45.134  12.777  0.00  0.00    -0.048 A 
ATOM     10  C05 J9V d   1       0.316 -46.233  11.876  0.00  0.00    -0.008 A 
ATOM     11  H10 J9V d   1      -0.287 -44.428  12.884  0.00  0.00     0.087 H 
ATOM     12  C04 J9V d   1       1.377 -47.189  11.752  0.00  0.00     0.045 A 
ATOM     13  C06 J9V d   1      -0.880 -46.493  11.068  0.00  0.00    -0.066 A 
ATOM     14  N03 J9V d   1       1.202 -48.276  10.892  0.00  0.00    -0.323 N 
ATOM     15  C37 J9V d   1       2.562 -46.953  12.545  0.00  0.00    -0.055 A 
ATOM     16  C02 J9V d   1       0.064 -48.528  10.116  0.00  0.00     0.245 A 
ATOM     17  H7  J9V d   1       1.955 -48.931  10.825  0.00  0.00     0.169 HD
ATOM     18  O01 J9V d   1       0.052 -49.517   9.406  0.00  0.00    -0.268 OA
ATOM     19  C07 J9V d   1      -1.020 -47.549  10.244  0.00  0.00    -0.017 A 
ATOM     20  H9  J9V d   1      -1.938 -47.676   9.673  0.00  0.00     0.092 H 
ATOM     21  C36 J9V d   1       2.693 -45.869  13.391  0.00  0.00    -0.058 A 
ATOM     22  H22 J9V d   1       3.383 -47.657  12.473  0.00  0.00     0.087 H 
ATOM     23  H21 J9V d   1       3.603 -45.767  13.971  0.00  0.00     0.086 H 
ATOM     24  H8  J9V d   1      -1.707 -45.788  11.139  0.00  0.00     0.085 H 
ENDBRANCH   5   8
ENDBRANCH   3   5
ENDBRANCH   1   3
BRANCH   1  25
ATOM     25  C14 J9V d   1       0.668 -46.323  16.480  0.00  0.00     0.248 C 
ATOM     26  N15 J9V d   1      -0.530 -47.080  16.435  0.00  0.00    -0.335 N 
ATOM     27  O26 J9V d   1       1.743 -46.841  16.261  0.00  0.00    -0.271 OA
BRANCH  26  28
ATOM     28  C20 J9V d   1      -1.852 -46.446  16.680  0.00  0.00     0.028 C 
ATOM     29  H3  J9V d   1      -2.519 -47.198  17.127  0.00  0.00     0.072 H 
ATOM     30  H4  J9V d   1      -1.711 -45.615  17.387  0.00  0.00     0.072 H 
BRANCH  28  31
ATOM     31  C21 J9V d   1      -2.532 -45.889  15.400  0.00  0.00     0.000 A 
ATOM     32  C22 J9V d   1      -2.770 -44.588  14.996  0.00  0.00    -0.068 A 
ATOM     33  C23 J9V d   1      -3.441 -44.461  13.721  0.00  0.00    -0.076 A 
ATOM     34  H5  J9V d   1      -2.475 -43.726  15.592  0.00  0.00     0.085 H 
ATOM     35  C24 J9V d   1      -3.709 -45.670  13.157  0.00  0.00    -0.044 A 
ATOM     36  H13 J9V d   1      -3.702 -43.507  13.265  0.00  0.00     0.084 H 
ATOM     37  S25 J9V d   1      -3.164 -46.911  14.170  0.00  0.00    -0.105 SA
ATOM     38  H6  J9V d   1      -4.201 -45.817  12.197  0.00  0.00     0.095 H 
ENDBRANCH  28  31
ENDBRANCH  26  28
BRANCH  26  39
ATOM     39  C16 J9V d   1      -0.498 -48.532  16.101  0.00  0.00     0.078 C 
ATOM     40  H11 J9V d   1      -1.449 -48.806  15.622  0.00  0.00     0.081 H 
ATOM     41  H12 J9V d   1       0.331 -48.717  15.402  0.00  0.00     0.081 H 
BRANCH  39  42
ATOM     42  C17 J9V d   1      -0.296 -49.429  17.376  0.00  0.00     0.191 C 
ATOM     43  O18 J9V d   1      -0.420 -48.878  18.477  0.00  0.00    -0.647 OA
ATOM     44  O19 J9V d   1      -0.022 -50.613  17.133  0.00  0.00    -0.647 OA
ENDBRANCH  39  42
ENDBRANCH  26  39
ENDBRANCH   1  25
BRANCH   1  45
ATOM     45  C27 J9V d   1       0.607 -44.470  18.298  0.00  0.00     0.007 A 
ATOM     46  C28 J9V d   1      -0.382 -43.574  18.804  0.00  0.00     0.077 A 
ATOM     47  C31 J9V d   1      -0.418 -43.280  20.176  0.00  0.00    -0.050 A 
ATOM     48  C32 J9V d   1       0.490 -43.860  21.062  0.00  0.00    -0.080 A 
ATOM     49  H17 J9V d   1      -1.164 -42.590  20.554  0.00  0.00     0.087 H 
ATOM     50  C33 J9V d   1       1.457 -44.736  20.584  0.00  0.00    -0.082 A 
ATOM     51  H18 J9V d   1       0.441 -43.628  22.120  0.00  0.00     0.083 H 
ATOM     52  C34 J9V d   1       1.504 -45.022  19.215  0.00  0.00    -0.072 A 
ATOM     53  H19 J9V d   1       2.167 -45.193  21.264  0.00  0.00     0.083 H 
ATOM     54  H20 J9V d   1       2.268 -45.700  18.851  0.00  0.00     0.084 H 
BRANCH  46  55
ATOM     55  O29 J9V d   1      -1.269 -43.010  17.910  0.00  0.00    -0.355 OA
BRANCH  55  56
ATOM     56  C30 J9V d   1      -2.437 -42.330  18.356  0.00  0.00     0.010 C 
ATOM     57  H14 J9V d   1      -3.000 -41.960  17.487  0.00  0.00     0.066 H 
ATOM     58  H15 J9V d   1      -2.147 -41.481  18.993  0.00  0.00     0.066 H 
ATOM     59  H16 J9V d   1      -3.067 -43.023  18.933  0.00  0.00     0.066 H 
ENDBRANCH  55  56
ENDBRANCH  46  55
ENDBRANCH   1  45
TORSDOF 11
