REMARK  7 active torsions:
REMARK  status: ('A' for Active; 'I' for Inactive)
REMARK    1  A    between atoms: S13_28  and  C16_1 
REMARK    2  A    between atoms: C20_5  and  O22_27 
REMARK    3  A    between atoms: C02_8  and  C01_7 
REMARK    4  A    between atoms: C04_10  and  C23_15 
REMARK    5  A    between atoms: C09_14  and  C06_12 
REMARK       I    between atoms: N11_22  and  C09_14 
REMARK    6  A    between atoms: N12_23  and  N11_22 
REMARK    7  A    between atoms: N12_23  and  S13_28 
ROOT
ATOM      1  C02 JAV d   1      29.060 189.948 -75.134  0.00  0.00    -0.021 A 
ATOM      2  C03 JAV d   1      29.593 191.058 -75.701  0.00  0.00    -0.064 A 
ATOM      3  C04 JAV d   1      29.338 192.289 -75.161  0.00  0.00    -0.024 A 
ATOM      4  C05 JAV d   1      28.560 192.397 -74.062  0.00  0.00    -0.054 A 
ATOM      5  C06 JAV d   1      28.036 191.310 -73.506  0.00  0.00     0.073 A 
ATOM      6  C07 JAV d   1      28.290 190.059 -74.046  0.00  0.00     0.138 A 
ATOM      7  F08 JAV d   1      27.735 188.933 -73.458  0.00  0.00    -0.204 F 
ATOM      8  H8  JAV d   1      30.220 190.970 -76.581  0.00  0.00     0.085 H 
ATOM      9  H9  JAV d   1      28.363 193.373 -73.633  0.00  0.00     0.086 H 
ENDROOT
BRANCH   5  10
ATOM     10  C09 JAV d   1      27.126 191.437 -72.191  0.00  0.00     0.273 C 
ATOM     11  N11 JAV d   1      27.561 190.682 -71.000  0.00  0.00    -0.256 N 
ATOM     12  H15 JAV d   1      28.389 190.124 -71.048  0.00  0.00     0.191 HD
ATOM     13  O10 JAV d   1      26.155 192.126 -72.168  0.00  0.00    -0.266 OA
BRANCH  11  14
ATOM     14  N12 JAV d   1      26.805 190.735 -69.755  0.00  0.00    -0.220 N 
ATOM     15  H16 JAV d   1      27.056 191.390 -69.042  0.00  0.00     0.200 HD
BRANCH  14  16
ATOM     16  S13 JAV d   1      25.506 189.686 -69.523  0.00  0.00     0.276 S 
ATOM     17  O14 JAV d   1      24.618 189.677 -70.649  0.00  0.00    -0.199 OA
ATOM     18  O15 JAV d   1      24.638 190.184 -68.452  0.00  0.00    -0.199 OA
BRANCH  16  19
ATOM     19  C16 JAV d   1      26.090 187.967 -69.191  0.00  0.00     0.083 A 
ATOM     20  C17 JAV d   1      26.704 187.246 -70.171  0.00  0.00    -0.060 A 
ATOM     21  C18 JAV d   1      27.124 185.967 -69.903  0.00  0.00    -0.079 A 
ATOM     22  H1  JAV d   1      26.859 187.679 -71.153  0.00  0.00     0.085 H 
ATOM     23  C19 JAV d   1      26.918 185.423 -68.648  0.00  0.00    -0.051 A 
ATOM     24  H2  JAV d   1      27.616 185.384 -70.673  0.00  0.00     0.083 H 
ATOM     25  C20 JAV d   1      26.302 186.152 -67.674  0.00  0.00     0.067 A 
ATOM     26  H3  JAV d   1      27.248 184.412 -68.438  0.00  0.00     0.087 H 
ATOM     27  C21 JAV d   1      25.881 187.424 -67.940  0.00  0.00    -0.028 A 
ATOM     28  H4  JAV d   1      25.384 188.005 -67.171  0.00  0.00     0.090 H 
BRANCH  25  29
ATOM     29  O22 JAV d   1      26.085 185.592 -66.369  0.00  0.00    -0.361 OA
ATOM     30  H17 JAV d   1      26.432 184.708 -66.343  0.00  0.00     0.217 HD
ENDBRANCH  25  29
ENDBRANCH  16  19
ENDBRANCH  14  16
ENDBRANCH  11  14
ENDBRANCH   5  10
BRANCH   3  31
ATOM     31  C23 JAV d   1      29.907 193.500 -75.746  0.00  0.00    -0.026 A 
ATOM     32  C24 JAV d   1      31.178 193.456 -76.313  0.00  0.00    -0.072 A 
ATOM     33  C25 JAV d   1      31.740 194.609 -76.863  0.00  0.00    -0.082 A 
ATOM     34  H10 JAV d   1      31.732 192.524 -76.327  0.00  0.00     0.084 H 
ATOM     35  C26 JAV d   1      31.018 195.828 -76.839  0.00  0.00    -0.083 A 
ATOM     36  H11 JAV d   1      32.728 194.572 -77.308  0.00  0.00     0.083 H 
ATOM     37  C27 JAV d   1      29.768 195.872 -76.270  0.00  0.00    -0.082 A 
ATOM     38  H12 JAV d   1      31.451 196.724 -77.269  0.00  0.00     0.083 H 
ATOM     39  C28 JAV d   1      29.198 194.694 -75.712  0.00  0.00    -0.072 A 
ATOM     40  H13 JAV d   1      29.216 196.805 -76.246  0.00  0.00     0.083 H 
ATOM     41  H14 JAV d   1      28.213 194.728 -75.261  0.00  0.00     0.084 H 
ENDBRANCH   3  31
BRANCH   1  42
ATOM     42  C01 JAV d   1      29.352 188.510 -75.763  0.00  0.00    -0.048 C 
ATOM     43  H5  JAV d   1      29.999 188.620 -76.646  0.00  0.00     0.033 H 
ATOM     44  H6  JAV d   1      28.403 188.040 -76.061  0.00  0.00     0.033 H 
ATOM     45  H7  JAV d   1      29.855 187.878 -75.016  0.00  0.00     0.033 H 
ENDBRANCH   1  42
TORSDOF 7
