REMARK  13 active torsions:
REMARK  status: ('A' for Active; 'I' for Inactive)
REMARK    1  A    between atoms: O12_1  and  C12_2 
REMARK    2  A    between atoms: C13_3  and  O13_4 
REMARK    3  A    between atoms: C14_5  and  O14_6 
REMARK    4  A    between atoms: C15_7  and  C16_8 
REMARK    5  A    between atoms: C16_8  and  O16_9 
REMARK    6  A    between atoms: C11_11  and  S22_12 
REMARK    7  A    between atoms: S22_12  and  C22_13 
REMARK    8  A    between atoms: C21_14  and  O21_15 
REMARK    9  A    between atoms: O21_15  and  C27_16 
REMARK   10  A    between atoms: C23_18  and  O23_19 
REMARK   11  A    between atoms: C24_20  and  O24_21 
REMARK   12  A    between atoms: C25_22  and  C26_23 
REMARK   13  A    between atoms: C26_23  and  O26_24 
ROOT
ATOM      1  C22 JSV d   1      28.448  33.563  33.762  0.00  0.00     0.068 C 
ATOM      2  C21 JSV d   1      28.416  34.918  32.975  0.00  0.00     0.145 C 
ATOM      3  O25 JSV d   1      29.435  34.932  31.927  0.00  0.00    -0.350 OA
ATOM      4  C23 JSV d   1      29.920  33.299  34.175  0.00  0.00     0.079 C 
ATOM      5  C24 JSV d   1      30.938  33.383  33.012  0.00  0.00     0.088 C 
ATOM      6  C25 JSV d   1      30.835  34.767  32.326  0.00  0.00     0.089 C 
ATOM      7  H12 JSV d   1      28.088  32.762  33.100  0.00  0.00     0.068 H 
ATOM      8  H13 JSV d   1      28.688  35.697  33.703  0.00  0.00     0.131 H 
ATOM      9  H17 JSV d   1      30.180  34.123  34.855  0.00  0.00     0.089 H 
ATOM     10  H19 JSV d   1      30.666  32.620  32.268  0.00  0.00     0.091 H 
ATOM     11  H21 JSV d   1      31.064  35.541  33.073  0.00  0.00     0.090 H 
ENDROOT
BRANCH   1  12
ATOM     12  S22 JSV d   1      27.478  33.551  35.264  0.00  0.00    -0.122 SA
BRANCH  12  13
ATOM     13  C11 JSV d   1      26.042  32.474  34.945  0.00  0.00     0.111 C 
ATOM     14  C12 JSV d   1      25.454  32.860  33.593  0.00  0.00     0.096 C 
ATOM     15  C13 JSV d   1      24.339  31.819  33.225  0.00  0.00     0.090 C 
ATOM     16  H2  JSV d   1      26.248  32.812  32.833  0.00  0.00     0.092 H 
ATOM     17  C14 JSV d   1      24.716  30.318  33.439  0.00  0.00     0.089 C 
ATOM     18  H3  JSV d   1      23.448  32.021  33.837  0.00  0.00     0.091 H 
ATOM     19  C15 JSV d   1      25.385  30.168  34.839  0.00  0.00     0.087 C 
ATOM     20  H5  JSV d   1      25.444  30.060  32.656  0.00  0.00     0.091 H 
ATOM     21  O15 JSV d   1      26.479  31.107  34.930  0.00  0.00    -0.363 OA
ATOM     22  H7  JSV d   1      24.641  30.440  35.603  0.00  0.00     0.090 H 
ATOM     23  H11 JSV d   1      25.286  32.611  35.732  0.00  0.00     0.104 H 
BRANCH  14  24
ATOM     24  O12 JSV d   1      24.921  34.242  33.619  0.00  0.00    -0.389 OA
ATOM     25  H1  JSV d   1      25.619  34.845  33.844  0.00  0.00     0.210 HD
ENDBRANCH  14  24
BRANCH  15  26
ATOM     26  O13 JSV d   1      24.053  32.113  31.840  0.00  0.00    -0.390 OA
ATOM     27  H4  JSV d   1      24.842  31.998  31.324  0.00  0.00     0.210 HD
ENDBRANCH  15  26
BRANCH  17  28
ATOM     28  O14 JSV d   1      23.638  29.288  33.399  0.00  0.00    -0.390 OA
ATOM     29  H6  JSV d   1      24.017  28.429  33.544  0.00  0.00     0.210 HD
ENDBRANCH  17  28
BRANCH  19  30
ATOM     30  C16 JSV d   1      25.811  28.750  35.116  0.00  0.00     0.043 C 
ATOM     31  H8  JSV d   1      26.612  28.459  34.421  0.00  0.00     0.078 H 
ATOM     32  H9  JSV d   1      24.954  28.072  34.992  0.00  0.00     0.078 H 
BRANCH  30  33
ATOM     33  O16 JSV d   1      26.305  28.683  36.505  0.00  0.00    -0.398 OA
ATOM     34  H10 JSV d   1      26.579  27.795  36.700  0.00  0.00     0.209 HD
ENDBRANCH  30  33
ENDBRANCH  19  30
ENDBRANCH  12  13
ENDBRANCH   1  12
BRANCH   2  35
ATOM     35  O21 JSV d   1      27.141  35.309  32.432  0.00  0.00    -0.365 OA
BRANCH  35  36
ATOM     36  C27 JSV d   1      27.078  36.594  31.795  0.00  0.00     0.007 C 
ATOM     37  H14 JSV d   1      26.057  36.771  31.426  0.00  0.00     0.066 H 
ATOM     38  H15 JSV d   1      27.783  36.620  30.951  0.00  0.00     0.066 H 
ATOM     39  H16 JSV d   1      27.346  37.376  32.520  0.00  0.00     0.066 H 
ENDBRANCH  35  36
ENDBRANCH   2  35
BRANCH   4  40
ATOM     40  O23 JSV d   1      30.098  32.084  34.943  0.00  0.00    -0.392 OA
ATOM     41  H18 JSV d   1      31.016  31.981  35.163  0.00  0.00     0.210 HD
ENDBRANCH   4  40
BRANCH   5  42
ATOM     42  O24 JSV d   1      32.275  33.087  33.464  0.00  0.00    -0.390 OA
ATOM     43  H20 JSV d   1      32.299  32.208  33.825  0.00  0.00     0.210 HD
ENDBRANCH   5  42
BRANCH   6  44
ATOM     44  C26 JSV d   1      31.885  34.937  31.165  0.00  0.00     0.043 C 
ATOM     45  H22 JSV d   1      32.045  33.961  30.684  0.00  0.00     0.078 H 
ATOM     46  H23 JSV d   1      32.833  35.295  31.592  0.00  0.00     0.078 H 
BRANCH  44  47
ATOM     47  O26 JSV d   1      31.437  35.876  30.174  0.00  0.00    -0.398 OA
ATOM     48  H24 JSV d   1      30.621  35.571  29.796  0.00  0.00     0.209 HD
ENDBRANCH  44  47
ENDBRANCH   6  44
TORSDOF 13
