REMARK  2 active torsions:
REMARK  status: ('A' for Active; 'I' for Inactive)
REMARK    1  A    between atoms: N09_11  and  C03_6 
REMARK    2  A    between atoms: C10_10  and  N19_17 
ROOT
ATOM      1  C14 J84 d   1     -20.836 -20.306 -10.830  0.00  0.00     0.203 A 
ATOM      2  C12 J84 d   1     -22.811 -20.507  -9.345  0.00  0.00     0.040 A 
ATOM      3  C11 J84 d   1     -22.184 -20.559 -10.574  0.00  0.00     0.079 A 
ATOM      4  C10 J84 d   1     -23.160 -20.989 -11.473  0.00  0.00     0.139 A 
ATOM      5  N09 J84 d   1     -24.299 -21.163 -10.813  0.00  0.00    -0.216 N 
ATOM      6  N13 J84 d   1     -24.083 -20.860  -9.504  0.00  0.00    -0.177 NA
ATOM      7  N15 J84 d   1     -20.308 -20.095 -12.021  0.00  0.00    -0.138 NA
ATOM      8  N16 J84 d   1     -18.956 -19.955 -11.879  0.00  0.00    -0.200 N 
ATOM      9  N17 J84 d   1     -18.688 -20.089 -10.562  0.00  0.00     0.022 NA
ATOM     10  N18 J84 d   1     -19.866 -20.319  -9.934  0.00  0.00    -0.136 NA
ATOM     11  H1  J84 d   1     -22.342 -20.224  -8.403  0.00  0.00     0.119 H 
ATOM     12  H5  J84 d   1     -18.274 -19.781 -12.631  0.00  0.00     0.208 HD
ENDROOT
BRANCH   5  13
ATOM     13  C03 J84 d   1     -25.476 -21.583 -11.311  0.00  0.00     0.082 A 
ATOM     14  C02 J84 d   1     -26.601 -20.771 -11.370  0.00  0.00    -0.052 A 
ATOM     15  C01 J84 d   1     -27.798 -21.285 -11.872  0.00  0.00    -0.060 A 
ATOM     16  H3  J84 d   1     -26.550 -19.744 -11.028  0.00  0.00     0.087 H 
ATOM     17  C06 J84 d   1     -27.875 -22.596 -12.307  0.00  0.00     0.035 A 
ATOM     18  H2  J84 d   1     -28.676 -20.651 -11.921  0.00  0.00     0.086 H 
ATOM     19  C05 J84 d   1     -26.778 -23.412 -12.241  0.00  0.00    -0.039 A 
ATOM     20 CL07 J84 d   1     -29.388 -23.288 -12.947  0.00  0.00    -0.084 Cl
ATOM     21  C04 J84 d   1     -25.602 -22.899 -11.743  0.00  0.00     0.064 A 
ATOM     22  H4  J84 d   1     -26.834 -24.442 -12.574  0.00  0.00     0.088 H 
ATOM     23 CL08 J84 d   1     -24.247 -24.021 -11.699  0.00  0.00    -0.082 Cl
ENDBRANCH   5  13
BRANCH   4  24
ATOM     24  N19 J84 d   1     -22.991 -21.223 -12.890  0.00  0.00    -0.383 N 
ATOM     25  H6  J84 d   1     -22.074 -21.065 -13.332  0.00  0.00     0.157 HD
ATOM     26  H7  J84 d   1     -23.787 -21.547 -13.457  0.00  0.00     0.157 HD
ENDBRANCH   4  24
TORSDOF 2
