REMARK  4 active torsions:
REMARK  status: ('A' for Active; 'I' for Inactive)
REMARK    1  A    between atoms: C09_3  and  C02_1 
REMARK       I    between atoms: C02_1  and  N03_18 
REMARK    2  A    between atoms: N03_18  and  C04_2 
REMARK    3  A    between atoms: N11_24  and  C12_4 
REMARK    4  A    between atoms: C18_10  and  C19_11 
ROOT
ATOM      1  C09 N1G d   1      14.329  12.147   5.129  0.00  0.00     0.148 A 
ATOM      2  C18 N1G d   1      14.964  13.964   6.151  0.00  0.00     0.071 A 
ATOM      3  C25 N1G d   1      13.951  13.071   6.042  0.00  0.00    -0.019 A 
ATOM      4  N10 N1G d   1      15.543  12.454   4.684  0.00  0.00    -0.161 NA
ATOM      5  N11 N1G d   1      15.959  13.605   5.342  0.00  0.00    -0.233 N 
ATOM      6  H11 N1G d   1      13.009  13.093   6.587  0.00  0.00     0.091 H 
ENDROOT
BRANCH   2   7
ATOM      7  C19 N1G d   1      14.920  15.132   7.106  0.00  0.00    -0.007 A 
ATOM      8  C20 N1G d   1      14.045  16.185   6.908  0.00  0.00    -0.071 A 
ATOM      9  C21 N1G d   1      14.037  17.229   7.817  0.00  0.00    -0.082 A 
ATOM     10  H6  N1G d   1      13.376  16.192   6.055  0.00  0.00     0.084 H 
ATOM     11  C22 N1G d   1      14.887  17.188   8.914  0.00  0.00    -0.083 A 
ATOM     12  H7  N1G d   1      13.372  18.073   7.673  0.00  0.00     0.083 H 
ATOM     13  C23 N1G d   1      15.754  16.125   9.099  0.00  0.00    -0.082 A 
ATOM     14  H8  N1G d   1      14.871  17.998   9.634  0.00  0.00     0.083 H 
ATOM     15  C24 N1G d   1      15.765  15.086   8.195  0.00  0.00    -0.071 A 
ATOM     16  H9  N1G d   1      16.422  16.110   9.953  0.00  0.00     0.083 H 
ATOM     17  H10 N1G d   1      16.430  14.242   8.338  0.00  0.00     0.084 H 
ENDBRANCH   2   7
BRANCH   5  18
ATOM     18  C12 N1G d   1      17.231  14.287   5.146  0.00  0.00     0.059 A 
ATOM     19  C13 N1G d   1      18.432  13.597   5.174  0.00  0.00    -0.055 A 
ATOM     20  C14 N1G d   1      19.634  14.265   4.979  0.00  0.00    -0.081 A 
ATOM     21  H1  N1G d   1      18.434  12.527   5.349  0.00  0.00     0.087 H 
ATOM     22  C15 N1G d   1      19.638  15.628   4.749  0.00  0.00    -0.083 A 
ATOM     23  H2  N1G d   1      20.569  13.717   5.007  0.00  0.00     0.083 H 
ATOM     24  C16 N1G d   1      18.441  16.318   4.725  0.00  0.00    -0.081 A 
ATOM     25  H3  N1G d   1      20.573  16.152   4.589  0.00  0.00     0.083 H 
ATOM     26  C17 N1G d   1      17.244  15.650   4.921  0.00  0.00    -0.055 A 
ATOM     27  H4  N1G d   1      18.439  17.388   4.552  0.00  0.00     0.083 H 
ATOM     28  H5  N1G d   1      16.311  16.201   4.898  0.00  0.00     0.087 H 
ENDBRANCH   5  18
BRANCH   1  29
ATOM     29  C02 N1G d   1      13.444  10.984   4.728  0.00  0.00     0.290 C 
ATOM     30  N03 N1G d   1      12.029  11.171   4.924  0.00  0.00    -0.150 N 
ATOM     31  H12 N1G d   1      11.728  12.045   5.306  0.00  0.00     0.188 HD
ATOM     32  O01 N1G d   1      13.898   9.980   4.294  0.00  0.00    -0.265 OA
BRANCH  30  33
ATOM     33  C04 N1G d   1      11.014  10.197   4.612  0.00  0.00     0.740 A 
ATOM     34  N05 N1G d   1       9.784  10.518   4.131  0.00  0.00    -0.109 N 
ATOM     35  N06 N1G d   1       9.098   9.277   3.982  0.00  0.00     0.038 NA
ATOM     36  H13 N1G d   1       9.424  11.459   3.919  0.00  0.00     0.203 HD
ATOM     37  N07 N1G d   1       9.974   8.318   4.390  0.00  0.00    -0.037 NA
ATOM     38  N08 N1G d   1      11.059   8.929   4.739  0.00  0.00     0.059 NA
ENDBRANCH  30  33
ENDBRANCH   1  29
TORSDOF 4
