REMARK  6 active torsions:
REMARK  status: ('A' for Active; 'I' for Inactive)
REMARK    1  A    between atoms: C10_6  and  C16_7 
REMARK    2  A    between atoms: C6_11  and  N11_13 
REMARK    3  A    between atoms: N11_13  and  C14_14 
REMARK    4  A    between atoms: N11_13  and  C12_16 
REMARK    5  A    between atoms: C14_14  and  C15_15 
REMARK    6  A    between atoms: C12_16  and  C13_17 
ROOT
ATOM      1  O17 MOL d   1      -5.746 -20.087  37.732  0.00  0.00    -0.260 OA
ATOM      2  C8  MOL d   1      -4.823 -19.956  36.952  0.00  0.00     0.288 A 
ATOM      3  O7  MOL d   1      -3.823 -20.906  37.009  0.00  0.00    -0.275 OA
ATOM      4  C2  MOL d   1      -2.690 -20.809  36.205  0.00  0.00     0.092 A 
ATOM      5  C9  MOL d   1      -4.661 -18.890  35.972  0.00  0.00    -0.004 A 
ATOM      6  C10 MOL d   1      -3.577 -18.782  35.174  0.00  0.00    -0.043 A 
ATOM      7  C3  MOL d   1      -2.515 -19.757  35.305  0.00  0.00     0.004 A 
ATOM      8  C4  MOL d   1      -1.309 -19.714  34.603  0.00  0.00    -0.068 A 
ATOM      9  C5  MOL d   1      -0.345 -20.688  34.780  0.00  0.00    -0.056 A 
ATOM     10  C6  MOL d   1      -0.545 -21.733  35.689  0.00  0.00     0.032 A 
ATOM     11  C1  MOL d   1      -1.743 -21.773  36.386  0.00  0.00    -0.024 A 
ATOM     12  H1  MOL d   1      -5.451 -18.146  35.879  0.00  0.00     0.093 H 
ATOM     13  H5  MOL d   1      -1.126 -18.903  33.907  0.00  0.00     0.085 H 
ATOM     14  H6  MOL d   1       0.575 -20.642  34.209  0.00  0.00     0.086 H 
ATOM     15  H7  MOL d   1      -1.929 -22.581  37.084  0.00  0.00     0.091 H 
ENDROOT
BRANCH  10  16
ATOM     16  N11 MOL d   1       0.438 -22.697  35.913  0.00  0.00    -0.382 N 
BRANCH  16  17
ATOM     17  C14 MOL d   1       1.896 -22.470  35.527  0.00  0.00    -0.008 C 
ATOM     18  H8  MOL d   1       2.557 -22.815  36.336  0.00  0.00     0.063 H 
ATOM     19  H9  MOL d   1       2.073 -21.401  35.340  0.00  0.00     0.063 H 
BRANCH  17  20
ATOM     20  C15 MOL d   1       2.155 -23.240  34.307  0.00  0.00    -0.061 C 
ATOM     21  H10 MOL d   1       3.202 -23.099  33.999  0.00  0.00     0.029 H 
ATOM     22  H11 MOL d   1       1.487 -22.892  33.505  0.00  0.00     0.029 H 
ATOM     23  H12 MOL d   1       1.971 -24.307  34.501  0.00  0.00     0.029 H 
ENDBRANCH  17  20
ENDBRANCH  16  17
BRANCH  16  24
ATOM     24  C12 MOL d   1       0.184 -23.876  36.747  0.00  0.00    -0.008 C 
ATOM     25  H13 MOL d   1      -0.404 -23.545  37.616  0.00  0.00     0.063 H 
ATOM     26  H14 MOL d   1       1.159 -24.256  37.087  0.00  0.00     0.063 H 
BRANCH  24  27
ATOM     27  C13 MOL d   1      -0.552 -25.024  36.115  0.00  0.00    -0.061 C 
ATOM     28  H15 MOL d   1      -0.671 -25.833  36.851  0.00  0.00     0.029 H 
ATOM     29  H16 MOL d   1       0.019 -25.395  35.251  0.00  0.00     0.029 H 
ATOM     30  H17 MOL d   1      -1.543 -24.684  35.780  0.00  0.00     0.029 H 
ENDBRANCH  24  27
ENDBRANCH  16  24
ENDBRANCH  10  16
BRANCH   6  31
ATOM     31  C16 MOL d   1      -3.473 -17.684  34.154  0.00  0.00    -0.050 C 
ATOM     32  H2  MOL d   1      -4.370 -17.049  34.206  0.00  0.00     0.033 H 
ATOM     33  H3  MOL d   1      -3.393 -18.124  33.149  0.00  0.00     0.033 H 
ATOM     34  H4  MOL d   1      -2.580 -17.075  34.360  0.00  0.00     0.033 H 
ENDBRANCH   6  31
TORSDOF 6
