REMARK  7 active torsions:
REMARK  status: ('A' for Active; 'I' for Inactive)
REMARK    1  A    between atoms: C10_1  and  C09_17 
REMARK    2  A    between atoms: C16_22  and  C17_3 
REMARK    3  A    between atoms: C19_24  and  C20_4 
REMARK    4  A    between atoms: N25_27  and  C26_7 
REMARK    5  A    between atoms: C08_16  and  C05_13 
REMARK    6  A    between atoms: N13_20  and  C12_19 
REMARK    7  A    between atoms: N13_20  and  C14_21 
ROOT
ATOM      1  C08 JQP d   1       0.282  40.241  18.410  0.00  0.00     0.097 A 
ATOM      2  C09 JQP d   1      -0.622  39.891  19.440  0.00  0.00     0.095 A 
ATOM      3  N25 JQP d   1      -1.106  41.071  19.943  0.00  0.00    -0.333 N 
ATOM      4  C32 JQP d   1      -0.499  42.084  19.271  0.00  0.00     0.067 A 
ATOM      5  N33 JQP d   1       0.353  41.585  18.335  0.00  0.00    -0.241 NA
ATOM      6  H28 JQP d   1      -0.670  43.144  19.455  0.00  0.00     0.143 H 
ENDROOT
BRANCH   2   7
ATOM      7  C10 JQP d   1      -1.027  38.595  19.870  0.00  0.00     0.106 A 
ATOM      8  C24 JQP d   1      -1.126  37.497  18.997  0.00  0.00    -0.035 A 
ATOM      9  C23 JQP d   1      -1.547  36.248  19.498  0.00  0.00     0.023 A 
ATOM     10  H9  JQP d   1      -0.881  37.610  17.947  0.00  0.00     0.089 H 
ATOM     11  N22 JQP d   1      -1.935  36.133  20.789  0.00  0.00    -0.075 NA
ATOM     12  H19 JQP d   1      -1.560  35.380  18.849  0.00  0.00     0.115 H 
ATOM     13  C12 JQP d   1      -1.862  37.197  21.623  0.00  0.00     0.727 A 
ATOM     14  N11 JQP d   1      -1.417  38.391  21.171  0.00  0.00    -0.060 NA
BRANCH  13  15
ATOM     15  N13 JQP d   1      -2.232  37.154  22.906  0.00  0.00    -0.188 N 
ATOM     16  H17 JQP d   1      -2.674  36.279  23.224  0.00  0.00     0.184 HD
BRANCH  15  17
ATOM     17  C14 JQP d   1      -2.092  38.137  23.845  0.00  0.00     0.050 A 
ATOM     18  C15 JQP d   1      -0.895  38.819  24.111  0.00  0.00    -0.051 A 
ATOM     19  C16 JQP d   1      -0.834  39.829  25.108  0.00  0.00    -0.059 A 
ATOM     20  H1  JQP d   1      -0.003  38.571  23.547  0.00  0.00     0.087 H 
ATOM     21  C18 JQP d   1      -2.013  40.138  25.828  0.00  0.00    -0.071 A 
ATOM     22  C19 JQP d   1      -3.237  39.459  25.575  0.00  0.00    -0.059 A 
ATOM     23  H18 JQP d   1      -1.982  40.909  26.589  0.00  0.00     0.085 H 
ATOM     24  C21 JQP d   1      -3.259  38.466  24.576  0.00  0.00    -0.051 A 
ATOM     25  H8  JQP d   1      -4.185  37.945  24.363  0.00  0.00     0.087 H 
BRANCH  19  26
ATOM     26  C17 JQP d   1       0.452  40.533  25.349  0.00  0.00    -0.051 C 
ATOM     27  H2  JQP d   1       0.319  41.277  26.148  0.00  0.00     0.033 H 
ATOM     28  H3  JQP d   1       0.771  41.040  24.426  0.00  0.00     0.033 H 
ATOM     29  H4  JQP d   1       1.218  39.804  25.651  0.00  0.00     0.033 H 
ENDBRANCH  19  26
BRANCH  22  30
ATOM     30  C20 JQP d   1      -4.441  39.836  26.365  0.00  0.00    -0.051 C 
ATOM     31  H5  JQP d   1      -5.295  39.220  26.047  0.00  0.00     0.033 H 
ATOM     32  H6  JQP d   1      -4.672  40.898  26.197  0.00  0.00     0.033 H 
ATOM     33  H7  JQP d   1      -4.245  39.668  27.434  0.00  0.00     0.033 H 
ENDBRANCH  22  30
ENDBRANCH  15  17
ENDBRANCH  13  15
ENDBRANCH   2   7
BRANCH   1  34
ATOM     34  C05 JQP d   1       1.134  39.467  17.591  0.00  0.00    -0.005 A 
ATOM     35  C04 JQP d   1       1.548  39.965  16.341  0.00  0.00    -0.068 A 
ATOM     36  C03 JQP d   1       2.431  39.253  15.537  0.00  0.00    -0.045 A 
ATOM     37  H14 JQP d   1       1.171  40.922  15.999  0.00  0.00     0.085 H 
ATOM     38  C02 JQP d   1       2.988  38.035  15.978  0.00  0.00     0.116 A 
ATOM     39  H13 JQP d   1       2.695  39.639  14.559  0.00  0.00     0.088 H 
ATOM     40  F01 JQP d   1       3.826  37.381  15.211  0.00  0.00    -0.206 F 
ATOM     41  C07 JQP d   1       2.608  37.533  17.234  0.00  0.00    -0.045 A 
ATOM     42  C06 JQP d   1       1.695  38.257  18.037  0.00  0.00    -0.068 A 
ATOM     43  H16 JQP d   1       3.014  36.592  17.588  0.00  0.00     0.088 H 
ATOM     44  H15 JQP d   1       1.423  37.872  19.013  0.00  0.00     0.085 H 
ENDBRANCH   1  34
BRANCH   3  45
ATOM     45  C26 JQP d   1      -2.087  41.303  21.010  0.00  0.00     0.021 C 
ATOM     46  C27 JQP d   1      -3.373  42.061  20.576  0.00  0.00    -0.023 C 
ATOM     47  C28 JQP d   1      -4.320  42.291  21.780  0.00  0.00     0.084 C 
ATOM     48  H20 JQP d   1      -3.899  41.468  19.814  0.00  0.00     0.038 H 
ATOM     49  H21 JQP d   1      -3.089  43.035  20.151  0.00  0.00     0.038 H 
ATOM     50  N29 JQP d   1      -3.641  43.049  22.850  0.00  0.00    -0.075 N 
ATOM     51  H11 JQP d   1      -4.640  41.316  22.177  0.00  0.00     0.075 H 
ATOM     52  H12 JQP d   1      -5.201  42.856  21.442  0.00  0.00     0.075 H 
ATOM     53  C30 JQP d   1      -2.415  42.351  23.299  0.00  0.00     0.084 C 
ATOM     54  H22 JQP d   1      -4.269  43.149  23.632  0.00  0.00     0.277 HD
ATOM     55  H23 JQP d   1      -3.392  43.961  22.501  0.00  0.00     0.277 HD
ATOM     56  C31 JQP d   1      -1.412  42.094  22.146  0.00  0.00    -0.023 C 
ATOM     57  H24 JQP d   1      -2.702  41.384  23.737  0.00  0.00     0.075 H 
ATOM     58  H25 JQP d   1      -1.920  42.967  24.064  0.00  0.00     0.075 H 
ATOM     59  H26 JQP d   1      -1.056  43.058  21.754  0.00  0.00     0.038 H 
ATOM     60  H27 JQP d   1      -0.558  41.517  22.531  0.00  0.00     0.038 H 
ATOM     61  H10 JQP d   1      -2.395  40.320  21.396  0.00  0.00     0.073 H 
ENDBRANCH   3  45
TORSDOF 7
