REMARK  7 active torsions:
REMARK  status: ('A' for Active; 'I' for Inactive)
REMARK    1  A    between atoms: C10_1  and  C09_17 
REMARK    2  A    between atoms: C17_3  and  C18_23 
REMARK    3  A    between atoms: C19_24  and  C20_4 
REMARK    4  A    between atoms: N25_27  and  C26_7 
REMARK    5  A    between atoms: C08_16  and  C07_15 
REMARK    6  A    between atoms: N13_20  and  C12_19 
REMARK    7  A    between atoms: N13_20  and  C14_21 
ROOT
ATOM      1  C08 JQY d   1      20.109 -19.776  36.812  0.00  0.00     0.097 A 
ATOM      2  C09 JQY d   1      20.963 -20.169  35.759  0.00  0.00     0.095 A 
ATOM      3  N25 JQY d   1      21.440 -19.034  35.202  0.00  0.00    -0.333 N 
ATOM      4  C32 JQY d   1      20.907 -17.997  35.885  0.00  0.00     0.067 A 
ATOM      5  N33 JQY d   1      20.094 -18.426  36.864  0.00  0.00    -0.241 NA
ATOM      6  H28 JQY d   1      21.110 -16.949  35.669  0.00  0.00     0.143 H 
ENDROOT
BRANCH   2   7
ATOM      7  C10 JQY d   1      21.277 -21.486  35.358  0.00  0.00     0.106 A 
ATOM      8  C24 JQY d   1      21.433 -22.537  36.271  0.00  0.00    -0.035 A 
ATOM      9  C23 JQY d   1      21.759 -23.822  35.799  0.00  0.00     0.023 A 
ATOM     10  H6  JQY d   1      21.304 -22.362  37.333  0.00  0.00     0.089 H 
ATOM     11  N22 JQY d   1      21.946 -24.023  34.473  0.00  0.00    -0.075 NA
ATOM     12  H19 JQY d   1      21.860 -24.648  36.494  0.00  0.00     0.115 H 
ATOM     13  C12 JQY d   1      21.838 -22.990  33.602  0.00  0.00     0.727 A 
ATOM     14  N11 JQY d   1      21.511 -21.745  34.045  0.00  0.00    -0.060 NA
BRANCH  13  15
ATOM     15  N13 JQY d   1      22.066 -23.262  32.302  0.00  0.00    -0.188 N 
ATOM     16  H14 JQY d   1      22.433 -24.195  32.068  0.00  0.00     0.184 HD
BRANCH  15  17
ATOM     17  C14 JQY d   1      21.849 -22.402  31.283  0.00  0.00     0.049 A 
ATOM     18  C15 JQY d   1      22.854 -22.340  30.301  0.00  0.00    -0.056 A 
ATOM     19  C16 JQY d   1      22.693 -21.497  29.211  0.00  0.00    -0.075 A 
ATOM     20  H1  JQY d   1      23.748 -22.946  30.395  0.00  0.00     0.086 H 
ATOM     21  C17 JQY d   1      21.536 -20.709  29.063  0.00  0.00    -0.056 A 
ATOM     22  H15 JQY d   1      23.473 -21.444  28.459  0.00  0.00     0.084 H 
ATOM     23  C19 JQY d   1      20.507 -20.772  30.038  0.00  0.00    -0.054 A 
ATOM     24  C21 JQY d   1      20.686 -21.627  31.151  0.00  0.00    -0.050 A 
ATOM     25  H5  JQY d   1      19.916 -21.684  31.911  0.00  0.00     0.087 H 
BRANCH  21  26
ATOM     26  C18 JQY d   1      21.412 -19.841  27.869  0.00  0.00    -0.051 C 
ATOM     27  H16 JQY d   1      22.314 -19.941  27.247  0.00  0.00     0.033 H 
ATOM     28  H17 JQY d   1      21.300 -18.794  28.187  0.00  0.00     0.033 H 
ATOM     29  H18 JQY d   1      20.529 -20.143  27.286  0.00  0.00     0.033 H 
ENDBRANCH  21  26
BRANCH  23  30
ATOM     30  C20 JQY d   1      19.262 -19.954  29.923  0.00  0.00    -0.051 C 
ATOM     31  H2  JQY d   1      18.608 -20.160  30.783  0.00  0.00     0.033 H 
ATOM     32  H3  JQY d   1      18.737 -20.214  28.992  0.00  0.00     0.033 H 
ATOM     33  H4  JQY d   1      19.525 -18.886  29.910  0.00  0.00     0.033 H 
ENDBRANCH  23  30
ENDBRANCH  15  17
ENDBRANCH  13  15
ENDBRANCH   2   7
BRANCH   1  34
ATOM     34  C07 JQY d   1      19.298 -20.512  37.707  0.00  0.00    -0.005 A 
ATOM     35  C04 JQY d   1      19.037 -19.991  38.996  0.00  0.00    -0.068 A 
ATOM     36  C03 JQY d   1      18.209 -20.687  39.869  0.00  0.00    -0.045 A 
ATOM     37  H11 JQY d   1      19.482 -19.051  39.302  0.00  0.00     0.085 H 
ATOM     38  C02 JQY d   1      17.635 -21.920  39.489  0.00  0.00     0.116 A 
ATOM     39  H10 JQY d   1      18.002 -20.279  40.852  0.00  0.00     0.088 H 
ATOM     40  F01 JQY d   1      16.867 -22.592  40.313  0.00  0.00    -0.206 F 
ATOM     41  C05 JQY d   1      17.876 -22.436  38.208  0.00  0.00    -0.045 A 
ATOM     42  C06 JQY d   1      18.686 -21.732  37.324  0.00  0.00    -0.068 A 
ATOM     43  H12 JQY d   1      17.433 -23.379  37.908  0.00  0.00     0.088 H 
ATOM     44  H13 JQY d   1      18.852 -22.122  36.326  0.00  0.00     0.085 H 
ENDBRANCH   1  34
BRANCH   3  45
ATOM     45  C26 JQY d   1      22.380 -18.867  34.111  0.00  0.00     0.021 C 
ATOM     46  C27 JQY d   1      23.488 -17.786  34.243  0.00  0.00    -0.023 C 
ATOM     47  C28 JQY d   1      24.405 -17.826  33.010  0.00  0.00     0.084 C 
ATOM     48  H20 JQY d   1      24.083 -17.982  35.147  0.00  0.00     0.038 H 
ATOM     49  H21 JQY d   1      23.022 -16.793  34.319  0.00  0.00     0.038 H 
ATOM     50  N29 JQY d   1      23.588 -17.550  31.819  0.00  0.00    -0.075 N 
ATOM     51  H8  JQY d   1      24.867 -18.820  32.922  0.00  0.00     0.075 H 
ATOM     52  H9  JQY d   1      25.192 -17.063  33.106  0.00  0.00     0.075 H 
ATOM     53  C30 JQY d   1      22.576 -18.608  31.594  0.00  0.00     0.084 C 
ATOM     54  H22 JQY d   1      24.192 -17.498  31.013  0.00  0.00     0.277 HD
ATOM     55  H23 JQY d   1      23.117 -16.668  31.943  0.00  0.00     0.277 HD
ATOM     56  C31 JQY d   1      21.593 -18.667  32.790  0.00  0.00    -0.023 C 
ATOM     57  H24 JQY d   1      23.082 -19.579  31.491  0.00  0.00     0.075 H 
ATOM     58  H25 JQY d   1      22.016 -18.386  30.674  0.00  0.00     0.075 H 
ATOM     59  H26 JQY d   1      21.026 -17.726  32.842  0.00  0.00     0.038 H 
ATOM     60  H27 JQY d   1      20.897 -19.507  32.649  0.00  0.00     0.038 H 
ATOM     61  H7  JQY d   1      22.915 -19.825  34.031  0.00  0.00     0.073 H 
ENDBRANCH   3  45
TORSDOF 7
