REMARK WARNING: 32 MAX_TORS EXCEEDED!!!
REMARK  55 active torsions:
REMARK  status: ('A' for Active; 'I' for Inactive)
REMARK    1  A    between atoms: C6_1  and  O5_27 
REMARK    2  A    between atoms: C5_2  and  O3_28 
REMARK    3  A    between atoms: C4_3  and  O4_32 
REMARK    4  A    between atoms: C3_4  and  C2_30 
REMARK    5  A    between atoms: O1_26  and  C1_5 
REMARK    6  A    between atoms: CBS_7  and  CBT_6 
REMARK    7  A    between atoms: CBR_8  and  CBS_7 
REMARK    8  A    between atoms: CBQ_9  and  CBR_8 
REMARK    9  A    between atoms: CBP_10  and  CBQ_9 
REMARK   10  A    between atoms: CBO_11  and  CBP_10 
REMARK   11  A    between atoms: CBN_12  and  CBO_11 
REMARK   12  A    between atoms: CBM_13  and  CBN_12 
REMARK   13  A    between atoms: CBL_14  and  CBM_13 
REMARK   14  A    between atoms: CBK_15  and  CBL_14 
REMARK   15  A    between atoms: CBJ_16  and  CBK_15 
REMARK   16  A    between atoms: CBI_17  and  CBJ_16 
REMARK   17  A    between atoms: CBH_18  and  CBI_17 
REMARK   18  A    between atoms: CBG_19  and  CBH_18 
REMARK   19  A    between atoms: CAQ_20  and  CBG_19 
REMARK   20  A    between atoms: CAQ_20  and  OAR_21 
REMARK   21  A    between atoms: CAP_22  and  CAQ_20 
REMARK   22  A    between atoms: CAP_22  and  OAS_23 
REMARK   23  A    between atoms: CAN_24  and  CAP_22 
REMARK   24  A    between atoms: CAM_25  and  CAN_24 
REMARK   25  A    between atoms: CAN_24  and  NAO_36 
REMARK   26  A    between atoms: CAM_25  and  O1_26 
REMARK   27  A    between atoms: C2_30  and  O6_31 
REMARK   28  A    between atoms: O4_32  and  CAT_33 
REMARK   29  A    between atoms: CAT_33  and  CAU_34 
REMARK   30  A    between atoms: CAU_34  and  CAX_35 
REMARK       I    between atoms: NAO_36  and  CBE_37 
REMARK   31  A    between atoms: CBE_37  and  CBU_39 
REMARK   32  A    between atoms: CBU_39  and  CBV_40 
REMARK   33  A    between atoms: CBV_40  and  CBW_41 
REMARK   34  A    between atoms: CBW_41  and  CBX_42 
REMARK   35  A    between atoms: CBX_42  and  CBY_43 
REMARK   36  A    between atoms: CBY_43  and  CBZ_44 
REMARK   37  A    between atoms: CBZ_44  and  CCA_45 
REMARK   38  A    between atoms: CCA_45  and  CCB_46 
REMARK   39  A    between atoms: CCB_46  and  CCC_47 
REMARK   40  A    between atoms: CCC_47  and  CCD_48 
REMARK   41  A    between atoms: CCD_48  and  CCE_49 
REMARK   42  A    between atoms: CCE_49  and  CCF_50 
REMARK   43  A    between atoms: CCF_50  and  CCG_51 
REMARK   44  A    between atoms: CCG_51  and  CCH_52 
REMARK   45  A    between atoms: CCH_52  and  CCI_53 
REMARK   46  A    between atoms: CCI_53  and  CCJ_54 
REMARK   47  A    between atoms: CCJ_54  and  CCK_55 
REMARK   48  A    between atoms: CCK_55  and  CCL_56 
REMARK   49  A    between atoms: CCL_56  and  CCM_57 
REMARK   50  A    between atoms: CCM_57  and  CCN_58 
REMARK   51  A    between atoms: CCN_58  and  CCO_59 
REMARK   52  A    between atoms: CCO_59  and  CCP_60 
REMARK   53  A    between atoms: CCP_60  and  CCQ_61 
REMARK   54  A    between atoms: CCQ_61  and  CCR_62 
REMARK   55  A    between atoms: CCR_62  and  CCS_63 
ROOT
ATOM      1  CAN JTG d   1     -13.512 -27.582  19.041  0.00  0.00     0.060 C 
ATOM      2  H39 JTG d   1     -12.508 -27.631  19.488  0.00  0.00     0.080 H 
ENDROOT
BRANCH   1   3
ATOM      3  CAP JTG d   1     -13.488 -28.268  17.679  0.00  0.00     0.081 C 
ATOM      4  H37 JTG d   1     -14.506 -28.260  17.261  0.00  0.00     0.090 H 
BRANCH   3   5
ATOM      5  CAQ JTG d   1     -12.554 -27.574  16.679  0.00  0.00     0.062 C 
ATOM      6  H35 JTG d   1     -12.876 -26.530  16.546  0.00  0.00     0.086 H 
BRANCH   5   7
ATOM      7  CBG JTG d   1     -11.101 -27.581  17.166  0.00  0.00    -0.039 C 
ATOM      8  H33 JTG d   1     -11.006 -26.890  18.017  0.00  0.00     0.036 H 
ATOM      9  H34 JTG d   1     -10.837 -28.599  17.489  0.00  0.00     0.036 H 
BRANCH   7  10
ATOM     10  CBH JTG d   1     -10.130 -27.141  16.052  0.00  0.00    -0.063 C 
ATOM     11  H31 JTG d   1      -9.098 -27.231  16.422  0.00  0.00     0.033 H 
ATOM     12  H32 JTG d   1     -10.265 -27.799  15.181  0.00  0.00     0.033 H 
BRANCH  10  13
ATOM     13  CBI JTG d   1     -10.380 -25.687  15.622  0.00  0.00    -0.065 C 
ATOM     14  H29 JTG d   1     -11.289 -25.646  15.004  0.00  0.00     0.033 H 
ATOM     15  H30 JTG d   1     -10.518 -25.065  16.519  0.00  0.00     0.033 H 
BRANCH  13  16
ATOM     16  CBJ JTG d   1      -9.188 -25.138  14.805  0.00  0.00    -0.065 C 
ATOM     17  H27 JTG d   1      -9.324 -24.056  14.658  0.00  0.00     0.033 H 
ATOM     18  H28 JTG d   1      -8.258 -25.318  15.365  0.00  0.00     0.033 H 
BRANCH  16  19
ATOM     19  CBK JTG d   1      -9.083 -25.819  13.430  0.00  0.00    -0.065 C 
ATOM     20  H25 JTG d   1      -8.825 -26.881  13.560  0.00  0.00     0.033 H 
ATOM     21  H26 JTG d   1     -10.043 -25.737  12.900  0.00  0.00     0.033 H 
BRANCH  19  22
ATOM     22  CBL JTG d   1      -7.977 -25.109  12.619  0.00  0.00    -0.065 C 
ATOM     23  H23 JTG d   1      -8.152 -24.023  12.648  0.00  0.00     0.033 H 
ATOM     24  H24 JTG d   1      -7.000 -25.335  13.071  0.00  0.00     0.033 H 
BRANCH  22  25
ATOM     25  CBM JTG d   1      -7.973 -25.575  11.161  0.00  0.00    -0.065 C 
ATOM     26  H21 JTG d   1      -8.991 -25.870  10.864  0.00  0.00     0.033 H 
ATOM     27  H22 JTG d   1      -7.624 -24.758  10.513  0.00  0.00     0.033 H 
BRANCH  25  28
ATOM     28  CBN JTG d   1      -7.032 -26.773  11.028  0.00  0.00    -0.065 C 
ATOM     29  H19 JTG d   1      -6.023 -26.479  11.351  0.00  0.00     0.033 H 
ATOM     30  H20 JTG d   1      -7.397 -27.593  11.664  0.00  0.00     0.033 H 
BRANCH  28  31
ATOM     31  CBO JTG d   1      -6.978 -27.247   9.576  0.00  0.00    -0.065 C 
ATOM     32  H17 JTG d   1      -7.996 -27.324   9.165  0.00  0.00     0.033 H 
ATOM     33  H18 JTG d   1      -6.391 -26.542   8.970  0.00  0.00     0.033 H 
BRANCH  31  34
ATOM     34  CBP JTG d   1      -6.308 -28.620   9.581  0.00  0.00    -0.065 C 
ATOM     35  H15 JTG d   1      -5.348 -28.552  10.113  0.00  0.00     0.033 H 
ATOM     36  H16 JTG d   1      -6.962 -29.340  10.095  0.00  0.00     0.033 H 
BRANCH  34  37
ATOM     37  CBQ JTG d   1      -6.060 -29.095   8.161  0.00  0.00    -0.065 C 
ATOM     38  H13 JTG d   1      -7.005 -29.458   7.730  0.00  0.00     0.033 H 
ATOM     39  H14 JTG d   1      -5.681 -28.256   7.559  0.00  0.00     0.033 H 
BRANCH  37  40
ATOM     40  CBR JTG d   1      -5.026 -30.236   8.148  0.00  0.00    -0.065 C 
ATOM     41  H11 JTG d   1      -4.445 -30.187   7.215  0.00  0.00     0.033 H 
ATOM     42  H12 JTG d   1      -4.350 -30.121   9.008  0.00  0.00     0.033 H 
BRANCH  40  43
ATOM     43  CBS JTG d   1      -5.719 -31.585   8.234  0.00  0.00    -0.069 C 
ATOM     44  H9  JTG d   1      -6.155 -31.707   9.237  0.00  0.00     0.032 H 
ATOM     45  H10 JTG d   1      -6.517 -31.633   7.479  0.00  0.00     0.032 H 
BRANCH  43  46
ATOM     46  CBT JTG d   1      -4.709 -32.712   7.978  0.00  0.00    -0.077 C 
ATOM     47  H6  JTG d   1      -5.220 -33.684   8.042  0.00  0.00     0.027 H 
ATOM     48  H7  JTG d   1      -3.910 -32.667   8.733  0.00  0.00     0.027 H 
ATOM     49  H8  JTG d   1      -4.273 -32.593   6.975  0.00  0.00     0.027 H 
ENDBRANCH  43  46
ENDBRANCH  40  43
ENDBRANCH  37  40
ENDBRANCH  34  37
ENDBRANCH  31  34
ENDBRANCH  28  31
ENDBRANCH  25  28
ENDBRANCH  22  25
ENDBRANCH  19  22
ENDBRANCH  16  19
ENDBRANCH  13  16
ENDBRANCH  10  13
ENDBRANCH   7  10
ENDBRANCH   5   7
BRANCH   5  50
ATOM     50  OAR JTG d   1     -12.669 -28.277  15.423  0.00  0.00    -0.393 OA
ATOM     51  H36 JTG d   1     -12.386 -29.176  15.538  0.00  0.00     0.210 HD
ENDBRANCH   5  50
ENDBRANCH   3   5
BRANCH   3  52
ATOM     52  OAS JTG d   1     -13.075 -29.613  17.885  0.00  0.00    -0.391 OA
ATOM     53  H38 JTG d   1     -13.100 -30.081  17.059  0.00  0.00     0.210 HD
ENDBRANCH   3  52
ENDBRANCH   1   3
BRANCH   1  54
ATOM     54  CAM JTG d   1     -14.520 -28.281  19.954  0.00  0.00     0.044 C 
ATOM     55  H40 JTG d   1     -14.547 -27.786  20.936  0.00  0.00     0.077 H 
ATOM     56  H41 JTG d   1     -14.243 -29.337  20.084  0.00  0.00     0.077 H 
BRANCH  54  57
ATOM     57  O1  JTG d   1     -15.788 -28.184  19.324  0.00  0.00    -0.356 OA
BRANCH  57  58
ATOM     58  C1  JTG d   1     -16.827 -28.866  20.016  0.00  0.00     0.158 C 
ATOM     59  C6  JTG d   1     -18.085 -28.748  19.181  0.00  0.00     0.110 C 
ATOM     60  C5  JTG d   1     -18.439 -27.278  19.044  0.00  0.00     0.092 C 
ATOM     61  H1  JTG d   1     -18.909 -29.281  19.677  0.00  0.00     0.094 H 
ATOM     62  C4  JTG d   1     -18.645 -26.661  20.427  0.00  0.00     0.092 C 
ATOM     63  H2  JTG d   1     -17.622 -26.752  18.529  0.00  0.00     0.091 H 
ATOM     64  C3  JTG d   1     -17.377 -26.873  21.264  0.00  0.00     0.089 C 
ATOM     65  H3  JTG d   1     -18.838 -25.582  20.331  0.00  0.00     0.091 H 
ATOM     66  O2  JTG d   1     -17.035 -28.265  21.305  0.00  0.00    -0.348 OA
ATOM     67  H4  JTG d   1     -16.556 -26.295  20.816  0.00  0.00     0.090 H 
ATOM     68  H5  JTG d   1     -16.560 -29.925  20.145  0.00  0.00     0.133 H 
BRANCH  59  69
ATOM     69  O5  JTG d   1     -17.858 -29.327  17.871  0.00  0.00    -0.388 OA
ATOM     70  H42 JTG d   1     -17.149 -28.864  17.440  0.00  0.00     0.210 HD
ENDBRANCH  59  69
BRANCH  60  71
ATOM     71  O3  JTG d   1     -19.618 -27.159  18.292  0.00  0.00    -0.390 OA
ATOM     72  H43 JTG d   1     -19.485 -27.544  17.434  0.00  0.00     0.210 HD
ENDBRANCH  60  71
BRANCH  62  73
ATOM     73  O4  JTG d   1     -19.791 -27.301  21.029  0.00  0.00    -0.381 OA
BRANCH  73  74
ATOM     74  CAT JTG d   1     -20.725 -26.408  21.647  0.00  0.00     0.020 C 
ATOM     75  H47 JTG d   1     -20.231 -25.446  21.847  0.00  0.00     0.074 H 
ATOM     76  H48 JTG d   1     -21.074 -26.845  22.594  0.00  0.00     0.074 H 
BRANCH  74  77
ATOM     77  CAU JTG d   1     -21.920 -26.181  20.724  0.00  0.00    -0.049 C 
ATOM     78  H49 JTG d   1     -22.818 -26.633  21.170  0.00  0.00     0.035 H 
ATOM     79  H50 JTG d   1     -21.721 -26.646  19.747  0.00  0.00     0.035 H 
BRANCH  77  80
ATOM     80  CAX JTG d   1     -22.146 -24.685  20.536  0.00  0.00    -0.075 C 
ATOM     81  H51 JTG d   1     -23.007 -24.525  19.871  0.00  0.00     0.027 H 
ATOM     82  H52 JTG d   1     -21.249 -24.232  20.089  0.00  0.00     0.027 H 
ATOM     83  H53 JTG d   1     -22.345 -24.219  21.512  0.00  0.00     0.027 H 
ENDBRANCH  77  80
ENDBRANCH  74  77
ENDBRANCH  73  74
ENDBRANCH  62  73
BRANCH  64  84
ATOM     84  C2  JTG d   1     -17.569 -26.449  22.733  0.00  0.00     0.043 C 
ATOM     85  H44 JTG d   1     -16.615 -26.554  23.270  0.00  0.00     0.078 H 
ATOM     86  H45 JTG d   1     -18.326 -27.094  23.202  0.00  0.00     0.078 H 
BRANCH  84  87
ATOM     87  O6  JTG d   1     -18.001 -25.088  22.799  0.00  0.00    -0.398 OA
ATOM     88  H46 JTG d   1     -17.347 -24.529  22.396  0.00  0.00     0.209 HD
ENDBRANCH  84  87
ENDBRANCH  64  84
ENDBRANCH  57  58
ENDBRANCH  54  57
ENDBRANCH   1  54
BRANCH   1  89
ATOM     89  NAO JTG d   1     -13.922 -26.187  18.914  0.00  0.00    -0.352 N 
ATOM     90  CBE JTG d   1     -13.541 -25.304  19.850  0.00  0.00     0.218 C 
ATOM     91  OBF JTG d   1     -12.816 -25.598  20.801  0.00  0.00    -0.274 OA
ATOM     92  H54 JTG d   1     -14.480 -25.893  18.138  0.00  0.00     0.163 HD
BRANCH  90  93
ATOM     93  CBU JTG d   1     -14.067 -23.878  19.654  0.00  0.00     0.009 C 
ATOM     94  H55 JTG d   1     -14.863 -23.684  20.388  0.00  0.00     0.047 H 
ATOM     95  H56 JTG d   1     -14.475 -23.782  18.637  0.00  0.00     0.047 H 
BRANCH  93  96
ATOM     96  CBV JTG d   1     -12.950 -22.851  19.844  0.00  0.00    -0.057 C 
ATOM     97  H57 JTG d   1     -12.357 -23.126  20.729  0.00  0.00     0.033 H 
ATOM     98  H58 JTG d   1     -13.398 -21.858  19.997  0.00  0.00     0.033 H 
BRANCH  96  99
ATOM     99  CBW JTG d   1     -12.033 -22.800  18.629  0.00  0.00    -0.065 C 
ATOM    100  H59 JTG d   1     -12.597 -22.478  17.741  0.00  0.00     0.033 H 
ATOM    101  H60 JTG d   1     -11.593 -23.791  18.444  0.00  0.00     0.033 H 
BRANCH  99 102
ATOM    102  CBX JTG d   1     -10.931 -21.784  18.952  0.00  0.00    -0.065 C 
ATOM    103  H61 JTG d   1     -10.425 -22.093  19.878  0.00  0.00     0.033 H 
ATOM    104  H62 JTG d   1     -11.393 -20.796  19.099  0.00  0.00     0.033 H 
BRANCH 102 105
ATOM    105  CBY JTG d   1      -9.894 -21.680  17.839  0.00  0.00    -0.065 C 
ATOM    106  H63 JTG d   1     -10.374 -21.343  16.908  0.00  0.00     0.033 H 
ATOM    107  H64 JTG d   1      -9.421 -22.659  17.674  0.00  0.00     0.033 H 
BRANCH 105 108
ATOM    108  CBZ JTG d   1      -8.835 -20.652  18.287  0.00  0.00    -0.065 C 
ATOM    109  H65 JTG d   1      -8.677 -20.743  19.372  0.00  0.00     0.033 H 
ATOM    110  H66 JTG d   1      -9.191 -19.638  18.052  0.00  0.00     0.033 H 
BRANCH 108 111
ATOM    111  CCA JTG d   1      -7.524 -20.900  17.568  0.00  0.00    -0.065 C 
ATOM    112  H67 JTG d   1      -7.673 -20.771  16.486  0.00  0.00     0.033 H 
ATOM    113  H68 JTG d   1      -7.187 -21.927  17.772  0.00  0.00     0.033 H 
BRANCH 111 114
ATOM    114  CCB JTG d   1      -6.458 -19.912  18.052  0.00  0.00    -0.065 C 
ATOM    115  H69 JTG d   1      -6.901 -18.907  18.116  0.00  0.00     0.033 H 
ATOM    116  H70 JTG d   1      -5.625 -19.900  17.334  0.00  0.00     0.033 H 
BRANCH 114 117
ATOM    117  CCC JTG d   1      -5.925 -20.318  19.437  0.00  0.00    -0.065 C 
ATOM    118  H71 JTG d   1      -6.424 -21.247  19.750  0.00  0.00     0.033 H 
ATOM    119  H72 JTG d   1      -6.157 -19.517  20.154  0.00  0.00     0.033 H 
BRANCH 117 120
ATOM    120  CCD JTG d   1      -4.413 -20.550  19.431  0.00  0.00    -0.065 C 
ATOM    121  H73 JTG d   1      -3.999 -20.195  18.476  0.00  0.00     0.033 H 
ATOM    122  H74 JTG d   1      -4.215 -21.627  19.540  0.00  0.00     0.033 H 
BRANCH 120 123
ATOM    123  CCE JTG d   1      -3.738 -19.803  20.572  0.00  0.00    -0.065 C 
ATOM    124  H75 JTG d   1      -4.178 -18.798  20.652  0.00  0.00     0.033 H 
ATOM    125  H76 JTG d   1      -2.663 -19.716  20.356  0.00  0.00     0.033 H 
BRANCH 123 126
ATOM    126  CCF JTG d   1      -3.921 -20.533  21.903  0.00  0.00    -0.065 C 
ATOM    127  H77 JTG d   1      -3.471 -21.535  21.842  0.00  0.00     0.033 H 
ATOM    128  H78 JTG d   1      -4.993 -20.626  22.132  0.00  0.00     0.033 H 
BRANCH 126 129
ATOM    129  CCG JTG d   1      -3.225 -19.717  23.002  0.00  0.00    -0.065 C 
ATOM    130  H79 JTG d   1      -2.881 -18.763  22.576  0.00  0.00     0.033 H 
ATOM    131  H80 JTG d   1      -2.360 -20.285  23.376  0.00  0.00     0.033 H 
BRANCH 129 132
ATOM    132  CCH JTG d   1      -4.173 -19.429  24.166  0.00  0.00    -0.065 C 
ATOM    133  H81 JTG d   1      -4.218 -20.311  24.822  0.00  0.00     0.033 H 
ATOM    134  H82 JTG d   1      -5.177 -19.215  23.770  0.00  0.00     0.033 H 
BRANCH 132 135
ATOM    135  CCI JTG d   1      -3.683 -18.218  24.980  0.00  0.00    -0.065 C 
ATOM    136  H83 JTG d   1      -2.735 -17.852  24.559  0.00  0.00     0.033 H 
ATOM    137  H84 JTG d   1      -3.528 -18.518  26.027  0.00  0.00     0.033 H 
BRANCH 135 138
ATOM    138  CCJ JTG d   1      -4.733 -17.107  24.917  0.00  0.00    -0.065 C 
ATOM    139  H85 JTG d   1      -5.671 -17.477  25.356  0.00  0.00     0.033 H 
ATOM    140  H86 JTG d   1      -4.903 -16.835  23.865  0.00  0.00     0.033 H 
BRANCH 138 141
ATOM    141  CCK JTG d   1      -4.280 -15.858  25.688  0.00  0.00    -0.065 C 
ATOM    142  H87 JTG d   1      -3.521 -15.325  25.097  0.00  0.00     0.033 H 
ATOM    143  H88 JTG d   1      -3.846 -16.166  26.651  0.00  0.00     0.033 H 
BRANCH 141 144
ATOM    144  CCL JTG d   1      -5.463 -14.920  25.948  0.00  0.00    -0.065 C 
ATOM    145  H89 JTG d   1      -5.129 -14.102  26.603  0.00  0.00     0.033 H 
ATOM    146  H90 JTG d   1      -6.262 -15.487  26.448  0.00  0.00     0.033 H 
BRANCH 144 147
ATOM    147  CCM JTG d   1      -6.024 -14.315  24.641  0.00  0.00    -0.065 C 
ATOM    148  H91 JTG d   1      -5.310 -14.489  23.823  0.00  0.00     0.033 H 
ATOM    149  H92 JTG d   1      -6.173 -13.233  24.774  0.00  0.00     0.033 H 
BRANCH 147 150
ATOM    150  CCN JTG d   1      -7.357 -14.971  24.297  0.00  0.00    -0.065 C 
ATOM    151  H93 JTG d   1      -7.784 -15.400  25.215  0.00  0.00     0.033 H 
ATOM    152  H94 JTG d   1      -7.175 -15.774  23.567  0.00  0.00     0.033 H 
BRANCH 150 153
ATOM    153  CCO JTG d   1      -8.370 -13.987  23.700  0.00  0.00    -0.065 C 
ATOM    154  H95 JTG d   1      -8.415 -13.095  24.343  0.00  0.00     0.033 H 
ATOM    155  H96 JTG d   1      -9.357 -14.471  23.675  0.00  0.00     0.033 H 
BRANCH 153 156
ATOM    156  CCP JTG d   1      -8.003 -13.548  22.277  0.00  0.00    -0.065 C 
ATOM    157  H97 JTG d   1      -7.095 -12.929  22.319  0.00  0.00     0.033 H 
ATOM    158  H98 JTG d   1      -8.832 -12.955  21.863  0.00  0.00     0.033 H 
BRANCH 156 159
ATOM    159  CCQ JTG d   1      -7.745 -14.740  21.361  0.00  0.00    -0.065 C 
ATOM    160  H99 JTG d   1      -8.449 -15.548  21.607  0.00  0.00     0.033 H 
ATOM    161 0H10 JTG d   1      -6.714 -15.095  21.506  0.00  0.00     0.033 H 
BRANCH 159 162
ATOM    162  CCR JTG d   1      -7.938 -14.326  19.905  0.00  0.00    -0.069 C 
ATOM    163 1H10 JTG d   1      -7.226 -13.526  19.653  0.00  0.00     0.032 H 
ATOM    164 2H10 JTG d   1      -8.966 -13.961  19.760  0.00  0.00     0.032 H 
BRANCH 162 165
ATOM    165  CCS JTG d   1      -7.691 -15.536  18.997  0.00  0.00    -0.077 C 
ATOM    166 3H10 JTG d   1      -7.830 -15.240  17.947  0.00  0.00     0.027 H 
ATOM    167 4H10 JTG d   1      -8.403 -16.335  19.250  0.00  0.00     0.027 H 
ATOM    168 5H10 JTG d   1      -6.663 -15.900  19.143  0.00  0.00     0.027 H 
ENDBRANCH 162 165
ENDBRANCH 159 162
ENDBRANCH 156 159
ENDBRANCH 153 156
ENDBRANCH 150 153
ENDBRANCH 147 150
ENDBRANCH 144 147
ENDBRANCH 141 144
ENDBRANCH 138 141
ENDBRANCH 135 138
ENDBRANCH 132 135
ENDBRANCH 129 132
ENDBRANCH 126 129
ENDBRANCH 123 126
ENDBRANCH 120 123
ENDBRANCH 117 120
ENDBRANCH 114 117
ENDBRANCH 111 114
ENDBRANCH 108 111
ENDBRANCH 105 108
ENDBRANCH 102 105
ENDBRANCH  99 102
ENDBRANCH  96  99
ENDBRANCH  93  96
ENDBRANCH  90  93
ENDBRANCH   1  89
TORSDOF 55
