REMARK  6 active torsions:
REMARK  status: ('A' for Active; 'I' for Inactive)
REMARK    1  A    between atoms: N_1  and  CA_2 
REMARK    2  A    between atoms: CA_2  and  C_3 
REMARK    3  A    between atoms: CA_2  and  CB_5 
REMARK    4  A    between atoms: CB_5  and  CG_6 
REMARK    5  A    between atoms: CG_6  and  CD_7 
REMARK    6  A    between atoms: CD_7  and  NE_8 
REMARK       I    between atoms: NE_8  and  CZ_9 
REMARK       I    between atoms: CZ_9  and  NH1_10 
ROOT
ATOM      1  CG  ARG d   1       0.035   4.657   3.203  0.00  0.00    -0.047 C 
ATOM      2  H7  ARG d   1      -0.958   4.700   3.675  0.00  0.00     0.035 H 
ATOM      3  H8  ARG d   1       0.650   3.900   3.711  0.00  0.00     0.035 H 
ENDROOT
BRANCH   1   4
ATOM      4  CB  ARG d   1       0.709   6.016   3.322  0.00  0.00    -0.028 C 
ATOM      5  H5  ARG d   1       1.647   5.987   2.749  0.00  0.00     0.036 H 
ATOM      6  H6  ARG d   1       0.038   6.773   2.890  0.00  0.00     0.036 H 
BRANCH   4   7
ATOM      7  CA  ARG d   1       1.036   6.428   4.757  0.00  0.00     0.182 C 
ATOM      8  H4  ARG d   1       1.520   7.416   4.739  0.00  0.00     0.101 H 
BRANCH   7   9
ATOM      9  N   ARG d   1       1.962   5.474   5.366  0.00  0.00    -0.065 N 
ATOM     10  H1  ARG d   1       2.804   5.425   4.814  0.00  0.00     0.275 HD
ATOM     11  H2  ARG d   1       1.531   4.564   5.403  0.00  0.00     0.275 HD
ATOM     12  H3  ARG d   1       2.189   5.776   6.300  0.00  0.00     0.275 HD
ENDBRANCH   7   9
BRANCH   7  13
ATOM     13  C   ARG d   1      -0.252   6.535   5.558  0.00  0.00     0.204 C 
ATOM     14  O   ARG d   1      -1.049   7.447   5.333  0.00  0.00    -0.646 OA
ATOM     15  OXT ARG d   1      -0.532   5.730   6.439  0.00  0.00    -0.646 OA
ENDBRANCH   7  13
ENDBRANCH   4   7
ENDBRANCH   1   4
BRANCH   1  16
ATOM     16  CD  ARG d   1      -0.120   4.280   1.742  0.00  0.00     0.009 C 
ATOM     17  H9  ARG d   1       0.882   4.172   1.301  0.00  0.00     0.064 H 
ATOM     18  H10 ARG d   1      -0.662   5.088   1.228  0.00  0.00     0.064 H 
BRANCH  16  19
ATOM     19  NE  ARG d   1      -0.852   3.030   1.543  0.00  0.00    -0.227 N 
ATOM     20  CZ  ARG d   1      -0.316   1.818   1.651  0.00  0.00     0.665 C 
ATOM     21  NH1 ARG d   1       0.964   1.681   1.967  0.00  0.00    -0.235 N 
ATOM     22  NH2 ARG d   1      -1.056   0.737   1.440  0.00  0.00    -0.235 N 
ATOM     23  H12 ARG d   1       1.376   0.741   2.050  0.00  0.00     0.174 HD
ATOM     24  H13 ARG d   1       1.546   2.515   2.130  0.00  0.00     0.174 HD
ATOM     25  H14 ARG d   1      -2.051   0.834   1.194  0.00  0.00     0.174 HD
ATOM     26  H15 ARG d   1      -0.635  -0.199   1.522  0.00  0.00     0.174 HD
ATOM     27  H11 ARG d   1      -1.852   3.093   1.303  0.00  0.00     0.177 HD
ENDBRANCH  16  19
ENDBRANCH   1  16
TORSDOF 6
