REMARK WARNING: 32 MAX_TORS EXCEEDED!!!
REMARK  55 active torsions:
REMARK  status: ('A' for Active; 'I' for Inactive)
REMARK    1  A    between atoms: CAM_25  and  O1_1 
REMARK    2  A    between atoms: O1_1  and  C1_26 
REMARK    3  A    between atoms: C3_2  and  C2_30 
REMARK    4  A    between atoms: C4_32  and  O4_3 
REMARK    5  A    between atoms: O4_3  and  CAT_33 
REMARK    6  A    between atoms: C5_4  and  O3_28 
REMARK    7  A    between atoms: C6_5  and  O5_27 
REMARK    8  A    between atoms: CBS_7  and  CBT_6 
REMARK    9  A    between atoms: CBR_8  and  CBS_7 
REMARK   10  A    between atoms: CBQ_9  and  CBR_8 
REMARK   11  A    between atoms: CBP_10  and  CBQ_9 
REMARK   12  A    between atoms: CBO_11  and  CBP_10 
REMARK   13  A    between atoms: CBN_12  and  CBO_11 
REMARK   14  A    between atoms: CBM_13  and  CBN_12 
REMARK   15  A    between atoms: CBL_14  and  CBM_13 
REMARK   16  A    between atoms: CBK_15  and  CBL_14 
REMARK   17  A    between atoms: CBJ_16  and  CBK_15 
REMARK   18  A    between atoms: CBI_17  and  CBJ_16 
REMARK   19  A    between atoms: CBH_18  and  CBI_17 
REMARK   20  A    between atoms: CBG_19  and  CBH_18 
REMARK   21  A    between atoms: CAQ_20  and  CBG_19 
REMARK   22  A    between atoms: CAQ_20  and  OAR_21 
REMARK   23  A    between atoms: CAP_22  and  CAQ_20 
REMARK   24  A    between atoms: CAP_22  and  OAS_23 
REMARK   25  A    between atoms: CAN_24  and  CAP_22 
REMARK   26  A    between atoms: CAN_24  and  CAM_25 
REMARK   27  A    between atoms: CAN_24  and  NAO_41 
REMARK   28  A    between atoms: C2_30  and  O6_31 
REMARK   29  A    between atoms: CAT_33  and  CAU_34 
REMARK   30  A    between atoms: CAX_37  and  CBA_38 
REMARK       I    between atoms: NAO_41  and  CBE_42 
REMARK   31  A    between atoms: CBE_42  and  CBU_44 
REMARK   32  A    between atoms: CBU_44  and  CBV_45 
REMARK   33  A    between atoms: CBV_45  and  CBW_46 
REMARK   34  A    between atoms: CBW_46  and  CBX_47 
REMARK   35  A    between atoms: CBX_47  and  CBY_48 
REMARK   36  A    between atoms: CBY_48  and  CBZ_49 
REMARK   37  A    between atoms: CBZ_49  and  CCA_50 
REMARK   38  A    between atoms: CCA_50  and  CCB_51 
REMARK   39  A    between atoms: CCB_51  and  CCC_52 
REMARK   40  A    between atoms: CCC_52  and  CCD_53 
REMARK   41  A    between atoms: CCD_53  and  CCE_54 
REMARK   42  A    between atoms: CCE_54  and  CCF_55 
REMARK   43  A    between atoms: CCF_55  and  CCG_56 
REMARK   44  A    between atoms: CCG_56  and  CCH_57 
REMARK   45  A    between atoms: CCH_57  and  CCI_58 
REMARK   46  A    between atoms: CCI_58  and  CCJ_59 
REMARK   47  A    between atoms: CCJ_59  and  CCK_60 
REMARK   48  A    between atoms: CCK_60  and  CCL_61 
REMARK   49  A    between atoms: CCL_61  and  CCM_62 
REMARK   50  A    between atoms: CCM_62  and  CCN_63 
REMARK   51  A    between atoms: CCN_63  and  CCO_64 
REMARK   52  A    between atoms: CCO_64  and  CCP_65 
REMARK   53  A    between atoms: CCP_65  and  CCQ_66 
REMARK   54  A    between atoms: CCQ_66  and  CCR_67 
REMARK   55  A    between atoms: CCR_67  and  CCS_68 
ROOT
ATOM      1  CAN JTJ d   1     -13.352 -27.827  19.132  0.00  0.00     0.060 C 
ATOM      2  H37 JTJ d   1     -12.350 -27.869  19.584  0.00  0.00     0.080 H 
ENDROOT
BRANCH   1   3
ATOM      3  CAP JTJ d   1     -13.311 -28.510  17.759  0.00  0.00     0.081 C 
ATOM      4  H35 JTJ d   1     -14.336 -28.549  17.362  0.00  0.00     0.090 H 
BRANCH   3   5
ATOM      5  CAQ JTJ d   1     -12.431 -27.775  16.732  0.00  0.00     0.062 C 
ATOM      6  H33 JTJ d   1     -12.827 -26.758  16.593  0.00  0.00     0.086 H 
BRANCH   5   7
ATOM      7  CBG JTJ d   1     -10.963 -27.661  17.199  0.00  0.00    -0.039 C 
ATOM      8  H31 JTJ d   1     -10.879 -26.827  17.912  0.00  0.00     0.036 H 
ATOM      9  H32 JTJ d   1     -10.672 -28.599  17.695  0.00  0.00     0.036 H 
BRANCH   7  10
ATOM     10  CBH JTJ d   1     -10.010 -27.405  16.013  0.00  0.00    -0.063 C 
ATOM     11  H29 JTJ d   1      -8.976 -27.588  16.339  0.00  0.00     0.033 H 
ATOM     12  H30 JTJ d   1     -10.264 -28.094  15.194  0.00  0.00     0.033 H 
BRANCH  10  13
ATOM     13  CBI JTJ d   1     -10.125 -25.956  15.502  0.00  0.00    -0.065 C 
ATOM     14  H27 JTJ d   1     -10.991 -25.876  14.829  0.00  0.00     0.033 H 
ATOM     15  H28 JTJ d   1     -10.262 -25.279  16.358  0.00  0.00     0.033 H 
BRANCH  13  16
ATOM     16  CBJ JTJ d   1      -8.852 -25.559  14.740  0.00  0.00    -0.065 C 
ATOM     17  H25 JTJ d   1      -8.669 -24.483  14.877  0.00  0.00     0.033 H 
ATOM     18  H26 JTJ d   1      -8.000 -26.130  15.137  0.00  0.00     0.033 H 
BRANCH  16  19
ATOM     19  CBK JTJ d   1      -9.008 -25.859  13.242  0.00  0.00    -0.065 C 
ATOM     20  H23 JTJ d   1      -9.120 -26.943  13.096  0.00  0.00     0.033 H 
ATOM     21  H24 JTJ d   1      -9.900 -25.343  12.856  0.00  0.00     0.033 H 
BRANCH  19  22
ATOM     22  CBL JTJ d   1      -7.766 -25.367  12.486  0.00  0.00    -0.065 C 
ATOM     23  H21 JTJ d   1      -7.743 -24.267  12.502  0.00  0.00     0.033 H 
ATOM     24  H22 JTJ d   1      -6.863 -25.760  12.976  0.00  0.00     0.033 H 
BRANCH  22  25
ATOM     25  CBM JTJ d   1      -7.804 -25.852  11.029  0.00  0.00    -0.065 C 
ATOM     26  H19 JTJ d   1      -8.802 -26.255  10.800  0.00  0.00     0.033 H 
ATOM     27  H20 JTJ d   1      -7.584 -25.011  10.354  0.00  0.00     0.033 H 
BRANCH  25  28
ATOM     28  CBN JTJ d   1      -6.750 -26.951  10.842  0.00  0.00    -0.065 C 
ATOM     29  H17 JTJ d   1      -5.750 -26.525  11.008  0.00  0.00     0.033 H 
ATOM     30  H18 JTJ d   1      -6.932 -27.755  11.571  0.00  0.00     0.033 H 
BRANCH  28  31
ATOM     31  CBO JTJ d   1      -6.823 -27.530   9.424  0.00  0.00    -0.065 C 
ATOM     32  H15 JTJ d   1      -7.847 -27.431   9.035  0.00  0.00     0.033 H 
ATOM     33  H16 JTJ d   1      -6.127 -26.988   8.766  0.00  0.00     0.033 H 
BRANCH  31  34
ATOM     34  CBP JTJ d   1      -6.433 -29.012   9.481  0.00  0.00    -0.065 C 
ATOM     35  H13 JTJ d   1      -5.788 -29.183  10.355  0.00  0.00     0.033 H 
ATOM     36  H14 JTJ d   1      -7.344 -29.622   9.573  0.00  0.00     0.033 H 
BRANCH  34  37
ATOM     37  CBQ JTJ d   1      -5.678 -29.421   8.210  0.00  0.00    -0.065 C 
ATOM     38  H11 JTJ d   1      -6.400 -29.667   7.418  0.00  0.00     0.033 H 
ATOM     39  H12 JTJ d   1      -5.039 -28.589   7.879  0.00  0.00     0.033 H 
BRANCH  37  40
ATOM     40  CBR JTJ d   1      -4.805 -30.650   8.508  0.00  0.00    -0.065 C 
ATOM     41  H9  JTJ d   1      -3.795 -30.484   8.106  0.00  0.00     0.033 H 
ATOM     42  H10 JTJ d   1      -4.747 -30.799   9.596  0.00  0.00     0.033 H 
BRANCH  40  43
ATOM     43  CBS JTJ d   1      -5.408 -31.896   7.860  0.00  0.00    -0.069 C 
ATOM     44  H7  JTJ d   1      -6.440 -32.029   8.217  0.00  0.00     0.032 H 
ATOM     45  H8  JTJ d   1      -5.411 -31.772   6.767  0.00  0.00     0.032 H 
BRANCH  43  46
ATOM     46  CBT JTJ d   1      -4.581 -33.132   8.228  0.00  0.00    -0.077 C 
ATOM     47  H4  JTJ d   1      -5.023 -34.022   7.757  0.00  0.00     0.027 H 
ATOM     48  H5  JTJ d   1      -4.577 -33.259   9.321  0.00  0.00     0.027 H 
ATOM     49  H6  JTJ d   1      -3.549 -33.002   7.870  0.00  0.00     0.027 H 
ENDBRANCH  43  46
ENDBRANCH  40  43
ENDBRANCH  37  40
ENDBRANCH  34  37
ENDBRANCH  31  34
ENDBRANCH  28  31
ENDBRANCH  25  28
ENDBRANCH  22  25
ENDBRANCH  19  22
ENDBRANCH  16  19
ENDBRANCH  13  16
ENDBRANCH  10  13
ENDBRANCH   7  10
ENDBRANCH   5   7
BRANCH   5  50
ATOM     50  OAR JTJ d   1     -12.512 -28.484  15.483  0.00  0.00    -0.393 OA
ATOM     51  H34 JTJ d   1     -12.155 -29.358  15.592  0.00  0.00     0.210 HD
ENDBRANCH   5  50
ENDBRANCH   3   5
BRANCH   3  52
ATOM     52  OAS JTJ d   1     -12.831 -29.842  17.942  0.00  0.00    -0.391 OA
ATOM     53  H36 JTJ d   1     -12.861 -30.305  17.113  0.00  0.00     0.210 HD
ENDBRANCH   3  52
ENDBRANCH   1   3
BRANCH   1  54
ATOM     54  CAM JTJ d   1     -14.351 -28.579  20.024  0.00  0.00     0.044 C 
ATOM     55  H38 JTJ d   1     -14.076 -29.642  20.082  0.00  0.00     0.077 H 
ATOM     56  H39 JTJ d   1     -14.352 -28.145  21.035  0.00  0.00     0.077 H 
BRANCH  54  57
ATOM     57  O1  JTJ d   1     -15.645 -28.442  19.433  0.00  0.00    -0.356 OA
BRANCH  57  58
ATOM     58  C1  JTJ d   1     -16.704 -29.017  20.187  0.00  0.00     0.158 C 
ATOM     59  C6  JTJ d   1     -18.001 -28.892  19.387  0.00  0.00     0.110 C 
ATOM     60  C5  JTJ d   1     -18.346 -27.410  19.207  0.00  0.00     0.092 C 
ATOM     61  H3  JTJ d   1     -18.814 -29.388  19.938  0.00  0.00     0.094 H 
ATOM     62  C4  JTJ d   1     -18.537 -26.750  20.571  0.00  0.00     0.093 C 
ATOM     63  H2  JTJ d   1     -17.530 -26.905  18.669  0.00  0.00     0.091 H 
ATOM     64  C3  JTJ d   1     -17.256 -26.958  21.432  0.00  0.00     0.089 C 
ATOM     65  H46 JTJ d   1     -18.691 -25.669  20.434  0.00  0.00     0.091 H 
ATOM     66  O2  JTJ d   1     -16.855 -28.356  21.470  0.00  0.00    -0.348 OA
ATOM     67  H1  JTJ d   1     -16.446 -26.374  20.970  0.00  0.00     0.090 H 
ATOM     68  H40 JTJ d   1     -16.484 -30.081  20.360  0.00  0.00     0.133 H 
BRANCH  59  69
ATOM     69  O5  JTJ d   1     -17.853 -29.518  18.112  0.00  0.00    -0.388 OA
ATOM     70  H41 JTJ d   1     -17.149 -29.097  17.633  0.00  0.00     0.210 HD
ENDBRANCH  59  69
BRANCH  60  71
ATOM     71  O3  JTJ d   1     -19.549 -27.309  18.454  0.00  0.00    -0.390 OA
ATOM     72  H42 JTJ d   1     -19.425 -27.717  17.605  0.00  0.00     0.210 HD
ENDBRANCH  60  71
BRANCH  62  73
ATOM     73  O4  JTJ d   1     -19.722 -27.313  21.179  0.00  0.00    -0.376 OA
BRANCH  73  74
ATOM     74  CAT JTJ d   1     -20.481 -26.371  21.960  0.00  0.00     0.044 C 
ATOM     75  H47 JTJ d   1     -19.774 -25.701  22.471  0.00  0.00     0.081 H 
ATOM     76  H48 JTJ d   1     -21.060 -26.933  22.708  0.00  0.00     0.081 H 
BRANCH  74  77
ATOM     77  CAU JTJ d   1     -21.370 -25.585  21.222  0.00  0.00    -0.035 A 
ATOM     78  CAV JTJ d   1     -21.206 -24.195  21.225  0.00  0.00    -0.074 A 
ATOM     79  CAW JTJ d   1     -22.090 -23.380  20.517  0.00  0.00    -0.077 A 
ATOM     80  H49 JTJ d   1     -20.388 -23.750  21.780  0.00  0.00     0.084 H 
ATOM     81  CAX JTJ d   1     -23.147 -23.957  19.808  0.00  0.00    -0.062 A 
ATOM     82  H50 JTJ d   1     -21.957 -22.304  20.517  0.00  0.00     0.084 H 
ATOM     83  CAY JTJ d   1     -23.319 -25.344  19.810  0.00  0.00    -0.077 A 
ATOM     84  CAZ JTJ d   1     -22.433 -26.161  20.520  0.00  0.00    -0.074 A 
ATOM     85  H54 JTJ d   1     -24.141 -25.788  19.260  0.00  0.00     0.084 H 
ATOM     86  H55 JTJ d   1     -22.570 -27.236  20.526  0.00  0.00     0.084 H 
BRANCH  81  87
ATOM     87  CBA JTJ d   1     -24.027 -23.144  19.096  0.00  0.00    -0.051 C 
ATOM     88  H51 JTJ d   1     -24.788 -23.769  18.605  0.00  0.00     0.033 H 
ATOM     89  H52 JTJ d   1     -23.470 -22.579  18.334  0.00  0.00     0.033 H 
ATOM     90  H53 JTJ d   1     -24.518 -22.442  19.786  0.00  0.00     0.033 H 
ENDBRANCH  81  87
ENDBRANCH  74  77
ENDBRANCH  73  74
ENDBRANCH  62  73
BRANCH  64  91
ATOM     91  C2  JTJ d   1     -17.432 -26.478  22.884  0.00  0.00     0.043 C 
ATOM     92  H43 JTJ d   1     -16.630 -26.900  23.507  0.00  0.00     0.078 H 
ATOM     93  H44 JTJ d   1     -18.407 -26.816  23.264  0.00  0.00     0.078 H 
BRANCH  91  94
ATOM     94  O6  JTJ d   1     -17.372 -25.047  22.939  0.00  0.00    -0.398 OA
ATOM     95  H45 JTJ d   1     -17.482 -24.761  23.838  0.00  0.00     0.209 HD
ENDBRANCH  91  94
ENDBRANCH  64  91
ENDBRANCH  57  58
ENDBRANCH  54  57
ENDBRANCH   1  54
BRANCH   1  96
ATOM     96  NAO JTJ d   1     -13.771 -26.421  19.026  0.00  0.00    -0.352 N 
ATOM     97  CBE JTJ d   1     -13.456 -25.533  19.978  0.00  0.00     0.218 C 
ATOM     98  OBF JTJ d   1     -12.799 -25.813  20.982  0.00  0.00    -0.274 OA
ATOM     99  H56 JTJ d   1     -14.299 -26.123  18.231  0.00  0.00     0.163 HD
BRANCH  97 100
ATOM    100  CBU JTJ d   1     -13.984 -24.111  19.730  0.00  0.00     0.009 C 
ATOM    101  H57 JTJ d   1     -14.849 -23.930  20.384  0.00  0.00     0.047 H 
ATOM    102  H58 JTJ d   1     -14.294 -24.022  18.678  0.00  0.00     0.047 H 
BRANCH 100 103
ATOM    103  CBV JTJ d   1     -12.907 -23.062  20.024  0.00  0.00    -0.057 C 
ATOM    104  H59 JTJ d   1     -12.364 -23.342  20.939  0.00  0.00     0.033 H 
ATOM    105  H60 JTJ d   1     -13.382 -22.080  20.165  0.00  0.00     0.033 H 
BRANCH 103 106
ATOM    106  CBW JTJ d   1     -11.928 -22.990  18.853  0.00  0.00    -0.065 C 
ATOM    107  H61 JTJ d   1     -12.437 -22.573  17.972  0.00  0.00     0.033 H 
ATOM    108  H62 JTJ d   1     -11.558 -23.999  18.619  0.00  0.00     0.033 H 
BRANCH 106 109
ATOM    109  CBX JTJ d   1     -10.753 -22.091  19.239  0.00  0.00    -0.065 C 
ATOM    110  H63 JTJ d   1     -10.174 -22.566  20.045  0.00  0.00     0.033 H 
ATOM    111  H64 JTJ d   1     -11.131 -21.117  19.584  0.00  0.00     0.033 H 
BRANCH 109 112
ATOM    112  CBY JTJ d   1      -9.858 -21.889  18.014  0.00  0.00    -0.065 C 
ATOM    113  H65 JTJ d   1     -10.479 -21.631  17.144  0.00  0.00     0.033 H 
ATOM    114  H66 JTJ d   1      -9.304 -22.816  17.807  0.00  0.00     0.033 H 
BRANCH 112 115
ATOM    115  CBZ JTJ d   1      -8.869 -20.753  18.291  0.00  0.00    -0.065 C 
ATOM    116  H67 JTJ d   1      -9.030 -20.362  19.306  0.00  0.00     0.033 H 
ATOM    117  H68 JTJ d   1      -9.018 -19.946  17.559  0.00  0.00     0.033 H 
BRANCH 115 118
ATOM    118  CCA JTJ d   1      -7.449 -21.300  18.170  0.00  0.00    -0.065 C 
ATOM    119  H69 JTJ d   1      -7.368 -21.905  17.255  0.00  0.00     0.033 H 
ATOM    120  H70 JTJ d   1      -7.224 -21.927  19.046  0.00  0.00     0.033 H 
BRANCH 118 121
ATOM    121  CCB JTJ d   1      -6.449 -20.143  18.103  0.00  0.00    -0.065 C 
ATOM    122  H71 JTJ d   1      -6.986 -19.208  17.886  0.00  0.00     0.033 H 
ATOM    123  H72 JTJ d   1      -5.717 -20.339  17.306  0.00  0.00     0.033 H 
BRANCH 121 124
ATOM    124  CCC JTJ d   1      -5.717 -20.009  19.445  0.00  0.00    -0.065 C 
ATOM    125  H73 JTJ d   1      -6.371 -20.369  20.253  0.00  0.00     0.033 H 
ATOM    126  H74 JTJ d   1      -5.469 -18.952  19.619  0.00  0.00     0.033 H 
BRANCH 124 127
ATOM    127  CCD JTJ d   1      -4.429 -20.834  19.434  0.00  0.00    -0.065 C 
ATOM    128  H75 JTJ d   1      -4.005 -20.838  18.419  0.00  0.00     0.033 H 
ATOM    129  H76 JTJ d   1      -4.652 -21.866  19.743  0.00  0.00     0.033 H 
BRANCH 127 130
ATOM    130  CCE JTJ d   1      -3.421 -20.220  20.403  0.00  0.00    -0.065 C 
ATOM    131  H77 JTJ d   1      -3.527 -19.125  20.394  0.00  0.00     0.033 H 
ATOM    132  H78 JTJ d   1      -2.402 -20.492  20.090  0.00  0.00     0.033 H 
BRANCH 130 133
ATOM    133  CCF JTJ d   1      -3.673 -20.742  21.818  0.00  0.00    -0.065 C 
ATOM    134  H79 JTJ d   1      -3.225 -21.741  21.930  0.00  0.00     0.033 H 
ATOM    135  H80 JTJ d   1      -4.756 -20.803  22.003  0.00  0.00     0.033 H 
BRANCH 133 136
ATOM    136  CCG JTJ d   1      -3.034 -19.777  22.816  0.00  0.00    -0.065 C 
ATOM    137  H81 JTJ d   1      -3.126 -18.748  22.439  0.00  0.00     0.033 H 
ATOM    138  H82 JTJ d   1      -1.970 -20.029  22.939  0.00  0.00     0.033 H 
BRANCH 136 139
ATOM    139  CCH JTJ d   1      -3.742 -19.889  24.166  0.00  0.00    -0.065 C 
ATOM    140  H83 JTJ d   1      -3.420 -20.809  24.675  0.00  0.00     0.033 H 
ATOM    141  H84 JTJ d   1      -4.830 -19.919  24.009  0.00  0.00     0.033 H 
BRANCH 139 142
ATOM    142  CCI JTJ d   1      -3.382 -18.677  25.024  0.00  0.00    -0.065 C 
ATOM    143  H85 JTJ d   1      -2.480 -18.195  24.619  0.00  0.00     0.033 H 
ATOM    144  H86 JTJ d   1      -3.191 -19.003  26.057  0.00  0.00     0.033 H 
BRANCH 142 145
ATOM    145  CCJ JTJ d   1      -4.543 -17.681  25.009  0.00  0.00    -0.065 C 
ATOM    146  H87 JTJ d   1      -5.378 -18.084  25.601  0.00  0.00     0.033 H 
ATOM    147  H88 JTJ d   1      -4.873 -17.521  23.972  0.00  0.00     0.033 H 
BRANCH 145 148
ATOM    148  CCK JTJ d   1      -4.091 -16.346  25.611  0.00  0.00    -0.065 C 
ATOM    149  H89 JTJ d   1      -3.420 -15.837  24.904  0.00  0.00     0.033 H 
ATOM    150  H90 JTJ d   1      -3.556 -16.534  26.554  0.00  0.00     0.033 H 
BRANCH 148 151
ATOM    151  CCL JTJ d   1      -5.306 -15.455  25.887  0.00  0.00    -0.065 C 
ATOM    152  H91 JTJ d   1      -5.033 -14.682  26.620  0.00  0.00     0.033 H 
ATOM    153  H92 JTJ d   1      -6.125 -16.069  26.290  0.00  0.00     0.033 H 
BRANCH 151 154
ATOM    154  CCM JTJ d   1      -5.764 -14.785  24.590  0.00  0.00    -0.065 C 
ATOM    155  H93 JTJ d   1      -5.822 -15.539  23.791  0.00  0.00     0.033 H 
ATOM    156  H94 JTJ d   1      -5.040 -14.007  24.307  0.00  0.00     0.033 H 
BRANCH 154 157
ATOM    157  CCN JTJ d   1      -7.144 -14.147  24.785  0.00  0.00    -0.065 C 
ATOM    158  H95 JTJ d   1      -7.037 -13.052  24.804  0.00  0.00     0.033 H 
ATOM    159  H96 JTJ d   1      -7.569 -14.491  25.739  0.00  0.00     0.033 H 
BRANCH 157 160
ATOM    160  CCO JTJ d   1      -8.088 -14.541  23.641  0.00  0.00    -0.065 C 
ATOM    161  H97 JTJ d   1      -9.117 -14.268  23.916  0.00  0.00     0.033 H 
ATOM    162  H98 JTJ d   1      -8.027 -15.628  23.485  0.00  0.00     0.033 H 
BRANCH 160 163
ATOM    163  CCP JTJ d   1      -7.714 -13.827  22.336  0.00  0.00    -0.065 C 
ATOM    164  H99 JTJ d   1      -6.623 -13.857  22.200  0.00  0.00     0.033 H 
ATOM    165 0H10 JTJ d   1      -8.050 -12.780  22.380  0.00  0.00     0.033 H 
BRANCH 163 166
ATOM    166  CCQ JTJ d   1      -8.396 -14.535  21.163  0.00  0.00    -0.065 C 
ATOM    167 1H10 JTJ d   1      -9.080 -13.834  20.662  0.00  0.00     0.033 H 
ATOM    168 2H10 JTJ d   1      -8.966 -15.397  21.540  0.00  0.00     0.033 H 
BRANCH 166 169
ATOM    169  CCR JTJ d   1      -7.346 -15.020  20.163  0.00  0.00    -0.069 C 
ATOM    170 3H10 JTJ d   1      -6.528 -15.519  20.703  0.00  0.00     0.032 H 
ATOM    171 4H10 JTJ d   1      -6.946 -14.161  19.605  0.00  0.00     0.032 H 
BRANCH 169 172
ATOM    172  CCS JTJ d   1      -7.991 -16.008  19.186  0.00  0.00    -0.077 C 
ATOM    173 5H10 JTJ d   1      -7.236 -16.357  18.466  0.00  0.00     0.027 H 
ATOM    174 6H10 JTJ d   1      -8.809 -15.509  18.646  0.00  0.00     0.027 H 
ATOM    175 7H10 JTJ d   1      -8.391 -16.867  19.744  0.00  0.00     0.027 H 
ENDBRANCH 169 172
ENDBRANCH 166 169
ENDBRANCH 163 166
ENDBRANCH 160 163
ENDBRANCH 157 160
ENDBRANCH 154 157
ENDBRANCH 151 154
ENDBRANCH 148 151
ENDBRANCH 145 148
ENDBRANCH 142 145
ENDBRANCH 139 142
ENDBRANCH 136 139
ENDBRANCH 133 136
ENDBRANCH 130 133
ENDBRANCH 127 130
ENDBRANCH 124 127
ENDBRANCH 121 124
ENDBRANCH 118 121
ENDBRANCH 115 118
ENDBRANCH 112 115
ENDBRANCH 109 112
ENDBRANCH 106 109
ENDBRANCH 103 106
ENDBRANCH 100 103
ENDBRANCH  97 100
ENDBRANCH   1  96
TORSDOF 55
