REMARK WARNING: 32 MAX_TORS EXCEEDED!!!
REMARK  54 active torsions:
REMARK  status: ('A' for Active; 'I' for Inactive)
REMARK    1  A    between atoms: O1_27  and  C1_1 
REMARK    2  A    between atoms: C3_3  and  C2_2 
REMARK    3  A    between atoms: C2_2  and  O6_31 
REMARK    4  A    between atoms: C4_4  and  O4_32 
REMARK    5  A    between atoms: C5_5  and  O3_29 
REMARK    6  A    between atoms: C6_6  and  O5_28 
REMARK    7  A    between atoms: CBS_8  and  CBT_7 
REMARK    8  A    between atoms: CBR_9  and  CBS_8 
REMARK    9  A    between atoms: CBQ_10  and  CBR_9 
REMARK   10  A    between atoms: CBP_11  and  CBQ_10 
REMARK   11  A    between atoms: CBO_12  and  CBP_11 
REMARK   12  A    between atoms: CBN_13  and  CBO_12 
REMARK   13  A    between atoms: CBM_14  and  CBN_13 
REMARK   14  A    between atoms: CBL_15  and  CBM_14 
REMARK   15  A    between atoms: CBK_16  and  CBL_15 
REMARK   16  A    between atoms: CBJ_17  and  CBK_16 
REMARK   17  A    between atoms: CBI_18  and  CBJ_17 
REMARK   18  A    between atoms: CBH_19  and  CBI_18 
REMARK   19  A    between atoms: CBG_20  and  CBH_19 
REMARK   20  A    between atoms: CAQ_21  and  CBG_20 
REMARK   21  A    between atoms: CAQ_21  and  OAR_22 
REMARK   22  A    between atoms: CAP_23  and  CAQ_21 
REMARK   23  A    between atoms: CAP_23  and  OAS_24 
REMARK   24  A    between atoms: CAN_25  and  CAP_23 
REMARK   25  A    between atoms: CAM_26  and  CAN_25 
REMARK   26  A    between atoms: CAN_25  and  NAO_37 
REMARK   27  A    between atoms: CAM_26  and  O1_27 
REMARK   28  A    between atoms: O4_32  and  CAT_33 
REMARK   29  A    between atoms: CAT_33  and  CAU_34 
REMARK       I    between atoms: NAO_37  and  CBE_38 
REMARK   30  A    between atoms: CBE_38  and  CBU_40 
REMARK   31  A    between atoms: CBU_40  and  CBV_41 
REMARK   32  A    between atoms: CBV_41  and  CBW_42 
REMARK   33  A    between atoms: CBW_42  and  CBX_43 
REMARK   34  A    between atoms: CBX_43  and  CBY_44 
REMARK   35  A    between atoms: CBY_44  and  CBZ_45 
REMARK   36  A    between atoms: CBZ_45  and  CCA_46 
REMARK   37  A    between atoms: CCA_46  and  CCB_47 
REMARK   38  A    between atoms: CCB_47  and  CCC_48 
REMARK   39  A    between atoms: CCC_48  and  CCD_49 
REMARK   40  A    between atoms: CCD_49  and  CCE_50 
REMARK   41  A    between atoms: CCE_50  and  CCF_51 
REMARK   42  A    between atoms: CCF_51  and  CCG_52 
REMARK   43  A    between atoms: CCG_52  and  CCH_53 
REMARK   44  A    between atoms: CCH_53  and  CCI_54 
REMARK   45  A    between atoms: CCI_54  and  CCJ_55 
REMARK   46  A    between atoms: CCJ_55  and  CCK_56 
REMARK   47  A    between atoms: CCK_56  and  CCL_57 
REMARK   48  A    between atoms: CCL_57  and  CCM_58 
REMARK   49  A    between atoms: CCM_58  and  CCN_59 
REMARK   50  A    between atoms: CCN_59  and  CCO_60 
REMARK   51  A    between atoms: CCO_60  and  CCP_61 
REMARK   52  A    between atoms: CCP_61  and  CCQ_62 
REMARK   53  A    between atoms: CCQ_62  and  CCR_63 
REMARK   54  A    between atoms: CCR_63  and  CCS_64 
ROOT
ATOM      1  CAN JTD d   1      92.731 218.835 321.262  0.00  0.00     0.060 C 
ATOM      2  H41 JTD d   1      91.725 218.887 321.705  0.00  0.00     0.080 H 
ENDROOT
BRANCH   1   3
ATOM      3  CAP JTD d   1      92.718 219.505 319.887  0.00  0.00     0.081 C 
ATOM      4  H39 JTD d   1      93.740 219.488 319.479  0.00  0.00     0.090 H 
BRANCH   3   5
ATOM      5  CAQ JTD d   1      91.791 218.795 318.892  0.00  0.00     0.062 C 
ATOM      6  H37 JTD d   1      92.125 217.754 318.769  0.00  0.00     0.086 H 
BRANCH   5   7
ATOM      7  CBG JTD d   1      90.337 218.786 319.379  0.00  0.00    -0.039 C 
ATOM      8  H35 JTD d   1      90.239 218.058 320.198  0.00  0.00     0.036 H 
ATOM      9  H36 JTD d   1      90.078 219.789 319.748  0.00  0.00     0.036 H 
BRANCH   7  10
ATOM     10  CBH JTD d   1      89.362 218.401 318.247  0.00  0.00    -0.063 C 
ATOM     11  H33 JTD d   1      88.337 218.393 318.645  0.00  0.00     0.033 H 
ATOM     12  H34 JTD d   1      89.437 219.146 317.441  0.00  0.00     0.033 H 
BRANCH  10  13
ATOM     13  CBI JTD d   1      89.689 217.009 317.676  0.00  0.00    -0.065 C 
ATOM     14  H31 JTD d   1      90.506 217.101 316.946  0.00  0.00     0.033 H 
ATOM     15  H32 JTD d   1      90.003 216.347 318.496  0.00  0.00     0.033 H 
BRANCH  13  16
ATOM     16  CBJ JTD d   1      88.456 216.403 316.981  0.00  0.00    -0.065 C 
ATOM     17  H29 JTD d   1      88.613 215.323 316.840  0.00  0.00     0.033 H 
ATOM     18  H30 JTD d   1      87.569 216.565 317.611  0.00  0.00     0.033 H 
BRANCH  16  19
ATOM     19  CBK JTD d   1      88.235 217.063 315.617  0.00  0.00    -0.065 C 
ATOM     20  H27 JTD d   1      87.916 218.106 315.761  0.00  0.00     0.033 H 
ATOM     21  H28 JTD d   1      89.173 217.043 315.043  0.00  0.00     0.033 H 
BRANCH  19  22
ATOM     22  CBL JTD d   1      87.146 216.294 314.849  0.00  0.00    -0.065 C 
ATOM     23  H25 JTD d   1      87.347 215.215 314.920  0.00  0.00     0.033 H 
ATOM     24  H26 JTD d   1      86.165 216.514 315.294  0.00  0.00     0.033 H 
BRANCH  22  25
ATOM     25  CBM JTD d   1      87.136 216.712 313.368  0.00  0.00    -0.065 C 
ATOM     26  H23 JTD d   1      88.149 217.011 313.062  0.00  0.00     0.033 H 
ATOM     27  H24 JTD d   1      86.799 215.868 312.748  0.00  0.00     0.033 H 
BRANCH  25  28
ATOM     28  CBN JTD d   1      86.177 217.893 313.193  0.00  0.00    -0.065 C 
ATOM     29  H21 JTD d   1      85.160 217.572 313.463  0.00  0.00     0.033 H 
ATOM     30  H22 JTD d   1      86.492 218.712 313.857  0.00  0.00     0.033 H 
BRANCH  28  31
ATOM     31  CBO JTD d   1      86.174 218.399 311.741  0.00  0.00    -0.065 C 
ATOM     32  H19 JTD d   1      87.200 218.421 311.346  0.00  0.00     0.033 H 
ATOM     33  H20 JTD d   1      85.553 217.744 311.113  0.00  0.00     0.033 H 
BRANCH  31  34
ATOM     34  CBP JTD d   1      85.587 219.818 311.767  0.00  0.00    -0.065 C 
ATOM     35  H17 JTD d   1      84.685 219.819 312.397  0.00  0.00     0.033 H 
ATOM     36  H18 JTD d   1      86.333 220.504 312.194  0.00  0.00     0.033 H 
BRANCH  34  37
ATOM     37  CBQ JTD d   1      85.213 220.303 310.367  0.00  0.00    -0.065 C 
ATOM     38  H15 JTD d   1      86.120 220.642 309.845  0.00  0.00     0.033 H 
ATOM     39  H16 JTD d   1      84.754 219.476 309.806  0.00  0.00     0.033 H 
BRANCH  37  40
ATOM     40  CBR JTD d   1      84.209 221.476 310.462  0.00  0.00    -0.065 C 
ATOM     41  H13 JTD d   1      83.428 221.345 309.699  0.00  0.00     0.033 H 
ATOM     42  H14 JTD d   1      83.749 221.477 311.461  0.00  0.00     0.033 H 
BRANCH  40  43
ATOM     43  CBS JTD d   1      84.911 222.808 310.234  0.00  0.00    -0.069 C 
ATOM     44  H11 JTD d   1      85.668 222.957 311.018  0.00  0.00     0.032 H 
ATOM     45  H12 JTD d   1      85.400 222.796 309.249  0.00  0.00     0.032 H 
BRANCH  43  46
ATOM     46  CBT JTD d   1      83.901 223.960 310.282  0.00  0.00    -0.077 C 
ATOM     47  H8  JTD d   1      84.424 224.913 310.116  0.00  0.00     0.027 H 
ATOM     48  H9  JTD d   1      83.411 223.977 311.267  0.00  0.00     0.027 H 
ATOM     49  H10 JTD d   1      83.143 223.816 309.498  0.00  0.00     0.027 H 
ENDBRANCH  43  46
ENDBRANCH  40  43
ENDBRANCH  37  40
ENDBRANCH  34  37
ENDBRANCH  31  34
ENDBRANCH  28  31
ENDBRANCH  25  28
ENDBRANCH  22  25
ENDBRANCH  19  22
ENDBRANCH  16  19
ENDBRANCH  13  16
ENDBRANCH  10  13
ENDBRANCH   7  10
ENDBRANCH   5   7
BRANCH   5  50
ATOM     50  OAR JTD d   1      91.897 219.482 317.630  0.00  0.00    -0.393 OA
ATOM     51  H38 JTD d   1      91.600 220.379 317.733  0.00  0.00     0.210 HD
ENDBRANCH   5  50
ENDBRANCH   3   5
BRANCH   3  52
ATOM     52  OAS JTD d   1      92.302 220.859 320.052  0.00  0.00    -0.391 OA
ATOM     53  H40 JTD d   1      92.339 221.305 319.214  0.00  0.00     0.210 HD
ENDBRANCH   3  52
ENDBRANCH   1   3
BRANCH   1  54
ATOM     54  CAM JTD d   1      93.744 219.547 322.172  0.00  0.00     0.044 C 
ATOM     55  H42 JTD d   1      93.749 219.081 323.168  0.00  0.00     0.077 H 
ATOM     56  H43 JTD d   1      93.483 220.611 322.266  0.00  0.00     0.077 H 
BRANCH  54  57
ATOM     57  O1  JTD d   1      95.022 219.411 321.565  0.00  0.00    -0.356 OA
BRANCH  57  58
ATOM     58  C1  JTD d   1      96.093 220.008 322.287  0.00  0.00     0.158 C 
ATOM     59  C6  JTD d   1      97.334 219.894 321.439  0.00  0.00     0.110 C 
ATOM     60  C5  JTD d   1      97.697 218.432 321.261  0.00  0.00     0.092 C 
ATOM     61  H7  JTD d   1      98.165 220.421 321.930  0.00  0.00     0.094 H 
ATOM     62  C4  JTD d   1      97.847 217.744 322.612  0.00  0.00     0.092 C 
ATOM     63  H6  JTD d   1      96.906 217.927 320.687  0.00  0.00     0.091 H 
ATOM     64  C3  JTD d   1      96.567 217.961 323.416  0.00  0.00     0.089 C 
ATOM     65  H5  JTD d   1      98.014 216.666 322.470  0.00  0.00     0.091 H 
ATOM     66  O2  JTD d   1      96.310 219.364 323.554  0.00  0.00    -0.348 OA
ATOM     67  H4  JTD d   1      95.731 217.475 322.891  0.00  0.00     0.090 H 
ATOM     68  H1  JTD d   1      95.863 221.069 322.464  0.00  0.00     0.133 H 
BRANCH  59  69
ATOM     69  O5  JTD d   1      97.079 220.490 320.151  0.00  0.00    -0.388 OA
ATOM     70  H44 JTD d   1      96.359 220.035 319.729  0.00  0.00     0.210 HD
ENDBRANCH  59  69
BRANCH  60  71
ATOM     71  O3  JTD d   1      98.920 218.363 320.547  0.00  0.00    -0.390 OA
ATOM     72  H45 JTD d   1      98.815 218.779 319.700  0.00  0.00     0.210 HD
ENDBRANCH  60  71
BRANCH  62  73
ATOM     73  O4  JTD d   1      98.974 218.321 323.287  0.00  0.00    -0.380 OA
BRANCH  73  74
ATOM     74  CAT JTD d   1      99.767 217.423 324.061  0.00  0.00     0.024 C 
ATOM     75  H47 JTD d   1      99.175 216.526 324.296  0.00  0.00     0.074 H 
ATOM     76  H48 JTD d   1     100.070 217.918 324.995  0.00  0.00     0.074 H 
BRANCH  74  77
ATOM     77  CAU JTD d   1     101.011 217.015 323.282  0.00  0.00    -0.033 A 
ATOM     78  CAV JTD d   1     100.952 215.719 322.495  0.00  0.00    -0.059 A 
ATOM     79  CAW JTD d   1     101.724 215.763 323.795  0.00  0.00    -0.059 A 
ATOM     80  H50 JTD d   1     101.491 215.632 321.540  0.00  0.00     0.033 H 
ATOM     81  H51 JTD d   1     100.009 215.156 322.436  0.00  0.00     0.033 H 
ATOM     82  H52 JTD d   1     101.341 215.235 324.681  0.00  0.00     0.033 H 
ATOM     83  H53 JTD d   1     102.823 215.712 323.785  0.00  0.00     0.033 H 
ATOM     84  H49 JTD d   1     101.561 217.891 322.907  0.00  0.00     0.043 H 
ENDBRANCH  74  77
ENDBRANCH  73  74
ENDBRANCH  62  73
BRANCH  64  85
ATOM     85  C2  JTD d   1      96.672 217.401 324.840  0.00  0.00     0.043 C 
ATOM     86  H2  JTD d   1      95.754 217.636 325.399  0.00  0.00     0.078 H 
ATOM     87  H3  JTD d   1      97.537 217.849 325.351  0.00  0.00     0.078 H 
BRANCH  85  88
ATOM     88  O6  JTD d   1      96.839 215.987 324.765  0.00  0.00    -0.398 OA
ATOM     89  H46 JTD d   1      96.905 215.630 325.643  0.00  0.00     0.209 HD
ENDBRANCH  85  88
ENDBRANCH  64  85
ENDBRANCH  57  58
ENDBRANCH  54  57
ENDBRANCH   1  54
BRANCH   1  90
ATOM     90  NAO JTD d   1      93.149 217.439 321.141  0.00  0.00    -0.352 N 
ATOM     91  CBE JTD d   1      92.818 216.565 322.089  0.00  0.00     0.218 C 
ATOM     92  OBF JTD d   1      92.156 216.861 323.080  0.00  0.00    -0.274 OA
ATOM     93  H54 JTD d   1      93.682 217.142 320.349  0.00  0.00     0.163 HD
BRANCH  91  94
ATOM     94  CBU JTD d   1      93.354 215.150 321.879  0.00  0.00     0.009 C 
ATOM     95  H55 JTD d   1      94.179 214.970 322.584  0.00  0.00     0.047 H 
ATOM     96  H56 JTD d   1      93.725 215.055 320.848  0.00  0.00     0.047 H 
BRANCH  94  97
ATOM     97  CBV JTD d   1      92.265 214.113 322.113  0.00  0.00    -0.057 C 
ATOM     98  H57 JTD d   1      91.710 214.376 323.026  0.00  0.00     0.033 H 
ATOM     99  H58 JTD d   1      92.733 213.126 322.240  0.00  0.00     0.033 H 
BRANCH  97 100
ATOM    100  CBW JTD d   1      91.291 214.053 320.941  0.00  0.00    -0.065 C 
ATOM    101  H59 JTD d   1      91.785 213.630 320.054  0.00  0.00     0.033 H 
ATOM    102  H60 JTD d   1      90.912 215.059 320.705  0.00  0.00     0.033 H 
BRANCH 100 103
ATOM    103  CBX JTD d   1      90.148 213.147 321.397  0.00  0.00    -0.065 C 
ATOM    104  H61 JTD d   1      89.609 213.642 322.219  0.00  0.00     0.033 H 
ATOM    105  H62 JTD d   1      90.570 212.197 321.756  0.00  0.00     0.033 H 
BRANCH 103 106
ATOM    106  CBY JTD d   1      89.160 212.852 320.267  0.00  0.00    -0.065 C 
ATOM    107  H63 JTD d   1      89.640 212.245 319.486  0.00  0.00     0.033 H 
ATOM    108  H64 JTD d   1      88.789 213.789 319.827  0.00  0.00     0.033 H 
BRANCH 106 109
ATOM    109  CBZ JTD d   1      88.011 212.075 320.918  0.00  0.00    -0.065 C 
ATOM    110  H65 JTD d   1      87.529 212.714 321.673  0.00  0.00     0.033 H 
ATOM    111  H66 JTD d   1      88.418 211.176 321.404  0.00  0.00     0.033 H 
BRANCH 109 112
ATOM    112  CCA JTD d   1      86.972 211.654 319.891  0.00  0.00    -0.065 C 
ATOM    113  H67 JTD d   1      87.440 211.004 319.137  0.00  0.00     0.033 H 
ATOM    114  H68 JTD d   1      86.556 212.546 319.399  0.00  0.00     0.033 H 
BRANCH 112 115
ATOM    115  CCB JTD d   1      85.843 210.885 320.608  0.00  0.00    -0.065 C 
ATOM    116  H69 JTD d   1      86.240 210.415 321.520  0.00  0.00     0.033 H 
ATOM    117  H70 JTD d   1      85.444 210.108 319.939  0.00  0.00     0.033 H 
BRANCH 115 118
ATOM    118  CCC JTD d   1      84.724 211.865 320.981  0.00  0.00    -0.065 C 
ATOM    119  H71 JTD d   1      84.211 212.188 320.063  0.00  0.00     0.033 H 
ATOM    120  H72 JTD d   1      85.167 212.739 321.480  0.00  0.00     0.033 H 
BRANCH 118 121
ATOM    121  CCD JTD d   1      83.700 211.221 321.922  0.00  0.00    -0.065 C 
ATOM    122  H73 JTD d   1      84.055 210.226 322.229  0.00  0.00     0.033 H 
ATOM    123  H74 JTD d   1      82.734 211.123 321.405  0.00  0.00     0.033 H 
BRANCH 121 124
ATOM    124  CCE JTD d   1      83.534 212.110 323.156  0.00  0.00    -0.065 C 
ATOM    125  H75 JTD d   1      83.380 213.150 322.831  0.00  0.00     0.033 H 
ATOM    126  H76 JTD d   1      84.445 212.048 323.769  0.00  0.00     0.033 H 
BRANCH 124 127
ATOM    127  CCF JTD d   1      82.334 211.667 323.999  0.00  0.00    -0.065 C 
ATOM    128  H77 JTD d   1      81.495 211.422 323.332  0.00  0.00     0.033 H 
ATOM    129  H78 JTD d   1      82.041 212.488 324.670  0.00  0.00     0.033 H 
BRANCH 127 130
ATOM    130  CCG JTD d   1      82.686 210.438 324.834  0.00  0.00    -0.065 C 
ATOM    131  H79 JTD d   1      83.584 209.963 324.411  0.00  0.00     0.033 H 
ATOM    132  H80 JTD d   1      81.845 209.729 324.799  0.00  0.00     0.033 H 
BRANCH 130 133
ATOM    133  CCH JTD d   1      82.962 210.813 326.295  0.00  0.00    -0.065 C 
ATOM    134  H81 JTD d   1      82.281 211.621 326.598  0.00  0.00     0.033 H 
ATOM    135  H82 JTD d   1      84.003 211.155 326.393  0.00  0.00     0.033 H 
BRANCH 133 136
ATOM    136  CCI JTD d   1      82.740 209.594 327.203  0.00  0.00    -0.065 C 
ATOM    137  H83 JTD d   1      81.733 209.189 327.026  0.00  0.00     0.033 H 
ATOM    138  H84 JTD d   1      82.831 209.904 328.254  0.00  0.00     0.033 H 
BRANCH 136 139
ATOM    139  CCJ JTD d   1      83.776 208.511 326.907  0.00  0.00    -0.065 C 
ATOM    140  H85 JTD d   1      84.779 208.891 327.152  0.00  0.00     0.033 H 
ATOM    141  H86 JTD d   1      83.734 208.250 325.839  0.00  0.00     0.033 H 
BRANCH 139 142
ATOM    142  CCK JTD d   1      83.489 207.255 327.749  0.00  0.00    -0.065 C 
ATOM    143  H87 JTD d   1      82.951 206.521 327.132  0.00  0.00     0.033 H 
ATOM    144  H88 JTD d   1      82.868 207.533 328.613  0.00  0.00     0.033 H 
BRANCH 142 145
ATOM    145  CCL JTD d   1      84.797 206.632 328.248  0.00  0.00    -0.065 C 
ATOM    146  H89 JTD d   1      84.663 206.316 329.293  0.00  0.00     0.033 H 
ATOM    147  H90 JTD d   1      85.594 207.388 328.193  0.00  0.00     0.033 H 
BRANCH 145 148
ATOM    148  CCM JTD d   1      85.211 205.417 327.414  0.00  0.00    -0.065 C 
ATOM    149  H91 JTD d   1      84.314 204.824 327.180  0.00  0.00     0.033 H 
ATOM    150  H92 JTD d   1      85.912 204.805 328.001  0.00  0.00     0.033 H 
BRANCH 148 151
ATOM    151  CCN JTD d   1      85.888 205.825 326.105  0.00  0.00    -0.065 C 
ATOM    152  H93 JTD d   1      86.010 206.918 326.083  0.00  0.00     0.033 H 
ATOM    153  H94 JTD d   1      85.262 205.509 325.257  0.00  0.00     0.033 H 
BRANCH 151 154
ATOM    154  CCO JTD d   1      87.267 205.158 325.995  0.00  0.00    -0.065 C 
ATOM    155  H95 JTD d   1      87.319 204.314 326.699  0.00  0.00     0.033 H 
ATOM    156  H96 JTD d   1      88.046 205.893 326.246  0.00  0.00     0.033 H 
BRANCH 154 157
ATOM    157  CCP JTD d   1      87.500 204.642 324.571  0.00  0.00    -0.065 C 
ATOM    158  H97 JTD d   1      86.599 204.113 324.228  0.00  0.00     0.033 H 
ATOM    159  H98 JTD d   1      88.354 203.948 324.575  0.00  0.00     0.033 H 
BRANCH 157 160
ATOM    160  CCQ JTD d   1      87.797 205.794 323.614  0.00  0.00    -0.065 C 
ATOM    161  H99 JTD d   1      88.785 205.638 323.156  0.00  0.00     0.033 H 
ATOM    162 0H10 JTD d   1      87.798 206.740 324.175  0.00  0.00     0.033 H 
BRANCH 160 163
ATOM    163  CCR JTD d   1      86.744 205.863 322.520  0.00  0.00    -0.069 C 
ATOM    164 1H10 JTD d   1      85.761 206.068 322.968  0.00  0.00     0.032 H 
ATOM    165 2H10 JTD d   1      86.709 204.904 321.982  0.00  0.00     0.032 H 
BRANCH 163 166
ATOM    166  CCS JTD d   1      87.108 206.988 321.542  0.00  0.00    -0.077 C 
ATOM    167 3H10 JTD d   1      86.349 207.043 320.748  0.00  0.00     0.027 H 
ATOM    168 4H10 JTD d   1      88.092 206.782 321.096  0.00  0.00     0.027 H 
ATOM    169 5H10 JTD d   1      87.144 207.946 322.082  0.00  0.00     0.027 H 
ENDBRANCH 163 166
ENDBRANCH 160 163
ENDBRANCH 157 160
ENDBRANCH 154 157
ENDBRANCH 151 154
ENDBRANCH 148 151
ENDBRANCH 145 148
ENDBRANCH 142 145
ENDBRANCH 139 142
ENDBRANCH 136 139
ENDBRANCH 133 136
ENDBRANCH 130 133
ENDBRANCH 127 130
ENDBRANCH 124 127
ENDBRANCH 121 124
ENDBRANCH 118 121
ENDBRANCH 115 118
ENDBRANCH 112 115
ENDBRANCH 109 112
ENDBRANCH 106 109
ENDBRANCH 103 106
ENDBRANCH 100 103
ENDBRANCH  97 100
ENDBRANCH  94  97
ENDBRANCH  91  94
ENDBRANCH   1  90
TORSDOF 54
