REMARK  6 active torsions:
REMARK  status: ('A' for Active; 'I' for Inactive)
REMARK    1  A    between atoms: N_1  and  CA_2 
REMARK    2  A    between atoms: CA_2  and  C_3 
REMARK    3  A    between atoms: CA_2  and  CB_5 
REMARK    4  A    between atoms: CB_5  and  CG_6 
REMARK    5  A    between atoms: CG_6  and  CD_7 
REMARK    6  A    between atoms: CD_7  and  NE_8 
REMARK       I    between atoms: NE_8  and  CZ_9 
REMARK       I    between atoms: CZ_9  and  NH1_10 
ROOT
ATOM      1  CG  ARG d   1       2.519  -1.186 -10.843  0.00  0.00    -0.047 C 
ATOM      2  H7  ARG d   1       2.070  -0.336 -10.308  0.00  0.00     0.035 H 
ATOM      3  H8  ARG d   1       2.648  -0.925 -11.904  0.00  0.00     0.035 H 
ENDROOT
BRANCH   1   4
ATOM      4  CB  ARG d   1       1.576  -2.376 -10.745  0.00  0.00    -0.028 C 
ATOM      5  H5  ARG d   1       1.864  -3.114 -11.508  0.00  0.00     0.036 H 
ATOM      6  H6  ARG d   1       1.679  -2.823  -9.745  0.00  0.00     0.036 H 
BRANCH   4   7
ATOM      7  CA  ARG d   1       0.108  -2.000 -10.961  0.00  0.00     0.182 C 
ATOM      8  H4  ARG d   1      -0.479  -2.925 -11.061  0.00  0.00     0.101 H 
BRANCH   7   9
ATOM      9  N   ARG d   1      -0.063  -1.200 -12.179  0.00  0.00    -0.065 N 
ATOM     10  H1  ARG d   1       0.278  -1.719 -12.973  0.00  0.00     0.275 HD
ATOM     11  H2  ARG d   1       0.456  -0.340 -12.092  0.00  0.00     0.275 HD
ATOM     12  H3  ARG d   1      -1.040  -0.991 -12.309  0.00  0.00     0.275 HD
ENDBRANCH   7   9
BRANCH   7  13
ATOM     13  C   ARG d   1      -0.407  -1.214  -9.767  0.00  0.00     0.204 C 
ATOM     14  O   ARG d   1      -0.700  -0.018  -9.914  0.00  0.00    -0.646 OA
ATOM     15  OXT ARG d   1      -0.523  -1.724  -8.654  0.00  0.00    -0.646 OA
ENDBRANCH   7  13
ENDBRANCH   4   7
ENDBRANCH   1   4
BRANCH   1  16
ATOM     16  CD  ARG d   1       3.888  -1.472 -10.242  0.00  0.00     0.009 C 
ATOM     17  H9  ARG d   1       4.253  -2.436 -10.626  0.00  0.00     0.064 H 
ATOM     18  H10 ARG d   1       3.795  -1.525  -9.147  0.00  0.00     0.064 H 
BRANCH  16  19
ATOM     19  NE  ARG d   1       4.848  -0.429 -10.587  0.00  0.00    -0.227 N 
ATOM     20  CZ  ARG d   1       6.123  -0.410 -10.196  0.00  0.00     0.665 C 
ATOM     21  NH1 ARG d   1       6.590  -1.376  -9.425  0.00  0.00    -0.235 N 
ATOM     22  NH2 ARG d   1       6.939   0.576 -10.576  0.00  0.00    -0.235 N 
ATOM     23  H12 ARG d   1       7.574  -1.363  -9.122  0.00  0.00     0.174 HD
ATOM     24  H13 ARG d   1       5.970  -2.142  -9.127  0.00  0.00     0.174 HD
ATOM     25  H14 ARG d   1       6.586   1.334 -11.177  0.00  0.00     0.174 HD
ATOM     26  H15 ARG d   1       7.922   0.579 -10.268  0.00  0.00     0.174 HD
ATOM     27  H11 ARG d   1       4.517   0.349 -11.175  0.00  0.00     0.177 HD
ENDBRANCH  16  19
ENDBRANCH   1  16
TORSDOF 6
