REMARK  4 active torsions:
REMARK  status: ('A' for Active; 'I' for Inactive)
REMARK    1  A    between atoms: N_1  and  CA_2 
REMARK    2  A    between atoms: CA_2  and  C_3 
REMARK    3  A    between atoms: CA_2  and  CB_5 
REMARK    4  A    between atoms: CB_5  and  CG_6 
ROOT
ATOM      1  CB  HIS d   1      19.306  56.126  46.618  0.00  0.00     0.013 C 
ATOM      2  H5  HIS d   1      19.457  55.667  45.630  0.00  0.00     0.046 H 
ATOM      3  H6  HIS d   1      19.090  55.341  47.358  0.00  0.00     0.046 H 
ENDROOT
BRANCH   1   4
ATOM      4  CA  HIS d   1      18.051  57.031  46.522  0.00  0.00     0.187 C 
ATOM      5  H4  HIS d   1      17.189  56.368  46.358  0.00  0.00     0.101 H 
BRANCH   4   6
ATOM      6  N   HIS d   1      18.151  57.952  45.358  0.00  0.00    -0.065 N 
ATOM      7  H1  HIS d   1      18.340  57.419  44.523  0.00  0.00     0.275 HD
ATOM      8  H2  HIS d   1      18.899  58.610  45.513  0.00  0.00     0.275 HD
ATOM      9  H3  HIS d   1      17.282  58.451  45.249  0.00  0.00     0.275 HD
ENDBRANCH   4   6
BRANCH   4  10
ATOM     10  C   HIS d   1      17.763  57.850  47.791  0.00  0.00     0.204 C 
ATOM     11  O   HIS d   1      17.600  59.078  47.654  0.00  0.00    -0.646 OA
ATOM     12  OXT HIS d   1      17.640  57.224  48.855  0.00  0.00    -0.646 OA
ENDBRANCH   4  10
ENDBRANCH   1   4
BRANCH   1  13
ATOM     13  CG  HIS d   1      20.596  56.773  47.014  0.00  0.00     0.053 A 
ATOM     14  ND1 HIS d   1      20.907  58.084  46.721  0.00  0.00    -0.247 NA
ATOM     15  CE1 HIS d   1      22.106  58.378  47.195  0.00  0.00     0.064 A 
ATOM     16  NE2 HIS d   1      22.588  57.293  47.793  0.00  0.00    -0.359 N 
ATOM     17  H8  HIS d   1      22.610  59.340  47.110  0.00  0.00     0.143 H 
ATOM     18  CD2 HIS d   1      21.658  56.290  47.687  0.00  0.00     0.002 A 
ATOM     19  H9  HIS d   1      23.504  57.218  48.257  0.00  0.00     0.166 HD
ATOM     20  H7  HIS d   1      21.761  55.279  48.079  0.00  0.00     0.114 H 
ENDBRANCH   1  13
TORSDOF 4
