REMARK  6 active torsions:
REMARK  status: ('A' for Active; 'I' for Inactive)
REMARK    1  A    between atoms: N_1  and  CA_2 
REMARK    2  A    between atoms: CA_2  and  C_3 
REMARK    3  A    between atoms: CA_2  and  CB_5 
REMARK    4  A    between atoms: CB_5  and  CG_6 
REMARK    5  A    between atoms: CG_6  and  CD_7 
REMARK    6  A    between atoms: CD_7  and  NE_8 
REMARK       I    between atoms: NE_8  and  CZ_9 
REMARK       I    between atoms: CZ_9  and  NH1_10 
ROOT
ATOM      1  CG  ARG d   1      11.352   1.186 -10.785  0.00  0.00    -0.047 C 
ATOM      2  H7  ARG d   1      11.832   0.387 -10.201  0.00  0.00     0.035 H 
ATOM      3  H8  ARG d   1      11.210   0.848 -11.822  0.00  0.00     0.035 H 
ENDROOT
BRANCH   1   4
ATOM      4  CB  ARG d   1      12.261   2.402 -10.788  0.00  0.00    -0.028 C 
ATOM      5  H5  ARG d   1      11.926   3.088 -11.580  0.00  0.00     0.036 H 
ATOM      6  H6  ARG d   1      12.180   2.902  -9.812  0.00  0.00     0.036 H 
BRANCH   4   7
ATOM      7  CA  ARG d   1      13.745   2.048 -11.039  0.00  0.00     0.182 C 
ATOM      8  H4  ARG d   1      14.315   2.983 -11.149  0.00  0.00     0.101 H 
BRANCH   7   9
ATOM      9  N   ARG d   1      13.886   1.241 -12.274  0.00  0.00    -0.065 N 
ATOM     10  H1  ARG d   1      13.507   1.753 -13.055  0.00  0.00     0.275 HD
ATOM     11  H2  ARG d   1      13.385   0.373 -12.167  0.00  0.00     0.275 HD
ATOM     12  H3  ARG d   1      14.861   1.048 -12.440  0.00  0.00     0.275 HD
ENDBRANCH   7   9
BRANCH   7  13
ATOM     13  C   ARG d   1      14.325   1.245  -9.887  0.00  0.00     0.204 C 
ATOM     14  O   ARG d   1      14.700   0.071 -10.104  0.00  0.00    -0.646 OA
ATOM     15  OXT ARG d   1      14.442   1.732  -8.759  0.00  0.00    -0.646 OA
ENDBRANCH   7  13
ENDBRANCH   4   7
ENDBRANCH   1   4
BRANCH   1  16
ATOM     16  CD  ARG d   1       9.995   1.482 -10.180  0.00  0.00     0.009 C 
ATOM     17  H9  ARG d   1       9.609   2.419 -10.608  0.00  0.00     0.064 H 
ATOM     18  H10 ARG d   1      10.106   1.594  -9.091  0.00  0.00     0.064 H 
BRANCH  16  19
ATOM     19  NE  ARG d   1       9.047   0.413 -10.451  0.00  0.00    -0.227 N 
ATOM     20  CZ  ARG d   1       7.768   0.424 -10.078  0.00  0.00     0.665 C 
ATOM     21  NH1 ARG d   1       7.265   1.443  -9.397  0.00  0.00    -0.235 N 
ATOM     22  NH2 ARG d   1       6.994  -0.609 -10.357  0.00  0.00    -0.235 N 
ATOM     23  H12 ARG d   1       6.274   1.436  -9.116  0.00  0.00     0.174 HD
ATOM     24  H13 ARG d   1       7.865   2.243  -9.148  0.00  0.00     0.174 HD
ATOM     25  H14 ARG d   1       7.372  -1.408 -10.886  0.00  0.00     0.174 HD
ATOM     26  H15 ARG d   1       6.012  -0.616 -10.046  0.00  0.00     0.174 HD
ATOM     27  H11 ARG d   1       9.388  -0.410 -10.967  0.00  0.00     0.177 HD
ENDBRANCH  16  19
ENDBRANCH   1  16
TORSDOF 6
