REMARK  6 active torsions:
REMARK  status: ('A' for Active; 'I' for Inactive)
REMARK    1  A    between atoms: N_1  and  CA_2 
REMARK    2  A    between atoms: CA_2  and  C_3 
REMARK    3  A    between atoms: CA_2  and  CB_5 
REMARK    4  A    between atoms: CB_5  and  CG_6 
REMARK    5  A    between atoms: CG_6  and  CD_7 
REMARK    6  A    between atoms: CD_7  and  NE_8 
REMARK       I    between atoms: NE_8  and  CZ_9 
REMARK       I    between atoms: CZ_9  and  NH1_10 
ROOT
ATOM      1  CG  ARG d   1      11.423   1.188 -10.573  0.00  0.00    -0.047 C 
ATOM      2  H7  ARG d   1      11.763   0.366  -9.926  0.00  0.00     0.035 H 
ATOM      3  H8  ARG d   1      11.457   0.865 -11.624  0.00  0.00     0.035 H 
ENDROOT
BRANCH   1   4
ATOM      4  CB  ARG d   1      12.374   2.369 -10.397  0.00  0.00    -0.028 C 
ATOM      5  H5  ARG d   1      12.043   3.182 -11.060  0.00  0.00     0.036 H 
ATOM      6  H6  ARG d   1      12.320   2.704  -9.351  0.00  0.00     0.036 H 
BRANCH   4   7
ATOM      7  CA  ARG d   1      13.836   2.044 -10.725  0.00  0.00     0.182 C 
ATOM      8  H4  ARG d   1      14.387   2.990 -10.834  0.00  0.00     0.101 H 
BRANCH   7   9
ATOM      9  N   ARG d   1      13.930   1.314 -11.984  0.00  0.00    -0.065 N 
ATOM     10  H1  ARG d   1      13.509   1.859 -12.720  0.00  0.00     0.275 HD
ATOM     11  H2  ARG d   1      13.446   0.434 -11.899  0.00  0.00     0.275 HD
ATOM     12  H3  ARG d   1      14.899   1.145 -12.203  0.00  0.00     0.275 HD
ENDBRANCH   7   9
BRANCH   7  13
ATOM     13  C   ARG d   1      14.461   1.254  -9.587  0.00  0.00     0.204 C 
ATOM     14  O   ARG d   1      14.769   0.075  -9.742  0.00  0.00    -0.646 OA
ATOM     15  OXT ARG d   1      14.677   1.762  -8.480  0.00  0.00    -0.646 OA
ENDBRANCH   7  13
ENDBRANCH   4   7
ENDBRANCH   1   4
BRANCH   1  16
ATOM     16  CD  ARG d   1       9.961   1.526 -10.210  0.00  0.00     0.009 C 
ATOM     17  H9  ARG d   1       9.652   2.414 -10.780  0.00  0.00     0.064 H 
ATOM     18  H10 ARG d   1       9.905   1.744  -9.133  0.00  0.00     0.064 H 
BRANCH  16  19
ATOM     19  NE  ARG d   1       9.040   0.424 -10.517  0.00  0.00    -0.227 N 
ATOM     20  CZ  ARG d   1       7.781   0.335 -10.080  0.00  0.00     0.665 C 
ATOM     21  NH1 ARG d   1       7.283   1.287  -9.304  0.00  0.00    -0.235 N 
ATOM     22  NH2 ARG d   1       7.013  -0.710 -10.419  0.00  0.00    -0.235 N 
ATOM     23  H12 ARG d   1       6.312   1.220  -8.966  0.00  0.00     0.174 HD
ATOM     24  H13 ARG d   1       7.867   2.093  -9.039  0.00  0.00     0.174 HD
ATOM     25  H14 ARG d   1       7.393  -1.454 -11.022  0.00  0.00     0.174 HD
ATOM     26  H15 ARG d   1       6.043  -0.769 -10.077  0.00  0.00     0.174 HD
ATOM     27  H11 ARG d   1       9.392  -0.338 -11.114  0.00  0.00     0.177 HD
ENDBRANCH  16  19
ENDBRANCH   1  16
TORSDOF 6
