REMARK  6 active torsions:
REMARK  status: ('A' for Active; 'I' for Inactive)
REMARK    1  A    between atoms: N_1  and  CA_2 
REMARK    2  A    between atoms: CA_2  and  C_3 
REMARK    3  A    between atoms: CA_2  and  CB_5 
REMARK    4  A    between atoms: CB_5  and  CG_6 
REMARK    5  A    between atoms: CG_6  and  CD_7 
REMARK    6  A    between atoms: CD_7  and  NE_8 
REMARK       I    between atoms: NE_8  and  CZ_9 
REMARK       I    between atoms: CZ_9  and  NH1_10 
ROOT
ATOM      1  CG  ARG d   1       2.562  -1.124 -10.819  0.00  0.00    -0.047 C 
ATOM      2  H7  ARG d   1       2.093  -0.339 -10.207  0.00  0.00     0.035 H 
ATOM      3  H8  ARG d   1       2.672  -0.766 -11.853  0.00  0.00     0.035 H 
ENDROOT
BRANCH   1   4
ATOM      4  CB  ARG d   1       1.652  -2.350 -10.821  0.00  0.00    -0.028 C 
ATOM      5  H5  ARG d   1       1.949  -3.005 -11.653  0.00  0.00     0.036 H 
ATOM      6  H6  ARG d   1       1.783  -2.885  -9.869  0.00  0.00     0.036 H 
BRANCH   4   7
ATOM      7  CA  ARG d   1       0.167  -1.998 -10.983  0.00  0.00     0.182 C 
ATOM      8  H4  ARG d   1      -0.414  -2.931 -11.028  0.00  0.00     0.101 H 
BRANCH   7   9
ATOM      9  N   ARG d   1      -0.071  -1.243 -12.220  0.00  0.00    -0.065 N 
ATOM     10  H1  ARG d   1       0.234  -1.789 -13.011  0.00  0.00     0.275 HD
ATOM     11  H2  ARG d   1       0.445  -0.378 -12.190  0.00  0.00     0.275 HD
ATOM     12  H3  ARG d   1      -1.055  -1.044 -12.308  0.00  0.00     0.275 HD
ENDBRANCH   7   9
BRANCH   7  13
ATOM     13  C   ARG d   1      -0.285  -1.196  -9.774  0.00  0.00     0.204 C 
ATOM     14  O   ARG d   1      -0.539   0.009  -9.887  0.00  0.00    -0.646 OA
ATOM     15  OXT ARG d   1      -0.370  -1.717  -8.663  0.00  0.00    -0.646 OA
ENDBRANCH   7  13
ENDBRANCH   4   7
ENDBRANCH   1   4
BRANCH   1  16
ATOM     16  CD  ARG d   1       3.952  -1.420 -10.253  0.00  0.00     0.009 C 
ATOM     17  H9  ARG d   1       4.323  -2.356 -10.697  0.00  0.00     0.064 H 
ATOM     18  H10 ARG d   1       3.873  -1.538  -9.162  0.00  0.00     0.064 H 
BRANCH  16  19
ATOM     19  NE  ARG d   1       4.909  -0.347 -10.544  0.00  0.00    -0.227 N 
ATOM     20  CZ  ARG d   1       6.176  -0.328 -10.137  0.00  0.00     0.665 C 
ATOM     21  NH1 ARG d   1       6.651  -1.316  -9.382  0.00  0.00    -0.235 N 
ATOM     22  NH2 ARG d   1       6.974   0.688 -10.476  0.00  0.00    -0.235 N 
ATOM     23  H12 ARG d   1       7.632  -1.299  -9.069  0.00  0.00     0.174 HD
ATOM     24  H13 ARG d   1       6.038  -2.098  -9.111  0.00  0.00     0.174 HD
ATOM     25  H14 ARG d   1       6.611   1.455 -11.060  0.00  0.00     0.174 HD
ATOM     26  H15 ARG d   1       7.952   0.705 -10.153  0.00  0.00     0.174 HD
ATOM     27  H11 ARG d   1       4.576   0.450 -11.104  0.00  0.00     0.177 HD
ENDBRANCH  16  19
ENDBRANCH   1  16
TORSDOF 6
