REMARK  6 active torsions:
REMARK  status: ('A' for Active; 'I' for Inactive)
REMARK    1  A    between atoms: N_1  and  CA_2 
REMARK    2  A    between atoms: CA_2  and  C_3 
REMARK    3  A    between atoms: CA_2  and  CB_5 
REMARK    4  A    between atoms: CB_5  and  CG_6 
REMARK    5  A    between atoms: CG_6  and  CD_7 
REMARK    6  A    between atoms: CD_7  and  NE_8 
REMARK       I    between atoms: NE_8  and  CZ_9 
REMARK       I    between atoms: CZ_9  and  NH1_10 
ROOT
ATOM      1  CG  ARG d   1     -11.436   1.082  10.594  0.00  0.00    -0.047 C 
ATOM      2  H7  ARG d   1     -11.835   0.250   9.995  0.00  0.00     0.035 H 
ATOM      3  H8  ARG d   1     -11.396   0.785  11.652  0.00  0.00     0.035 H 
ENDROOT
BRANCH   1   4
ATOM      4  CB  ARG d   1     -12.381   2.281  10.457  0.00  0.00    -0.028 C 
ATOM      5  H5  ARG d   1     -12.041   3.063  11.152  0.00  0.00     0.036 H 
ATOM      6  H6  ARG d   1     -12.311   2.653   9.424  0.00  0.00     0.036 H 
BRANCH   4   7
ATOM      7  CA  ARG d   1     -13.871   1.985  10.760  0.00  0.00     0.182 C 
ATOM      8  H4  ARG d   1     -14.410   2.943  10.799  0.00  0.00     0.101 H 
BRANCH   7   9
ATOM      9  N   ARG d   1     -14.030   1.314  12.046  0.00  0.00    -0.065 N 
ATOM     10  H1  ARG d   1     -13.623   1.881  12.773  0.00  0.00     0.275 HD
ATOM     11  H2  ARG d   1     -13.566   0.419  12.018  0.00  0.00     0.275 HD
ATOM     12  H3  ARG d   1     -15.011   1.178  12.235  0.00  0.00     0.275 HD
ENDBRANCH   7   9
BRANCH   7  13
ATOM     13  C   ARG d   1     -14.490   1.123   9.657  0.00  0.00     0.204 C 
ATOM     14  O   ARG d   1     -14.622   1.560   8.506  0.00  0.00    -0.646 OA
ATOM     15  OXT ARG d   1     -14.896  -0.021   9.911  0.00  0.00    -0.646 OA
ENDBRANCH   7  13
ENDBRANCH   4   7
ENDBRANCH   1   4
BRANCH   1  16
ATOM     16  CD  ARG d   1     -10.002   1.391  10.115  0.00  0.00     0.009 C 
ATOM     17  H9  ARG d   1      -9.650   2.305  10.616  0.00  0.00     0.064 H 
ATOM     18  H10 ARG d   1     -10.019   1.553   9.027  0.00  0.00     0.064 H 
BRANCH  16  19
ATOM     19  NE  ARG d   1      -9.069   0.297  10.416  0.00  0.00    -0.227 N 
ATOM     20  CZ  ARG d   1      -7.791   0.251  10.035  0.00  0.00     0.665 C 
ATOM     21  NH1 ARG d   1      -7.034  -0.795  10.358  0.00  0.00    -0.235 N 
ATOM     22  NH2 ARG d   1      -7.262   1.233   9.315  0.00  0.00    -0.235 N 
ATOM     23  H12 ARG d   1      -6.048  -0.828  10.063  0.00  0.00     0.174 HD
ATOM     24  H13 ARG d   1      -7.434  -1.572  10.903  0.00  0.00     0.174 HD
ATOM     25  H14 ARG d   1      -7.835   2.049   9.057  0.00  0.00     0.174 HD
ATOM     26  H15 ARG d   1      -6.278   1.179   9.014  0.00  0.00     0.174 HD
ATOM     27  H11 ARG d   1      -9.430  -0.497  10.964  0.00  0.00     0.177 HD
ENDBRANCH  16  19
ENDBRANCH   1  16
TORSDOF 6
