REMARK  4 active torsions:
REMARK  status: ('A' for Active; 'I' for Inactive)
REMARK    1  A    between atoms: C09_3  and  C02_1 
REMARK       I    between atoms: C02_1  and  N03_18 
REMARK    2  A    between atoms: N03_18  and  C04_2 
REMARK    3  A    between atoms: N11_24  and  C12_4 
REMARK    4  A    between atoms: C18_10  and  C19_11 
ROOT
ATOM      1  C09 N1G d   1      21.503  14.146   7.255  0.00  0.00     0.148 A 
ATOM      2  C18 N1G d   1      23.129  14.050   5.753  0.00  0.00     0.071 A 
ATOM      3  C25 N1G d   1      22.503  14.876   6.639  0.00  0.00    -0.019 A 
ATOM      4  N10 N1G d   1      21.524  12.908   6.743  0.00  0.00    -0.161 NA
ATOM      5  N11 N1G d   1      22.541  12.873   5.819  0.00  0.00    -0.233 N 
ATOM      6  H11 N1G d   1      22.746  15.921   6.827  0.00  0.00     0.091 H 
ENDROOT
BRANCH   2   7
ATOM      7  C19 N1G d   1      24.290  14.522   4.889  0.00  0.00    -0.007 A 
ATOM      8  C20 N1G d   1      25.565  14.572   5.421  0.00  0.00    -0.071 A 
ATOM      9  C21 N1G d   1      26.618  15.017   4.640  0.00  0.00    -0.082 A 
ATOM     10  H6  N1G d   1      25.740  14.264   6.446  0.00  0.00     0.084 H 
ATOM     11  C22 N1G d   1      26.392  15.426   3.337  0.00  0.00    -0.083 A 
ATOM     12  H7  N1G d   1      27.621  15.045   5.050  0.00  0.00     0.083 H 
ATOM     13  C23 N1G d   1      25.111  15.390   2.811  0.00  0.00    -0.082 A 
ATOM     14  H8  N1G d   1      27.218  15.775   2.728  0.00  0.00     0.083 H 
ATOM     15  C24 N1G d   1      24.058  14.944   3.592  0.00  0.00    -0.071 A 
ATOM     16  H9  N1G d   1      24.933  15.710   1.791  0.00  0.00     0.083 H 
ATOM     17  H10 N1G d   1      23.052  14.925   3.187  0.00  0.00     0.084 H 
ENDBRANCH   2   7
BRANCH   5  18
ATOM     18  C12 N1G d   1      22.876  11.691   5.038  0.00  0.00     0.059 A 
ATOM     19  C13 N1G d   1      24.067  11.013   5.241  0.00  0.00    -0.055 A 
ATOM     20  C14 N1G d   1      24.362   9.885   4.488  0.00  0.00    -0.081 A 
ATOM     21  H1  N1G d   1      24.769  11.364   5.989  0.00  0.00     0.087 H 
ATOM     22  C15 N1G d   1      23.470   9.429   3.532  0.00  0.00    -0.083 A 
ATOM     23  H2  N1G d   1      25.296   9.358   4.649  0.00  0.00     0.083 H 
ATOM     24  C16 N1G d   1      22.275  10.100   3.330  0.00  0.00    -0.081 A 
ATOM     25  H3  N1G d   1      23.706   8.550   2.944  0.00  0.00     0.083 H 
ATOM     26  C17 N1G d   1      21.984  11.229   4.082  0.00  0.00    -0.055 A 
ATOM     27  H4  N1G d   1      21.570   9.744   2.587  0.00  0.00     0.083 H 
ATOM     28  H5  N1G d   1      21.050  11.755   3.921  0.00  0.00     0.087 H 
ENDBRANCH   5  18
BRANCH   1  29
ATOM     29  C02 N1G d   1      20.580  14.734   8.312  0.00  0.00     0.290 C 
ATOM     30  N03 N1G d   1      20.657  16.170   8.512  0.00  0.00    -0.148 N 
ATOM     31  H12 N1G d   1      21.297  16.703   7.958  0.00  0.00     0.188 HD
ATOM     32  O01 N1G d   1      19.835  14.052   8.936  0.00  0.00    -0.265 OA
BRANCH  30  33
ATOM     33  C04 N1G d   1      19.837  16.854   9.486  0.00  0.00     0.761 A 
ATOM     34  N05 N1G d   1      18.507  16.974   9.451  0.00  0.00     0.034 NA
ATOM     35  N06 N1G d   1      18.118  17.678  10.533  0.00  0.00    -0.185 N 
ATOM     36  N07 N1G d   1      19.213  17.997  11.229  0.00  0.00     0.037 NA
ATOM     37  H13 N1G d   1      17.149  17.926  10.779  0.00  0.00     0.208 HD
ATOM     38  N08 N1G d   1      20.281  17.484  10.579  0.00  0.00     0.035 NA
ENDBRANCH  30  33
ENDBRANCH   1  29
TORSDOF 4
