REMARK  6 active torsions:
REMARK  status: ('A' for Active; 'I' for Inactive)
REMARK    1  A    between atoms: N_1  and  CA_2 
REMARK    2  A    between atoms: CA_2  and  C_3 
REMARK    3  A    between atoms: CA_2  and  CB_5 
REMARK    4  A    between atoms: CB_5  and  CG_6 
REMARK    5  A    between atoms: CG_6  and  CD_7 
REMARK    6  A    between atoms: CD_7  and  NE_8 
REMARK       I    between atoms: NE_8  and  CZ_9 
REMARK       I    between atoms: CZ_9  and  NH1_10 
ROOT
ATOM      1  CG  ARG d   1       2.245  -1.312 -10.769  0.00  0.00    -0.047 C 
ATOM      2  H7  ARG d   1       1.772  -0.480 -10.227  0.00  0.00     0.035 H 
ATOM      3  H8  ARG d   1       2.371  -1.037 -11.826  0.00  0.00     0.035 H 
ENDROOT
BRANCH   1   4
ATOM      4  CB  ARG d   1       1.333  -2.546 -10.681  0.00  0.00    -0.028 C 
ATOM      5  H5  ARG d   1       1.681  -3.291 -11.411  0.00  0.00     0.036 H 
ATOM      6  H6  ARG d   1       1.407  -2.964  -9.666  0.00  0.00     0.036 H 
BRANCH   4   7
ATOM      7  CA  ARG d   1      -0.142  -2.229 -10.972  0.00  0.00     0.182 C 
ATOM      8  H4  ARG d   1      -0.695  -3.178 -11.030  0.00  0.00     0.101 H 
BRANCH   7   9
ATOM      9  N   ARG d   1      -0.295  -1.526 -12.241  0.00  0.00    -0.065 N 
ATOM     10  H1  ARG d   1       0.096  -2.084 -12.984  0.00  0.00     0.275 HD
ATOM     11  H2  ARG d   1       0.187  -0.642 -12.196  0.00  0.00     0.275 HD
ATOM     12  H3  ARG d   1      -1.274  -1.366 -12.421  0.00  0.00     0.275 HD
ENDBRANCH   7   9
BRANCH   7  13
ATOM     13  C   ARG d   1      -0.730  -1.391  -9.852  0.00  0.00     0.204 C 
ATOM     14  O   ARG d   1      -1.111  -0.240 -10.071  0.00  0.00    -0.646 OA
ATOM     15  OXT ARG d   1      -0.849  -1.861  -8.722  0.00  0.00    -0.646 OA
ENDBRANCH   7  13
ENDBRANCH   4   7
ENDBRANCH   1   4
BRANCH   1  16
ATOM     16  CD  ARG d   1       3.619  -1.580 -10.161  0.00  0.00     0.009 C 
ATOM     17  H9  ARG d   1       4.002  -2.535 -10.550  0.00  0.00     0.064 H 
ATOM     18  H10 ARG d   1       3.520  -1.643  -9.067  0.00  0.00     0.064 H 
BRANCH  16  19
ATOM     19  NE  ARG d   1       4.568  -0.515 -10.493  0.00  0.00    -0.227 N 
ATOM     20  CZ  ARG d   1       5.842  -0.488 -10.099  0.00  0.00     0.665 C 
ATOM     21  NH1 ARG d   1       6.340  -1.463  -9.349  0.00  0.00    -0.235 N 
ATOM     22  NH2 ARG d   1       6.628   0.523 -10.469  0.00  0.00    -0.235 N 
ATOM     23  H12 ARG d   1       7.325  -1.431  -9.051  0.00  0.00     0.174 HD
ATOM     24  H13 ARG d   1       5.741  -2.252  -9.065  0.00  0.00     0.174 HD
ATOM     25  H14 ARG d   1       6.249   1.284 -11.051  0.00  0.00     0.174 HD
ATOM     26  H15 ARG d   1       7.614   0.544 -10.173  0.00  0.00     0.174 HD
ATOM     27  H11 ARG d   1       4.228   0.267 -11.071  0.00  0.00     0.177 HD
ENDBRANCH  16  19
ENDBRANCH   1  16
TORSDOF 6
