REMARK  4 active torsions:
REMARK  status: ('A' for Active; 'I' for Inactive)
REMARK    1  A    between atoms: N_1  and  CA_2 
REMARK    2  A    between atoms: CA_2  and  C_3 
REMARK    3  A    between atoms: CA_2  and  CB_5 
REMARK    4  A    between atoms: CB_5  and  CG_6 
ROOT
ATOM      1  CB  HIS d   1      12.478   2.812 -10.910  0.00  0.00     0.013 C 
ATOM      2  H5  HIS d   1      12.325   3.498 -11.757  0.00  0.00     0.046 H 
ATOM      3  H6  HIS d   1      12.600   3.394  -9.984  0.00  0.00     0.046 H 
ENDROOT
BRANCH   1   4
ATOM      4  CA  HIS d   1      13.795   2.029 -11.160  0.00  0.00     0.187 C 
ATOM      5  H4  HIS d   1      14.575   2.781 -11.352  0.00  0.00     0.101 H 
BRANCH   4   6
ATOM      6  N   HIS d   1      13.726   1.171 -12.346  0.00  0.00    -0.065 N 
ATOM      7  H1  HIS d   1      13.430   1.718 -13.139  0.00  0.00     0.275 HD
ATOM      8  H2  HIS d   1      13.065   0.427 -12.185  0.00  0.00     0.275 HD
ATOM      9  H3  HIS d   1      14.636   0.778 -12.530  0.00  0.00     0.275 HD
ENDBRANCH   4   6
BRANCH   4  10
ATOM     10  C   HIS d   1      14.240   1.227  -9.951  0.00  0.00     0.204 C 
ATOM     11  O   HIS d   1      14.501   0.018 -10.102  0.00  0.00    -0.646 OA
ATOM     12  OXT HIS d   1      14.393   1.767  -8.848  0.00  0.00    -0.646 OA
ENDBRANCH   4  10
ENDBRANCH   1   4
BRANCH   1  13
ATOM     13  CG  HIS d   1      11.244   1.970 -10.768  0.00  0.00     0.053 A 
ATOM     14  ND1 HIS d   1       9.987   2.533 -10.656  0.00  0.00    -0.247 NA
ATOM     15  CE1 HIS d   1       9.082   1.576 -10.549  0.00  0.00     0.064 A 
ATOM     16  NE2 HIS d   1       9.704   0.411 -10.590  0.00  0.00    -0.359 N 
ATOM     17  H8  HIS d   1       8.008   1.722 -10.445  0.00  0.00     0.143 H 
ATOM     18  CD2 HIS d   1      11.059   0.629 -10.720  0.00  0.00     0.002 A 
ATOM     19  H9  HIS d   1       9.250  -0.512 -10.534  0.00  0.00     0.166 HD
ATOM     20  H7  HIS d   1      11.835  -0.133 -10.774  0.00  0.00     0.114 H 
ENDBRANCH   1  13
TORSDOF 4
