REMARK  11 active torsions:
REMARK  status: ('A' for Active; 'I' for Inactive)
REMARK    1  A    between atoms: O3B_8  and  PG_1 
REMARK    2  A    between atoms: PB_5  and  O3B_8 
REMARK    3  A    between atoms: O3A_12  and  PB_5 
REMARK    4  A    between atoms: PA_9  and  O3A_12 
REMARK    5  A    between atoms: PA_9  and  O5'_13 
REMARK    6  A    between atoms: O5'_13  and  C5'_14 
REMARK    7  A    between atoms: C5'_14  and  C4'_15 
REMARK    8  A    between atoms: C3'_17  and  O3'_18 
REMARK    9  A    between atoms: C2'_19  and  O2'_20 
REMARK   10  A    between atoms: C1'_21  and  N9_22 
REMARK   11  A    between atoms: C6_26  and  N6_27 
ROOT
ATOM      1  C4' ATP d   1      12.346  17.458   3.618  0.00  0.00     0.089 C 
ATOM      2  O4' ATP d   1      12.854  17.353   2.343  0.00  0.00    -0.353 OA
ATOM      3  C3' ATP d   1      12.675  18.839   4.182  0.00  0.00     0.091 C 
ATOM      4  C2' ATP d   1      14.042  19.037   3.446  0.00  0.00     0.105 C 
ATOM      5  C1' ATP d   1      13.943  18.441   2.232  0.00  0.00     0.139 C 
ATOM      6  H3  ATP d   1      12.834  16.709   4.258  0.00  0.00     0.090 H 
ATOM      7  H4  ATP d   1      11.939  19.589   3.857  0.00  0.00     0.091 H 
ATOM      8  H6  ATP d   1      14.278  20.105   3.325  0.00  0.00     0.093 H 
ATOM      9  H8  ATP d   1      14.916  17.992   1.984  0.00  0.00     0.122 H 
ENDROOT
BRANCH   1  10
ATOM     10  C5' ATP d   1      10.846  17.139   3.578  0.00  0.00     0.058 C 
ATOM     11  H1  ATP d   1      10.686  16.127   3.179  0.00  0.00     0.079 H 
ATOM     12  H2  ATP d   1      10.419  17.206   4.589  0.00  0.00     0.079 H 
BRANCH  10  13
ATOM     13  O5' ATP d   1      10.245  18.090   2.736  0.00  0.00    -0.287 OA
BRANCH  13  14
ATOM     14  PA  ATP d   1       8.781  17.780   2.047  0.00  0.00     0.417 P 
ATOM     15  O1A ATP d   1       8.895  18.295   0.593  0.00  0.00    -0.624 OA
ATOM     16  O2A ATP d   1       8.397  16.390   2.199  0.00  0.00    -0.624 OA
BRANCH  14  17
ATOM     17  O3A ATP d   1       7.781  18.802   2.769  0.00  0.00    -0.180 OA
BRANCH  17  18
ATOM     18  PB  ATP d   1       7.289  18.967   4.342  0.00  0.00     0.428 P 
ATOM     19  O1B ATP d   1       6.414  17.890   4.803  0.00  0.00    -0.624 OA
ATOM     20  O2B ATP d   1       6.722  20.332   4.310  0.00  0.00    -0.624 OA
BRANCH  18  21
ATOM     21  O3B ATP d   1       8.688  18.930   5.156  0.00  0.00    -0.173 OA
BRANCH  21  22
ATOM     22  PG  ATP d   1       9.066  19.770   6.497  0.00  0.00     0.431 P 
ATOM     23  O1G ATP d   1       8.807  21.202   6.206  0.00  0.00    -0.616 OA
ATOM     24  O2G ATP d   1       8.121  19.271   7.604  0.00  0.00    -0.616 OA
ATOM     25  O3G ATP d   1      10.462  19.370   6.810  0.00  0.00    -0.616 OA
ENDBRANCH  21  22
ENDBRANCH  18  21
ENDBRANCH  17  18
ENDBRANCH  14  17
ENDBRANCH  13  14
ENDBRANCH  10  13
ENDBRANCH   1  10
BRANCH   3  26
ATOM     26  O3' ATP d   1      12.742  18.880   5.560  0.00  0.00    -0.390 OA
ATOM     27  H5  ATP d   1      11.904  18.619   5.925  0.00  0.00     0.210 HD
ENDBRANCH   3  26
BRANCH   5  28
ATOM     28  N9  ATP d   1      13.518  19.309   1.112  0.00  0.00    -0.294 N 
ATOM     29  C8  ATP d   1      12.251  19.640   0.726  0.00  0.00     0.071 A 
ATOM     30  N7  ATP d   1      12.295  20.500  -0.294  0.00  0.00    -0.236 NA
ATOM     31  H9  ATP d   1      11.339  19.259   1.183  0.00  0.00     0.144 H 
ATOM     32  C5  ATP d   1      13.635  20.705  -0.519  0.00  0.00     0.149 A 
ATOM     33  C6  ATP d   1      14.293  21.462  -1.442  0.00  0.00     0.155 A 
ATOM     34  C4  ATP d   1      14.374  19.960   0.342  0.00  0.00     0.167 A 
ATOM     35  N1  ATP d   1      15.636  21.463  -1.448  0.00  0.00    -0.222 NA
ATOM     36  C2  ATP d   1      16.298  20.720  -0.559  0.00  0.00     0.091 A 
ATOM     37  N3  ATP d   1      15.716  19.939   0.379  0.00  0.00    -0.222 NA
ATOM     38  H12 ATP d   1      17.381  20.744  -0.591  0.00  0.00     0.146 H 
BRANCH  33  39
ATOM     39  N6  ATP d   1      13.697  22.302  -2.415  0.00  0.00    -0.382 N 
ATOM     40  H10 ATP d   1      14.289  22.834  -3.069  0.00  0.00     0.157 HD
ATOM     41  H11 ATP d   1      12.671  22.381  -2.469  0.00  0.00     0.157 HD
ENDBRANCH  33  39
ENDBRANCH   5  28
BRANCH   4  42
ATOM     42  O2' ATP d   1      15.052  18.382   4.283  0.00  0.00    -0.388 OA
ATOM     43  H7  ATP d   1      15.906  18.474   3.877  0.00  0.00     0.210 HD
ENDBRANCH   4  42
TORSDOF 11
