REMARK  2 active torsions:
REMARK  status: ('A' for Active; 'I' for Inactive)
REMARK    1  A    between atoms: C5_3  and  C6_4 
REMARK    2  A    between atoms: C18_18  and  O3_6 
ROOT
ATOM      1  C2  J3Z d   1      22.724  -4.349 -29.830  0.00  0.00    -0.024 C 
ATOM      2  C4  J3Z d   1      23.179  -2.575 -31.689  0.00  0.00    -0.051 C 
ATOM      3  C5  J3Z d   1      24.290  -2.008 -30.809  0.00  0.00     0.021 C 
ATOM      4  O1  J3Z d   1      25.552  -0.910 -32.535  0.00  0.00    -0.297 OA
ATOM      5  C7  J3Z d   1      25.556  -1.548 -31.501  0.00  0.00     0.135 C 
ATOM      6  C8  J3Z d   1      26.818  -1.918 -30.736  0.00  0.00    -0.009 C 
ATOM      7  C9  J3Z d   1      26.246  -2.582 -29.492  0.00  0.00    -0.054 C 
ATOM      8  C10 J3Z d   1      24.898  -3.130 -29.970  0.00  0.00    -0.036 C 
ATOM      9  C12 J3Z d   1      23.871  -3.722 -28.992  0.00  0.00    -0.042 C 
ATOM     10  C3  J3Z d   1      22.127  -3.379 -30.882  0.00  0.00    -0.056 C 
ATOM     11  C14 J3Z d   1      24.500  -4.642 -27.923  0.00  0.00    -0.057 C 
ATOM     12  C15 J3Z d   1      23.757  -5.966 -27.806  0.00  0.00    -0.040 C 
ATOM     13  C16 J3Z d   1      22.249  -5.868 -27.872  0.00  0.00    -0.049 A 
ATOM     14  C21 J3Z d   1      21.690  -5.012 -28.945  0.00  0.00    -0.047 A 
ATOM     15  C17 J3Z d   1      21.416  -6.596 -27.027  0.00  0.00    -0.044 A 
ATOM     16  C18 J3Z d   1      20.026  -6.509 -27.176  0.00  0.00     0.066 A 
ATOM     17  C19 J3Z d   1      19.460  -5.699 -28.184  0.00  0.00    -0.051 A 
ATOM     18  C20 J3Z d   1      20.278  -4.965 -29.068  0.00  0.00    -0.073 A 
ATOM     19  H1  J3Z d   1      23.185  -5.161 -30.411  0.00  0.00     0.048 H 
ATOM     20  H2  J3Z d   1      23.630  -3.240 -32.440  0.00  0.00     0.034 H 
ATOM     21  H3  J3Z d   1      22.671  -1.741 -32.196  0.00  0.00     0.034 H 
ATOM     22  H8  J3Z d   1      27.406  -1.025 -30.478  0.00  0.00     0.044 H 
ATOM     23  H9  J3Z d   1      27.444  -2.616 -31.311  0.00  0.00     0.044 H 
ATOM     24  H10 J3Z d   1      26.108  -1.850 -28.683  0.00  0.00     0.034 H 
ATOM     25  H11 J3Z d   1      26.900  -3.395 -29.144  0.00  0.00     0.034 H 
ATOM     26  H12 J3Z d   1      25.140  -3.961 -30.648  0.00  0.00     0.042 H 
ATOM     27  H13 J3Z d   1      23.431  -2.881 -28.436  0.00  0.00     0.041 H 
ATOM     28  H14 J3Z d   1      21.476  -2.663 -30.358  0.00  0.00     0.034 H 
ATOM     29  H15 J3Z d   1      21.528  -3.969 -31.591  0.00  0.00     0.034 H 
ATOM     30  H16 J3Z d   1      24.469  -4.130 -26.950  0.00  0.00     0.034 H 
ATOM     31  H17 J3Z d   1      25.546  -4.844 -28.198  0.00  0.00     0.034 H 
ATOM     32  H18 J3Z d   1      24.026  -6.423 -26.842  0.00  0.00     0.040 H 
ATOM     33  H19 J3Z d   1      24.092  -6.617 -28.627  0.00  0.00     0.040 H 
ATOM     34  H20 J3Z d   1      21.842  -7.228 -26.256  0.00  0.00     0.088 H 
ATOM     35  H21 J3Z d   1      18.382  -5.640 -28.280  0.00  0.00     0.087 H 
ATOM     36  H22 J3Z d   1      19.825  -4.361 -29.846  0.00  0.00     0.084 H 
ENDROOT
BRANCH   3  37
ATOM     37  C6  J3Z d   1      23.746  -0.824 -29.998  0.00  0.00    -0.062 C 
ATOM     38  H4  J3Z d   1      24.547  -0.415 -29.364  0.00  0.00     0.029 H 
ATOM     39  H5  J3Z d   1      22.914  -1.165 -29.364  0.00  0.00     0.029 H 
ATOM     40  H6  J3Z d   1      23.387  -0.043 -30.685  0.00  0.00     0.029 H 
ENDBRANCH   3  37
BRANCH  16  41
ATOM     41  O3  J3Z d   1      19.239  -7.220 -26.308  0.00  0.00    -0.361 OA
ATOM     42  H7  J3Z d   1      18.324  -7.073 -26.519  0.00  0.00     0.217 HD
ENDBRANCH  16  41
TORSDOF 2
