REMARK  8 active torsions:
REMARK  status: ('A' for Active; 'I' for Inactive)
REMARK    1  A    between atoms: C02_1  and  O3_15 
REMARK    2  A    between atoms: C03_2  and  O4_17 
REMARK    3  A    between atoms: C05_3  and  C06_4 
REMARK    4  A    between atoms: C06_4  and  O07_9 
REMARK    5  A    between atoms: C09_5  and  C15_6 
REMARK    6  A    between atoms: C09_5  and  O10_11 
REMARK    7  A    between atoms: C17_7  and  O2_13 
REMARK    8  A    between atoms: O10_11  and  P_18 
ROOT
ATOM      1  C02 JVS d   1      27.231  53.237  16.150  0.00  0.00     0.092 C 
ATOM      2  C03 JVS d   1      28.342  52.402  16.647  0.00  0.00     0.090 C 
ATOM      3  C05 JVS d   1      28.438  51.105  15.842  0.00  0.00     0.089 C 
ATOM      4  C09 JVS d   1      25.995  51.168  15.541  0.00  0.00     0.232 C 
ATOM      5  C17 JVS d   1      25.960  52.473  16.349  0.00  0.00     0.119 C 
ATOM      6  O08 JVS d   1      27.147  50.343  15.926  0.00  0.00    -0.340 OA
ATOM      7  H1  JVS d   1      27.380  53.443  15.080  0.00  0.00     0.091 H 
ATOM      8  H2  JVS d   1      28.125  52.141  17.693  0.00  0.00     0.091 H 
ATOM      9  H3  JVS d   1      28.636  51.353  14.789  0.00  0.00     0.090 H 
ATOM     10  H8  JVS d   1      25.875  52.212  17.414  0.00  0.00     0.095 H 
ENDROOT
BRANCH   4  11
ATOM     11  C15 JVS d   1      24.763  50.385  15.855  0.00  0.00     0.113 C 
ATOM     12  F16 JVS d   1      24.707  50.352  17.220  0.00  0.00    -0.250 F 
ATOM     13  H6  JVS d   1      24.837  49.367  15.446  0.00  0.00     0.090 H 
ATOM     14  H7  JVS d   1      23.873  50.882  15.443  0.00  0.00     0.090 H 
ENDBRANCH   4  11
BRANCH   4  15
ATOM     15  O10 JVS d   1      26.162  51.465  14.177  0.00  0.00    -0.239 OA
BRANCH  15  16
ATOM     16  P   JVS d   1      24.974  51.691  13.060  0.00  0.00     0.425 P 
ATOM     17  O1P JVS d   1      23.932  52.682  13.559  0.00  0.00    -0.617 OA
ATOM     18  O2P JVS d   1      25.606  52.239  11.790  0.00  0.00    -0.617 OA
ATOM     19  O3P JVS d   1      24.302  50.380  12.741  0.00  0.00    -0.617 OA
ENDBRANCH  15  16
ENDBRANCH   4  15
BRANCH   5  20
ATOM     20  O2  JVS d   1      24.832  53.285  16.000  0.00  0.00    -0.387 OA
ATOM     21  H10 JVS d   1      24.876  53.506  15.077  0.00  0.00     0.210 HD
ENDBRANCH   5  20
BRANCH   1  22
ATOM     22  O3  JVS d   1      27.146  54.505  16.874  0.00  0.00    -0.390 OA
ATOM     23  H11 JVS d   1      27.951  54.994  16.750  0.00  0.00     0.210 HD
ENDBRANCH   1  22
BRANCH   3  24
ATOM     24  C06 JVS d   1      29.560  50.276  16.362  0.00  0.00     0.043 C 
ATOM     25  H4  JVS d   1      30.343  50.928  16.777  0.00  0.00     0.078 H 
ATOM     26  H5  JVS d   1      29.982  49.668  15.548  0.00  0.00     0.078 H 
BRANCH  24  27
ATOM     27  O07 JVS d   1      29.058  49.441  17.366  0.00  0.00    -0.398 OA
ATOM     28  H9  JVS d   1      28.380  48.883  17.003  0.00  0.00     0.209 HD
ENDBRANCH  24  27
ENDBRANCH   3  24
BRANCH   2  29
ATOM     29  O4  JVS d   1      29.606  53.108  16.619  0.00  0.00    -0.390 OA
ATOM     30  H12 JVS d   1      29.531  53.910  17.122  0.00  0.00     0.210 HD
ENDBRANCH   2  29
TORSDOF 8
