REMARK  30 active torsions:
REMARK  status: ('A' for Active; 'I' for Inactive)
REMARK    1  A    between atoms: N_1  and  CA_2 
REMARK    2  A    between atoms: CA_2  and  C_3 
REMARK    3  A    between atoms: CA_2  and  CB_5 
REMARK       I    between atoms: C_3  and  N_6 
REMARK    4  A    between atoms: N_6  and  CA_7 
REMARK    5  A    between atoms: CA_7  and  C_8 
REMARK    6  A    between atoms: CA_7  and  CB_10 
REMARK       I    between atoms: C_8  and  N_13 
REMARK    7  A    between atoms: CB_10  and  CG1_11 
REMARK    8  A    between atoms: CB_10  and  CG2_12 
REMARK    9  A    between atoms: N_13  and  CA_14 
REMARK   10  A    between atoms: CA_14  and  C_15 
REMARK       I    between atoms: C_15  and  N_17 
REMARK   11  A    between atoms: N_17  and  CA_18 
REMARK   12  A    between atoms: CA_18  and  C_19 
REMARK   13  A    between atoms: CA_18  and  CB_21 
REMARK       I    between atoms: C_19  and  N_25 
REMARK   14  A    between atoms: CB_21  and  CG1_22 
REMARK   15  A    between atoms: CB_21  and  CG2_23 
REMARK   16  A    between atoms: CG1_22  and  CD1_24 
REMARK   17  A    between atoms: N_25  and  CA_26 
REMARK   18  A    between atoms: CA_26  and  C_27 
REMARK       I    between atoms: C_27  and  N_29 
REMARK   19  A    between atoms: N_29  and  CA_30 
REMARK   20  A    between atoms: CA_30  and  C_31 
REMARK   21  A    between atoms: CA_30  and  CB_33 
REMARK       I    between atoms: C_31  and  N_34 
REMARK   22  A    between atoms: N_34  and  CA_35 
REMARK   23  A    between atoms: CA_35  and  C_36 
REMARK   24  A    between atoms: CA_35  and  CB_38 
REMARK       I    between atoms: C_36  and  N_41 
REMARK   25  A    between atoms: CB_38  and  CG1_39 
REMARK   26  A    between atoms: CB_38  and  CG2_40 
REMARK   27  A    between atoms: N_41  and  CA_42 
REMARK   28  A    between atoms: CA_42  and  C_43 
REMARK   29  A    between atoms: CA_42  and  CB_45 
REMARK   30  A    between atoms: CB_45  and  CG_46 
ROOT
ATOM      1  C   ALA d   1      81.327-124.060-149.146  0.00  0.00     0.241 C 
ATOM      2  O   ALA d   1      82.264-124.143-148.345  0.00  0.00    -0.271 OA
ATOM      3  N   ALA d   1      81.116-124.956-150.107  0.00  0.00    -0.351 N 
ATOM      4  H31 ALA d   1      80.352-124.819-150.737  0.00  0.00     0.163 HD
ENDROOT
BRANCH   1   5
ATOM      5  CA  ALA d   1      80.335-122.907-149.076  0.00  0.00     0.092 C 
ATOM      6  H21 ALA d   1      79.417-123.199-149.607  0.00  0.00     0.088 H 
BRANCH   5   7
ATOM      7  N   ALA d   1      80.014-122.672-147.674  0.00  0.00    -0.346 N 
ATOM      8  C   ALA d   1      78.819-122.242-147.286  0.00  0.00     0.236 C 
ATOM      9  O   ALA d   1      77.897-122.041-148.083  0.00  0.00    -0.272 OA
ATOM     10  H20 ALA d   1      80.716-122.840-146.982  0.00  0.00     0.163 HD
BRANCH   8  11
ATOM     11  CA  ALA d   1      78.600-122.002-145.810  0.00  0.00     0.069 C 
ATOM     12  H18 ALA d   1      77.898-121.162-145.702  0.00  0.00     0.078 H 
ATOM     13  H19 ALA d   1      78.153-122.910-145.380  0.00  0.00     0.078 H 
BRANCH  11  14
ATOM     14  N   ALA d   1      79.796-121.688-145.051  0.00  0.00    -0.351 N 
ATOM     15  C   ALA d   1      80.449-120.542-145.237  0.00  0.00     0.241 C 
ATOM     16  O   ALA d   1      80.173-119.746-146.139  0.00  0.00    -0.271 OA
ATOM     17  H17 ALA d   1      80.136-122.343-144.376  0.00  0.00     0.163 HD
BRANCH  15  18
ATOM     18  CA  ALA d   1      81.613-120.298-144.285  0.00  0.00     0.092 C 
ATOM     19  H9  ALA d   1      82.191-121.229-144.191  0.00  0.00     0.088 H 
BRANCH  18  20
ATOM     20  N   ALA d   1      82.481-119.280-144.857  0.00  0.00    -0.346 N 
ATOM     21  C   ALA d   1      83.793-119.465-145.006  0.00  0.00     0.248 C 
ATOM     22  O   ALA d   1      84.363-120.497-144.660  0.00  0.00    -0.271 OA
ATOM     23  H8  ALA d   1      82.080-118.412-145.148  0.00  0.00     0.163 HD
BRANCH  21  24
ATOM     24  CA  ALA d   1      84.575-118.315-145.628  0.00  0.00     0.172 C 
ATOM     25  H4  ALA d   1      84.091-117.370-145.340  0.00  0.00     0.098 H 
BRANCH  24  26
ATOM     26  N   ALA d   1      85.948-118.299-145.136  0.00  0.00    -0.067 N 
ATOM     27  H1  ALA d   1      86.448-117.532-145.559  0.00  0.00     0.275 HD
ATOM     28  H2  ALA d   1      86.401-119.167-145.375  0.00  0.00     0.275 HD
ATOM     29  H3  ALA d   1      85.945-118.186-144.134  0.00  0.00     0.275 HD
ENDBRANCH  24  26
BRANCH  24  30
ATOM     30  CB  ALA d   1      84.559-118.422-147.143  0.00  0.00    -0.042 C 
ATOM     31  H5  ALA d   1      83.518-118.433-147.499  0.00  0.00     0.030 H 
ATOM     32  H6  ALA d   1      85.061-119.351-147.450  0.00  0.00     0.030 H 
ATOM     33  H7  ALA d   1      85.086-117.559-147.577  0.00  0.00     0.030 H 
ENDBRANCH  24  30
ENDBRANCH  21  24
ENDBRANCH  18  20
BRANCH  18  34
ATOM     34  CB  ALA d   1      81.097-119.915-142.878  0.00  0.00    -0.033 C 
ATOM     35  H10 ALA d   1      80.498-120.752-142.490  0.00  0.00     0.042 H 
BRANCH  34  36
ATOM     36  CG1 ALA d   1      82.267-119.683-141.929  0.00  0.00    -0.071 C 
ATOM     37  H11 ALA d   1      81.884-119.412-140.934  0.00  0.00     0.028 H 
ATOM     38  H12 ALA d   1      82.896-118.867-142.315  0.00  0.00     0.028 H 
ATOM     39  H13 ALA d   1      82.866-120.603-141.853  0.00  0.00     0.028 H 
ENDBRANCH  34  36
BRANCH  34  40
ATOM     40  CG2 ALA d   1      80.204-118.680-142.945  0.00  0.00    -0.071 C 
ATOM     41  H14 ALA d   1      79.368-118.869-143.634  0.00  0.00     0.028 H 
ATOM     42  H15 ALA d   1      80.790-117.823-143.307  0.00  0.00     0.028 H 
ATOM     43  H16 ALA d   1      79.810-118.458-141.942  0.00  0.00     0.028 H 
ENDBRANCH  34  40
ENDBRANCH  18  34
ENDBRANCH  15  18
ENDBRANCH  11  14
ENDBRANCH   8  11
ENDBRANCH   5   7
BRANCH   5  44
ATOM     44  CB  ALA d   1      80.889-121.627-149.744  0.00  0.00    -0.030 C 
ATOM     45  H22 ALA d   1      80.083-120.879-149.761  0.00  0.00     0.043 H 
BRANCH  44  46
ATOM     46  CG1 ALA d   1      81.313-121.897-151.193  0.00  0.00    -0.063 C 
ATOM     47  H23 ALA d   1      80.652-122.671-151.610  0.00  0.00     0.033 H 
ATOM     48  H24 ALA d   1      82.350-122.264-151.189  0.00  0.00     0.033 H 
BRANCH  46  49
ATOM     49  CD1 ALA d   1      81.241-120.669-152.090  0.00  0.00    -0.076 C 
ATOM     50  H28 ALA d   1      81.558-120.939-153.108  0.00  0.00     0.027 H 
ATOM     51  H29 ALA d   1      81.906-119.887-151.695  0.00  0.00     0.027 H 
ATOM     52  H30 ALA d   1      80.207-120.294-152.116  0.00  0.00     0.027 H 
ENDBRANCH  46  49
ENDBRANCH  44  46
BRANCH  44  53
ATOM     53  CG2 ALA d   1      82.046-121.051-148.941  0.00  0.00    -0.071 C 
ATOM     54  H25 ALA d   1      81.719-120.866-147.907  0.00  0.00     0.028 H 
ATOM     55  H26 ALA d   1      82.374-120.105-149.397  0.00  0.00     0.028 H 
ATOM     56  H27 ALA d   1      82.882-121.766-148.938  0.00  0.00     0.028 H 
ENDBRANCH  44  53
ENDBRANCH   5  44
ENDBRANCH   1   5
BRANCH   3  57
ATOM     57  CA  ALA d   1      81.957-126.121-150.269  0.00  0.00     0.069 C 
ATOM     58  H32 ALA d   1      81.368-126.920-150.742  0.00  0.00     0.078 H 
ATOM     59  H33 ALA d   1      82.296-126.454-149.277  0.00  0.00     0.078 H 
BRANCH  57  60
ATOM     60  C   ALA d   1      83.171-125.836-151.129  0.00  0.00     0.236 C 
ATOM     61  O   ALA d   1      83.511-124.689-151.426  0.00  0.00    -0.272 OA
ATOM     62  N   ALA d   1      83.840-126.920-151.526  0.00  0.00    -0.347 N 
ATOM     63  H34 ALA d   1      83.508-127.819-151.241  0.00  0.00     0.163 HD
BRANCH  62  64
ATOM     64  CA  ALA d   1      85.038-126.849-152.360  0.00  0.00     0.086 C 
ATOM     65  H35 ALA d   1      84.934-126.011-153.065  0.00  0.00     0.086 H 
BRANCH  64  66
ATOM     66  C   ALA d   1      85.154-128.147-153.143  0.00  0.00     0.240 C 
ATOM     67  O   ALA d   1      85.211-129.225-152.541  0.00  0.00    -0.271 OA
ATOM     68  N   ALA d   1      85.202-128.050-154.473  0.00  0.00    -0.346 N 
ATOM     69  H39 ALA d   1      85.150-127.142-154.889  0.00  0.00     0.163 HD
BRANCH  68  70
ATOM     70  CA  ALA d   1      85.327-129.212-155.346  0.00  0.00     0.092 C 
ATOM     71  H40 ALA d   1      85.427-130.106-154.713  0.00  0.00     0.088 H 
BRANCH  70  72
ATOM     72  C   ALA d   1      86.595-129.069-156.178  0.00  0.00     0.241 C 
ATOM     73  O   ALA d   1      86.935-127.969-156.630  0.00  0.00    -0.271 OA
ATOM     74  N   ALA d   1      87.296-130.185-156.372  0.00  0.00    -0.344 N 
ATOM     75  H48 ALA d   1      86.932-131.051-156.029  0.00  0.00     0.163 HD
BRANCH  74  76
ATOM     76  CA  ALA d   1      88.583-130.185-157.071  0.00  0.00     0.100 C 
ATOM     77  H49 ALA d   1      88.712-129.205-157.553  0.00  0.00     0.090 H 
BRANCH  76  78
ATOM     78  C   ALA d   1      88.637-131.269-158.145  0.00  0.00     0.197 C 
ATOM     79  O   ALA d   1      87.839-132.210-158.136  0.00  0.00    -0.646 OA
ATOM     80  OXT ALA d   1      89.480-131.227-159.045  0.00  0.00    -0.646 OA
ENDBRANCH  76  78
BRANCH  76  81
ATOM     81  CB  ALA d   1      89.743-130.409-156.089  0.00  0.00    -0.013 C 
ATOM     82  H50 ALA d   1      90.686-130.212-156.621  0.00  0.00     0.043 H 
ATOM     83  H51 ALA d   1      89.719-131.459-155.763  0.00  0.00     0.043 H 
BRANCH  81  84
ATOM     84  CG  ALA d   1      89.704-129.535-154.861  0.00  0.00    -0.056 A 
ATOM     85  CD1 ALA d   1      90.489-128.397-154.784  0.00  0.00    -0.077 A 
ATOM     86  CE1 ALA d   1      90.473-127.599-153.650  0.00  0.00    -0.082 A 
ATOM     87  H52 ALA d   1      91.124-128.127-155.620  0.00  0.00     0.084 H 
ATOM     88  CZ  ALA d   1      89.670-127.941-152.577  0.00  0.00    -0.083 A 
ATOM     89  H54 ALA d   1      91.089-126.708-153.605  0.00  0.00     0.083 H 
ATOM     90  CE2 ALA d   1      88.894-129.080-152.636  0.00  0.00    -0.082 A 
ATOM     91  H56 ALA d   1      89.650-127.316-151.692  0.00  0.00     0.083 H 
ATOM     92  CD2 ALA d   1      88.917-129.875-153.771  0.00  0.00    -0.077 A 
ATOM     93  H55 ALA d   1      88.267-129.353-151.795  0.00  0.00     0.083 H 
ATOM     94  H53 ALA d   1      88.312-130.774-153.807  0.00  0.00     0.084 H 
ENDBRANCH  81  84
ENDBRANCH  76  81
ENDBRANCH  74  76
ENDBRANCH  70  72
BRANCH  70  95
ATOM     95  CB  ALA d   1      84.086-129.411-156.245  0.00  0.00    -0.033 C 
ATOM     96  H41 ALA d   1      84.182-130.382-156.752  0.00  0.00     0.042 H 
BRANCH  95  97
ATOM     97  CG1 ALA d   1      82.821-129.436-155.398  0.00  0.00    -0.071 C 
ATOM     98  H42 ALA d   1      81.946-129.578-156.050  0.00  0.00     0.028 H 
ATOM     99  H43 ALA d   1      82.724-128.484-154.856  0.00  0.00     0.028 H 
ATOM    100  H44 ALA d   1      82.879-130.264-154.677  0.00  0.00     0.028 H 
ENDBRANCH  95  97
BRANCH  95 101
ATOM    101  CG2 ALA d   1      83.995-128.333-157.307  0.00  0.00    -0.071 C 
ATOM    102  H45 ALA d   1      84.917-128.331-157.907  0.00  0.00     0.028 H 
ATOM    103  H46 ALA d   1      83.870-127.353-156.824  0.00  0.00     0.028 H 
ATOM    104  H47 ALA d   1      83.133-128.533-157.960  0.00  0.00     0.028 H 
ENDBRANCH  95 101
ENDBRANCH  70  95
ENDBRANCH  68  70
ENDBRANCH  64  66
BRANCH  64 105
ATOM    105  CB  ALA d   1      86.292-126.619-151.513  0.00  0.00    -0.049 C 
ATOM    106  H36 ALA d   1      87.174-126.571-152.169  0.00  0.00     0.030 H 
ATOM    107  H37 ALA d   1      86.410-127.448-150.800  0.00  0.00     0.030 H 
ATOM    108  H38 ALA d   1      86.193-125.673-150.961  0.00  0.00     0.030 H 
ENDBRANCH  64 105
ENDBRANCH  62  64
ENDBRANCH  57  60
ENDBRANCH   3  57
TORSDOF 30
