REMARK  30 active torsions:
REMARK  status: ('A' for Active; 'I' for Inactive)
REMARK    1  A    between atoms: N_1  and  CA_2 
REMARK    2  A    between atoms: CA_2  and  C_3 
REMARK    3  A    between atoms: CA_2  and  CB_5 
REMARK       I    between atoms: C_3  and  N_6 
REMARK    4  A    between atoms: N_6  and  CA_7 
REMARK    5  A    between atoms: CA_7  and  C_8 
REMARK    6  A    between atoms: CA_7  and  CB_10 
REMARK       I    between atoms: C_8  and  N_13 
REMARK    7  A    between atoms: CB_10  and  CG1_11 
REMARK    8  A    between atoms: CB_10  and  CG2_12 
REMARK    9  A    between atoms: N_13  and  CA_14 
REMARK   10  A    between atoms: CA_14  and  C_15 
REMARK       I    between atoms: C_15  and  N_17 
REMARK   11  A    between atoms: N_17  and  CA_18 
REMARK   12  A    between atoms: CA_18  and  C_19 
REMARK   13  A    between atoms: CA_18  and  CB_21 
REMARK       I    between atoms: C_19  and  N_25 
REMARK   14  A    between atoms: CB_21  and  CG1_22 
REMARK   15  A    between atoms: CB_21  and  CG2_23 
REMARK   16  A    between atoms: CG1_22  and  CD1_24 
REMARK   17  A    between atoms: N_25  and  CA_26 
REMARK   18  A    between atoms: CA_26  and  C_27 
REMARK       I    between atoms: C_27  and  N_29 
REMARK   19  A    between atoms: N_29  and  CA_30 
REMARK   20  A    between atoms: CA_30  and  C_31 
REMARK   21  A    between atoms: CA_30  and  CB_33 
REMARK       I    between atoms: C_31  and  N_34 
REMARK   22  A    between atoms: N_34  and  CA_35 
REMARK   23  A    between atoms: CA_35  and  C_36 
REMARK   24  A    between atoms: CA_35  and  CB_38 
REMARK       I    between atoms: C_36  and  N_41 
REMARK   25  A    between atoms: CB_38  and  CG1_39 
REMARK   26  A    between atoms: CB_38  and  CG2_40 
REMARK   27  A    between atoms: N_41  and  CA_42 
REMARK   28  A    between atoms: CA_42  and  C_43 
REMARK   29  A    between atoms: CA_42  and  CB_45 
REMARK   30  A    between atoms: CB_45  and  CG_46 
ROOT
ATOM      1  C   ALA d   1      54.377 155.605 197.284  0.00  0.00     0.241 C 
ATOM      2  O   ALA d   1      54.477 154.426 197.630  0.00  0.00    -0.271 OA
ATOM      3  N   ALA d   1      55.384 156.279 196.738  0.00  0.00    -0.351 N 
ATOM      4  H31 ALA d   1      55.254 157.245 196.513  0.00  0.00     0.163 HD
ENDROOT
BRANCH   1   5
ATOM      5  CA  ALA d   1      53.067 156.357 197.464  0.00  0.00     0.092 C 
ATOM      6  H21 ALA d   1      53.105 157.271 196.853  0.00  0.00     0.088 H 
BRANCH   5   7
ATOM      7  N   ALA d   1      51.982 155.515 196.979  0.00  0.00    -0.346 N 
ATOM      8  C   ALA d   1      50.904 156.045 196.416  0.00  0.00     0.236 C 
ATOM      9  O   ALA d   1      50.770 157.266 196.263  0.00  0.00    -0.272 OA
ATOM     10  H20 ALA d   1      52.051 154.522 197.072  0.00  0.00     0.163 HD
BRANCH   8  11
ATOM     11  CA  ALA d   1      49.814 155.083 195.984  0.00  0.00     0.069 C 
ATOM     12  H18 ALA d   1      48.950 155.676 195.649  0.00  0.00     0.078 H 
ATOM     13  H19 ALA d   1      50.199 154.488 195.142  0.00  0.00     0.078 H 
BRANCH  11  14
ATOM     14  N   ALA d   1      49.357 154.163 197.013  0.00  0.00    -0.351 N 
ATOM     15  C   ALA d   1      48.850 154.622 198.154  0.00  0.00     0.241 C 
ATOM     16  O   ALA d   1      48.833 155.826 198.440  0.00  0.00    -0.271 OA
ATOM     17  H17 ALA d   1      49.424 153.177 196.862  0.00  0.00     0.163 HD
BRANCH  15  18
ATOM     18  CA  ALA d   1      48.285 153.573 199.108  0.00  0.00     0.092 C 
ATOM     19  H9  ALA d   1      48.914 152.672 199.057  0.00  0.00     0.088 H 
BRANCH  18  20
ATOM     20  N   ALA d   1      48.335 154.107 200.461  0.00  0.00    -0.346 N 
ATOM     21  C   ALA d   1      49.143 153.603 201.381  0.00  0.00     0.248 C 
ATOM     22  O   ALA d   1      49.892 152.661 201.157  0.00  0.00    -0.271 OA
ATOM     23  H8  ALA d   1      47.743 154.876 200.702  0.00  0.00     0.163 HD
BRANCH  21  24
ATOM     24  CA  ALA d   1      49.099 154.252 202.753  0.00  0.00     0.172 C 
ATOM     25  H4  ALA d   1      48.135 154.772 202.857  0.00  0.00     0.098 H 
BRANCH  24  26
ATOM     26  N   ALA d   1      49.204 153.271 203.833  0.00  0.00    -0.067 N 
ATOM     27  H1  ALA d   1      49.170 153.745 204.722  0.00  0.00     0.275 HD
ATOM     28  H2  ALA d   1      50.076 152.773 203.751  0.00  0.00     0.275 HD
ATOM     29  H3  ALA d   1      48.438 152.619 203.771  0.00  0.00     0.275 HD
ENDBRANCH  24  26
BRANCH  24  30
ATOM     30  CB  ALA d   1      50.205 155.265 202.862  0.00  0.00    -0.042 C 
ATOM     31  H5  ALA d   1      50.114 155.996 202.045  0.00  0.00     0.030 H 
ATOM     32  H6  ALA d   1      51.177 154.755 202.792  0.00  0.00     0.030 H 
ATOM     33  H7  ALA d   1      50.132 155.785 203.829  0.00  0.00     0.030 H 
ENDBRANCH  24  30
ENDBRANCH  21  24
ENDBRANCH  18  20
BRANCH  18  34
ATOM     34  CB  ALA d   1      46.844 153.181 198.723  0.00  0.00    -0.033 C 
ATOM     35  H10 ALA d   1      46.337 152.856 199.643  0.00  0.00     0.042 H 
BRANCH  34  36
ATOM     36  CG1 ALA d   1      46.061 154.380 198.187  0.00  0.00    -0.071 C 
ATOM     37  H11 ALA d   1      45.041 154.064 197.923  0.00  0.00     0.028 H 
ATOM     38  H12 ALA d   1      46.564 154.777 197.293  0.00  0.00     0.028 H 
ATOM     39  H13 ALA d   1      46.014 155.162 198.959  0.00  0.00     0.028 H 
ENDBRANCH  34  36
BRANCH  34  40
ATOM     40  CG2 ALA d   1      46.842 152.020 197.794  0.00  0.00    -0.071 C 
ATOM     41  H14 ALA d   1      47.419 151.195 198.237  0.00  0.00     0.028 H 
ATOM     42  H15 ALA d   1      47.298 152.315 196.838  0.00  0.00     0.028 H 
ATOM     43  H16 ALA d   1      45.807 151.691 197.620  0.00  0.00     0.028 H 
ENDBRANCH  34  40
ENDBRANCH  18  34
ENDBRANCH  15  18
ENDBRANCH  11  14
ENDBRANCH   8  11
ENDBRANCH   5   7
BRANCH   5  44
ATOM     44  CB  ALA d   1      52.819 156.777 198.931  0.00  0.00    -0.030 C 
ATOM     45  H22 ALA d   1      51.912 157.399 198.936  0.00  0.00     0.043 H 
BRANCH  44  46
ATOM     46  CG1 ALA d   1      53.952 157.642 199.473  0.00  0.00    -0.063 C 
ATOM     47  H23 ALA d   1      54.289 158.325 198.679  0.00  0.00     0.033 H 
ATOM     48  H24 ALA d   1      54.785 156.989 199.773  0.00  0.00     0.033 H 
BRANCH  46  49
ATOM     49  CD1 ALA d   1      53.513 158.464 200.676  0.00  0.00    -0.076 C 
ATOM     50  H28 ALA d   1      54.358 159.071 201.034  0.00  0.00     0.027 H 
ATOM     51  H29 ALA d   1      53.180 157.790 201.479  0.00  0.00     0.027 H 
ATOM     52  H30 ALA d   1      52.684 159.125 200.385  0.00  0.00     0.027 H 
ENDBRANCH  46  49
ENDBRANCH  44  46
BRANCH  44  53
ATOM     53  CG2 ALA d   1      52.538 155.578 199.832  0.00  0.00    -0.071 C 
ATOM     54  H25 ALA d   1      51.717 154.983 199.405  0.00  0.00     0.028 H 
ATOM     55  H26 ALA d   1      52.253 155.931 200.834  0.00  0.00     0.028 H 
ATOM     56  H27 ALA d   1      53.442 154.955 199.906  0.00  0.00     0.028 H 
ENDBRANCH  44  53
ENDBRANCH   5  44
ENDBRANCH   1   5
BRANCH   3  57
ATOM     57  CA  ALA d   1      56.662 155.661 196.458  0.00  0.00     0.069 C 
ATOM     58  H32 ALA d   1      57.123 156.177 195.603  0.00  0.00     0.078 H 
ATOM     59  H33 ALA d   1      56.493 154.605 196.201  0.00  0.00     0.078 H 
BRANCH  57  60
ATOM     60  C   ALA d   1      57.615 155.727 197.634  0.00  0.00     0.236 C 
ATOM     61  O   ALA d   1      57.214 155.862 198.792  0.00  0.00    -0.272 OA
ATOM     62  N   ALA d   1      58.906 155.641 197.322  0.00  0.00    -0.347 N 
ATOM     63  H34 ALA d   1      59.170 155.535 196.363  0.00  0.00     0.163 HD
BRANCH  62  64
ATOM     64  CA  ALA d   1      59.944 155.697 198.342  0.00  0.00     0.086 C 
ATOM     65  H35 ALA d   1      59.585 156.315 199.178  0.00  0.00     0.086 H 
BRANCH  64  66
ATOM     66  C   ALA d   1      61.176 156.344 197.737  0.00  0.00     0.240 C 
ATOM     67  O   ALA d   1      61.570 155.992 196.624  0.00  0.00    -0.271 OA
ATOM     68  N   ALA d   1      61.772 157.287 198.464  0.00  0.00    -0.346 N 
ATOM     69  H39 ALA d   1      61.342 157.586 199.316  0.00  0.00     0.163 HD
BRANCH  68  70
ATOM     70  CA  ALA d   1      63.028 157.896 198.059  0.00  0.00     0.092 C 
ATOM     71  H40 ALA d   1      63.342 157.441 197.108  0.00  0.00     0.088 H 
BRANCH  70  72
ATOM     72  C   ALA d   1      64.075 157.595 199.113  0.00  0.00     0.241 C 
ATOM     73  O   ALA d   1      63.774 157.510 200.310  0.00  0.00    -0.271 OA
ATOM     74  N   ALA d   1      65.305 157.420 198.654  0.00  0.00    -0.344 N 
ATOM     75  H48 ALA d   1      65.473 157.539 197.675  0.00  0.00     0.163 HD
BRANCH  74  76
ATOM     76  CA  ALA d   1      66.416 157.063 199.511  0.00  0.00     0.100 C 
ATOM     77  H49 ALA d   1      66.091 157.132 200.560  0.00  0.00     0.090 H 
BRANCH  76  78
ATOM     78  C   ALA d   1      67.559 158.041 199.286  0.00  0.00     0.197 C 
ATOM     79  O   ALA d   1      68.243 158.439 200.227  0.00  0.00    -0.646 OA
ATOM     80  OXT ALA d   1      67.823 158.454 198.158  0.00  0.00    -0.646 OA
ENDBRANCH  76  78
BRANCH  76  81
ATOM     81  CB  ALA d   1      66.870 155.631 199.236  0.00  0.00    -0.013 C 
ATOM     82  H50 ALA d   1      67.623 155.356 199.989  0.00  0.00     0.043 H 
ATOM     83  H51 ALA d   1      67.324 155.598 198.235  0.00  0.00     0.043 H 
BRANCH  81  84
ATOM     84  CG  ALA d   1      65.761 154.620 199.285  0.00  0.00    -0.056 A 
ATOM     85  CD1 ALA d   1      65.547 153.872 200.430  0.00  0.00    -0.077 A 
ATOM     86  CE1 ALA d   1      64.540 152.938 200.482  0.00  0.00    -0.082 A 
ATOM     87  H52 ALA d   1      66.181 154.025 201.296  0.00  0.00     0.084 H 
ATOM     88  CZ  ALA d   1      63.718 152.741 199.393  0.00  0.00    -0.083 A 
ATOM     89  H54 ALA d   1      64.392 152.354 201.383  0.00  0.00     0.083 H 
ATOM     90  CE2 ALA d   1      63.918 153.472 198.241  0.00  0.00    -0.082 A 
ATOM     91  H56 ALA d   1      62.916 152.013 199.442  0.00  0.00     0.083 H 
ATOM     92  CD2 ALA d   1      64.938 154.409 198.190  0.00  0.00    -0.077 A 
ATOM     93  H55 ALA d   1      63.280 153.315 197.379  0.00  0.00     0.083 H 
ATOM     94  H53 ALA d   1      65.094 154.983 197.284  0.00  0.00     0.084 H 
ENDBRANCH  81  84
ENDBRANCH  76  81
ENDBRANCH  74  76
ENDBRANCH  70  72
BRANCH  70  95
ATOM     95  CB  ALA d   1      62.904 159.417 197.842  0.00  0.00    -0.033 C 
ATOM     96  H41 ALA d   1      63.899 159.821 197.603  0.00  0.00     0.042 H 
BRANCH  95  97
ATOM     97  CG1 ALA d   1      61.984 159.698 196.694  0.00  0.00    -0.071 C 
ATOM     98  H42 ALA d   1      61.902 160.785 196.547  0.00  0.00     0.028 H 
ATOM     99  H43 ALA d   1      60.989 159.281 196.911  0.00  0.00     0.028 H 
ATOM    100  H44 ALA d   1      62.385 159.234 195.781  0.00  0.00     0.028 H 
ENDBRANCH  95  97
BRANCH  95 101
ATOM    101  CG2 ALA d   1      62.400 160.089 199.101  0.00  0.00    -0.071 C 
ATOM    102  H45 ALA d   1      63.087 159.872 199.932  0.00  0.00     0.028 H 
ATOM    103  H46 ALA d   1      61.398 159.707 199.344  0.00  0.00     0.028 H 
ATOM    104  H47 ALA d   1      62.349 161.176 198.941  0.00  0.00     0.028 H 
ENDBRANCH  95 101
ENDBRANCH  70  95
ENDBRANCH  68  70
ENDBRANCH  64  66
BRANCH  64 105
ATOM    105  CB  ALA d   1      60.296 154.306 198.883  0.00  0.00    -0.049 C 
ATOM    106  H36 ALA d   1      61.081 154.398 199.648  0.00  0.00     0.030 H 
ATOM    107  H37 ALA d   1      60.659 153.673 198.060  0.00  0.00     0.030 H 
ATOM    108  H38 ALA d   1      59.401 153.849 199.330  0.00  0.00     0.030 H 
ENDBRANCH  64 105
ENDBRANCH  62  64
ENDBRANCH  57  60
ENDBRANCH   3  57
TORSDOF 30
