REMARK  24 active torsions:
REMARK  status: ('A' for Active; 'I' for Inactive)
REMARK    1  A    between atoms: O2_18  and  C1_1 
REMARK    2  A    between atoms: C2_2  and  O2_7 
REMARK    3  A    between atoms: C3_3  and  O3_8 
REMARK    4  A    between atoms: C4_4  and  O4_9 
REMARK    5  A    between atoms: C5_5  and  C6_6 
REMARK    6  A    between atoms: C6_6  and  O6_11 
REMARK    7  A    between atoms: O2_29  and  C1_12 
REMARK    8  A    between atoms: C2_13  and  O2_18 
REMARK    9  A    between atoms: C3_14  and  O3_19 
REMARK   10  A    between atoms: C4_15  and  O4_20 
REMARK   11  A    between atoms: C5_16  and  C6_17 
REMARK   12  A    between atoms: C6_17  and  O6_22 
REMARK   13  A    between atoms: O3_42  and  C1_23 
REMARK   14  A    between atoms: C2_24  and  O2_29 
REMARK   15  A    between atoms: C3_25  and  O3_30 
REMARK   16  A    between atoms: C4_26  and  O4_31 
REMARK   17  A    between atoms: C5_27  and  C6_28 
REMARK   18  A    between atoms: C6_28  and  O6_33 
REMARK   19  A    between atoms: C1_34  and  O1_40 
REMARK   20  A    between atoms: C2_35  and  O2_41 
REMARK   21  A    between atoms: C3_36  and  O3_42 
REMARK   22  A    between atoms: C4_37  and  O4_43 
REMARK   23  A    between atoms: C5_38  and  C6_39 
REMARK   24  A    between atoms: C6_39  and  O6_45 
ROOT
ATOM      1  O2  MAN d   1      -0.238  -9.216  15.061  0.00  0.00    -0.346 OA
ENDROOT
BRANCH   1   2
ATOM      2  C1  MAN d   1      -1.150 -10.332  14.842  0.00  0.00     0.160 C 
ATOM      3  C2  MAN d   1      -1.810 -10.719  16.215  0.00  0.00     0.116 C 
ATOM      4  C3  MAN d   1      -0.716 -11.168  17.123  0.00  0.00     0.092 C 
ATOM      5  H13 MAN d   1      -2.360  -9.873  16.653  0.00  0.00     0.095 H 
ATOM      6  C4  MAN d   1      -0.038 -12.422  16.463  0.00  0.00     0.090 C 
ATOM      7  H14 MAN d   1       0.021 -10.356  17.210  0.00  0.00     0.091 H 
ATOM      8  C5  MAN d   1       0.513 -12.055  15.084  0.00  0.00     0.089 C 
ATOM      9  H15 MAN d   1      -0.780 -13.229  16.375  0.00  0.00     0.091 H 
ATOM     10  O5  MAN d   1      -0.498 -11.438  14.284  0.00  0.00    -0.348 OA
ATOM     11  H16 MAN d   1       1.348 -11.352  15.220  0.00  0.00     0.090 H 
ATOM     12  H12 MAN d   1      -1.938 -10.009  14.146  0.00  0.00     0.133 H 
BRANCH   3  13
ATOM     13  O2  MAN d   1      -2.714 -11.848  15.929  0.00  0.00    -0.346 OA
BRANCH  13  14
ATOM     14  C1  MAN d   1      -4.045 -11.298  16.005  0.00  0.00     0.159 C 
ATOM     15  C2  MAN d   1      -4.878 -12.531  16.001  0.00  0.00     0.110 C 
ATOM     16  C3  MAN d   1      -4.816 -13.246  14.592  0.00  0.00     0.092 C 
ATOM     17  H2  MAN d   1      -4.565 -13.216  16.803  0.00  0.00     0.094 H 
ATOM     18  C4  MAN d   1      -5.233 -12.284  13.528  0.00  0.00     0.090 C 
ATOM     19  H3  MAN d   1      -3.788 -13.586  14.400  0.00  0.00     0.091 H 
ATOM     20  C5  MAN d   1      -4.314 -11.032  13.579  0.00  0.00     0.089 C 
ATOM     21  H4  MAN d   1      -6.280 -11.996  13.704  0.00  0.00     0.091 H 
ATOM     22  O5  MAN d   1      -4.357 -10.391  14.908  0.00  0.00    -0.348 OA
ATOM     23  H5  MAN d   1      -3.286 -11.375  13.390  0.00  0.00     0.090 H 
ATOM     24  H1  MAN d   1      -4.178 -10.750  16.949  0.00  0.00     0.133 H 
BRANCH  15  25
ATOM     25  O2  MAN d   1      -6.182 -12.121  16.160  0.00  0.00    -0.388 OA
ATOM     26  H8  MAN d   1      -6.756 -12.877  16.132  0.00  0.00     0.210 HD
ENDBRANCH  15  25
BRANCH  16  27
ATOM     27  O3  MAN d   1      -5.693 -14.359  14.574  0.00  0.00    -0.390 OA
ATOM     28  H9  MAN d   1      -5.650 -14.781  13.724  0.00  0.00     0.210 HD
ENDBRANCH  16  27
BRANCH  18  29
ATOM     29  O4  MAN d   1      -5.089 -12.845  12.103  0.00  0.00    -0.390 OA
ATOM     30  H10 MAN d   1      -4.181 -13.075  11.945  0.00  0.00     0.210 HD
ENDBRANCH  18  29
BRANCH  20  31
ATOM     31  C6  MAN d   1      -4.656  -9.954  12.528  0.00  0.00     0.043 C 
ATOM     32  H6  MAN d   1      -4.726 -10.416  11.532  0.00  0.00     0.078 H 
ATOM     33  H7  MAN d   1      -3.872  -9.182  12.520  0.00  0.00     0.078 H 
BRANCH  31  34
ATOM     34  O6  MAN d   1      -5.949  -9.345  12.885  0.00  0.00    -0.398 OA
ATOM     35  H11 MAN d   1      -5.884  -8.949  13.746  0.00  0.00     0.209 HD
ENDBRANCH  31  34
ENDBRANCH  20  31
ENDBRANCH  13  14
ENDBRANCH   3  13
BRANCH   4  36
ATOM     36  O3  MAN d   1      -1.159 -11.513  18.440  0.00  0.00    -0.390 OA
ATOM     37  H19 MAN d   1      -1.786 -12.224  18.386  0.00  0.00     0.210 HD
ENDBRANCH   4  36
BRANCH   6  38
ATOM     38  O4  MAN d   1       1.061 -12.863  17.207  0.00  0.00    -0.390 OA
ATOM     39  H20 MAN d   1       1.703 -12.165  17.266  0.00  0.00     0.210 HD
ENDBRANCH   6  38
BRANCH   8  40
ATOM     40  C6  MAN d   1       1.042 -13.350  14.282  0.00  0.00     0.043 C 
ATOM     41  H17 MAN d   1       0.296 -14.157  14.332  0.00  0.00     0.078 H 
ATOM     42  H18 MAN d   1       1.991 -13.700  14.714  0.00  0.00     0.078 H 
BRANCH  40  43
ATOM     43  O6  MAN d   1       1.246 -12.933  12.876  0.00  0.00    -0.398 OA
ATOM     44  H21 MAN d   1       0.422 -12.627  12.515  0.00  0.00     0.209 HD
ENDBRANCH  40  43
ENDBRANCH   8  40
ENDBRANCH   1   2
BRANCH   1  45
ATOM     45  C2  MAN d   1       0.238  -8.763  13.785  0.00  0.00     0.116 C 
ATOM     46  C1  MAN d   1       1.770  -8.572  13.814  0.00  0.00     0.159 C 
ATOM     47  O5  MAN d   1       2.129  -7.714  14.902  0.00  0.00    -0.348 OA
ATOM     48  H22 MAN d   1       2.264  -9.544  13.958  0.00  0.00     0.133 H 
ATOM     49  C5  MAN d   1       1.678  -6.331  14.683  0.00  0.00     0.089 C 
ATOM     50  C4  MAN d   1       0.093  -6.336  14.701  0.00  0.00     0.090 C 
ATOM     51  H26 MAN d   1       2.034  -5.982  13.703  0.00  0.00     0.090 H 
ATOM     52  C3  MAN d   1      -0.424  -7.365  13.607  0.00  0.00     0.092 C 
ATOM     53  H25 MAN d   1      -0.274  -6.625  15.697  0.00  0.00     0.091 H 
ATOM     54  H24 MAN d   1      -0.102  -6.986  12.626  0.00  0.00     0.091 H 
ATOM     55  H23 MAN d   1      -0.049  -9.457  12.981  0.00  0.00     0.095 H 
BRANCH  46  56
ATOM     56  O3  MAN d   1       2.142  -8.039  12.524  0.00  0.00    -0.348 OA
BRANCH  56  57
ATOM     57  C3  MAN d   1       3.127  -8.570  11.531  0.00  0.00     0.098 C 
ATOM     58  C2  MAN d   1       3.507 -10.052  11.468  0.00  0.00     0.110 C 
ATOM     59  C1  MAN d   1       4.911 -10.240  10.670  0.00  0.00     0.156 C 
ATOM     60  H33 MAN d   1       2.724 -10.613  10.937  0.00  0.00     0.094 H 
ATOM     61  O5  MAN d   1       5.805  -9.179  10.877  0.00  0.00    -0.349 OA
ATOM     62  H32 MAN d   1       5.392 -11.117  11.127  0.00  0.00     0.133 H 
ATOM     63  C5  MAN d   1       5.430  -7.917  10.596  0.00  0.00     0.089 C 
ATOM     64  C4  MAN d   1       4.250  -7.564  11.522  0.00  0.00     0.090 C 
ATOM     65  H36 MAN d   1       5.234  -7.747   9.527  0.00  0.00     0.090 H 
ATOM     66  H35 MAN d   1       4.623  -7.412  12.546  0.00  0.00     0.091 H 
ATOM     67  H34 MAN d   1       2.622  -8.434  10.563  0.00  0.00     0.091 H 
BRANCH  58  68
ATOM     68  O2  MAN d   1       3.583 -10.496  12.766  0.00  0.00    -0.388 OA
ATOM     69  H40 MAN d   1       2.740 -10.380  13.189  0.00  0.00     0.210 HD
ENDBRANCH  58  68
BRANCH  59  70
ATOM     70  O1  MAN d   1       4.714 -10.611   9.187  0.00  0.00    -0.369 OA
ATOM     71  H39 MAN d   1       4.100 -11.333   9.121  0.00  0.00     0.212 HD
ENDBRANCH  59  70
BRANCH  63  72
ATOM     72  C6  MAN d   1       6.490  -7.068  11.176  0.00  0.00     0.043 C 
ATOM     73  H37 MAN d   1       6.201  -6.008  11.113  0.00  0.00     0.078 H 
ATOM     74  H38 MAN d   1       7.435  -7.223  10.636  0.00  0.00     0.078 H 
BRANCH  72  75
ATOM     75  O6  MAN d   1       6.641  -7.461  12.567  0.00  0.00    -0.398 OA
ATOM     76  H42 MAN d   1       6.885  -8.378  12.611  0.00  0.00     0.209 HD
ENDBRANCH  72  75
ENDBRANCH  63  72
BRANCH  64  77
ATOM     77  O4  MAN d   1       3.677  -6.413  11.016  0.00  0.00    -0.390 OA
ATOM     78  H41 MAN d   1       2.941  -6.160  11.562  0.00  0.00     0.210 HD
ENDBRANCH  64  77
ENDBRANCH  56  57
ENDBRANCH  46  56
BRANCH  49  79
ATOM     79  C6  MAN d   1       2.238  -5.357  15.809  0.00  0.00     0.043 C 
ATOM     80  H27 MAN d   1       1.877  -5.688  16.794  0.00  0.00     0.078 H 
ATOM     81  H28 MAN d   1       1.889  -4.332  15.616  0.00  0.00     0.078 H 
BRANCH  79  82
ATOM     82  O6  MAN d   1       3.624  -5.386  15.789  0.00  0.00    -0.398 OA
ATOM     83  H31 MAN d   1       3.924  -6.272  15.955  0.00  0.00     0.209 HD
ENDBRANCH  79  82
ENDBRANCH  49  79
BRANCH  50  84
ATOM     84  O4  MAN d   1      -0.378  -5.024  14.363  0.00  0.00    -0.390 OA
ATOM     85  H30 MAN d   1      -0.066  -4.790  13.497  0.00  0.00     0.210 HD
ENDBRANCH  50  84
BRANCH  52  86
ATOM     86  O3  MAN d   1      -1.871  -7.410  13.582  0.00  0.00    -0.390 OA
ATOM     87  H29 MAN d   1      -2.193  -7.682  14.434  0.00  0.00     0.210 HD
ENDBRANCH  52  86
ENDBRANCH   1  45
TORSDOF 24
