REMARK  24 active torsions:
REMARK  status: ('A' for Active; 'I' for Inactive)
REMARK    1  A    between atoms: C1_1  and  O1_7 
REMARK    2  A    between atoms: C2_2  and  O2_8 
REMARK    3  A    between atoms: C3_3  and  O3_9 
REMARK    4  A    between atoms: C4_4  and  O4_10 
REMARK    5  A    between atoms: C5_5  and  C6_6 
REMARK    6  A    between atoms: C6_6  and  O6_12 
REMARK    7  A    between atoms: O3_9  and  C1_13 
REMARK    8  A    between atoms: C2_14  and  O2_19 
REMARK    9  A    between atoms: C3_15  and  O3_20 
REMARK   10  A    between atoms: C4_16  and  O4_21 
REMARK   11  A    between atoms: C5_17  and  C6_18 
REMARK   12  A    between atoms: C6_18  and  O6_23 
REMARK   13  A    between atoms: O2_19  and  C1_24 
REMARK   14  A    between atoms: C2_25  and  O2_30 
REMARK   15  A    between atoms: C3_26  and  O3_31 
REMARK   16  A    between atoms: C4_27  and  O4_32 
REMARK   17  A    between atoms: C5_28  and  C6_29 
REMARK   18  A    between atoms: C6_29  and  O6_34 
REMARK   19  A    between atoms: O2_30  and  C1_35 
REMARK   20  A    between atoms: C2_36  and  O2_41 
REMARK   21  A    between atoms: C3_37  and  O3_42 
REMARK   22  A    between atoms: C4_38  and  O4_43 
REMARK   23  A    between atoms: C5_39  and  C6_40 
REMARK   24  A    between atoms: C6_40  and  O6_45 
ROOT
ATOM      1  O2  MAN d   1      15.345 -13.613 -61.100  0.00  0.00    -0.346 OA
ENDROOT
BRANCH   1   2
ATOM      2  C2  MAN d   1      16.427 -13.345 -61.993  0.00  0.00     0.116 C 
ATOM      3  C1  MAN d   1      16.537 -14.483 -63.048  0.00  0.00     0.159 C 
ATOM      4  O5  MAN d   1      16.853 -15.724 -62.420  0.00  0.00    -0.348 OA
ATOM      5  H12 BMA d   1      15.568 -14.591 -63.557  0.00  0.00     0.133 H 
ATOM      6  C5  MAN d   1      18.076 -15.744 -61.650  0.00  0.00     0.089 C 
ATOM      7  C4  MAN d   1      17.998 -14.695 -60.526  0.00  0.00     0.090 C 
ATOM      8  H16 BMA d   1      18.925 -15.491 -62.302  0.00  0.00     0.090 H 
ATOM      9  C3  MAN d   1      17.689 -13.308 -61.117  0.00  0.00     0.092 C 
ATOM     10  H15 BMA d   1      17.206 -14.974 -59.815  0.00  0.00     0.091 H 
ATOM     11  H14 BMA d   1      18.530 -13.024 -61.766  0.00  0.00     0.091 H 
ATOM     12  H13 BMA d   1      16.281 -12.380 -62.501  0.00  0.00     0.095 H 
BRANCH   3  13
ATOM     13  O3  BMA d   1      17.540 -14.113 -64.030  0.00  0.00    -0.348 OA
BRANCH  13  14
ATOM     14  C3  BMA d   1      17.462 -15.001 -65.151  0.00  0.00     0.098 C 
ATOM     15  C2  BMA d   1      18.730 -15.856 -65.303  0.00  0.00     0.110 C 
ATOM     16  C1  BMA d   1      18.587 -16.734 -66.555  0.00  0.00     0.156 C 
ATOM     17  H2  BMA d   1      18.880 -16.490 -64.417  0.00  0.00     0.094 H 
ATOM     18  O5  BMA d   1      18.305 -15.955 -67.700  0.00  0.00    -0.349 OA
ATOM     19  H1  BMA d   1      17.789 -17.474 -66.399  0.00  0.00     0.133 H 
ATOM     20  C5  BMA d   1      17.073 -15.213 -67.623  0.00  0.00     0.089 C 
ATOM     21  C4  BMA d   1      17.156 -14.226 -66.442  0.00  0.00     0.090 C 
ATOM     22  H5  BMA d   1      16.243 -15.909 -67.431  0.00  0.00     0.090 H 
ATOM     23  H4  BMA d   1      17.959 -13.498 -66.628  0.00  0.00     0.091 H 
ATOM     24  H3  BMA d   1      16.623 -15.688 -64.969  0.00  0.00     0.091 H 
BRANCH  15  25
ATOM     25  O2  BMA d   1      19.813 -14.949 -65.448  0.00  0.00    -0.388 OA
ATOM     26  H9  BMA d   1      19.866 -14.396 -64.678  0.00  0.00     0.210 HD
ENDBRANCH  15  25
BRANCH  16  27
ATOM     27  O1  BMA d   1      19.821 -17.377 -66.787  0.00  0.00    -0.369 OA
ATOM     28  H8  BMA d   1      20.497 -16.723 -66.924  0.00  0.00     0.212 HD
ENDBRANCH  16  27
BRANCH  20  29
ATOM     29  C6  BMA d   1      16.828 -14.536 -68.975  0.00  0.00     0.043 C 
ATOM     30  H6  BMA d   1      15.788 -14.182 -69.025  0.00  0.00     0.078 H 
ATOM     31  H7  BMA d   1      17.009 -15.258 -69.785  0.00  0.00     0.078 H 
BRANCH  29  32
ATOM     32  O6  BMA d   1      17.717 -13.425 -69.119  0.00  0.00    -0.398 OA
ATOM     33  H11 BMA d   1      17.565 -13.006 -69.958  0.00  0.00     0.209 HD
ENDBRANCH  29  32
ENDBRANCH  20  29
BRANCH  21  34
ATOM     34  O4  BMA d   1      15.917 -13.538 -66.318  0.00  0.00    -0.390 OA
ATOM     35  H10 BMA d   1      15.966 -12.929 -65.591  0.00  0.00     0.210 HD
ENDBRANCH  21  34
ENDBRANCH  13  14
ENDBRANCH   3  13
BRANCH   6  36
ATOM     36  C6  MAN d   1      18.260 -17.158 -61.133  0.00  0.00     0.043 C 
ATOM     37  H17 BMA d   1      17.419 -17.428 -60.478  0.00  0.00     0.078 H 
ATOM     38  H18 BMA d   1      19.202 -17.229 -60.569  0.00  0.00     0.078 H 
BRANCH  36  39
ATOM     39  O6  MAN d   1      18.301 -18.040 -62.257  0.00  0.00    -0.398 OA
ATOM     40  H21 BMA d   1      17.487 -17.971 -62.742  0.00  0.00     0.209 HD
ENDBRANCH  36  39
ENDBRANCH   6  36
BRANCH   7  41
ATOM     41  O4  MAN d   1      19.241 -14.658 -59.862  0.00  0.00    -0.390 OA
ATOM     42  H20 BMA d   1      19.207 -14.014 -59.165  0.00  0.00     0.210 HD
ENDBRANCH   7  41
BRANCH   9  43
ATOM     43  O3  MAN d   1      17.602 -12.335 -60.072  0.00  0.00    -0.390 OA
ATOM     44  H19 BMA d   1      16.908 -12.579 -59.470  0.00  0.00     0.210 HD
ENDBRANCH   9  43
ENDBRANCH   1   2
BRANCH   1  45
ATOM     45  C1  MAN d   1      14.448 -12.484 -61.075  0.00  0.00     0.160 C 
ATOM     46  C2  MAN d   1      13.417 -12.719 -59.936  0.00  0.00     0.116 C 
ATOM     47  C3  MAN d   1      12.445 -13.823 -60.342  0.00  0.00     0.092 C 
ATOM     48  H23 BMA d   1      13.940 -12.980 -59.004  0.00  0.00     0.095 H 
ATOM     49  C4  MAN d   1      11.773 -13.487 -61.677  0.00  0.00     0.090 C 
ATOM     50  H24 BMA d   1      13.017 -14.756 -60.458  0.00  0.00     0.091 H 
ATOM     51  C5  MAN d   1      12.818 -13.275 -62.762  0.00  0.00     0.089 C 
ATOM     52  H25 BMA d   1      11.177 -12.570 -61.560  0.00  0.00     0.091 H 
ATOM     53  O5  MAN d   1      13.795 -12.280 -62.344  0.00  0.00    -0.348 OA
ATOM     54  H26 BMA d   1      13.328 -14.231 -62.954  0.00  0.00     0.090 H 
ATOM     55  H22 BMA d   1      15.029 -11.579 -60.845  0.00  0.00     0.133 H 
BRANCH  46  56
ATOM     56  O2  MAN d   1      12.611 -11.550 -59.757  0.00  0.00    -0.346 OA
BRANCH  56  57
ATOM     57  C1  MAN d   1      13.011 -10.801 -58.586  0.00  0.00     0.159 C 
ATOM     58  C2  MAN d   1      11.947  -9.699 -58.408  0.00  0.00     0.110 C 
ATOM     59  C3  MAN d   1      12.097  -8.664 -59.517  0.00  0.00     0.092 C 
ATOM     60  H33 BMA d   1      10.944 -10.150 -58.432  0.00  0.00     0.094 H 
ATOM     61  C4  MAN d   1      13.526  -8.098 -59.541  0.00  0.00     0.090 C 
ATOM     62  H34 BMA d   1      11.916  -9.171 -60.476  0.00  0.00     0.091 H 
ATOM     63  C5  MAN d   1      14.518  -9.244 -59.739  0.00  0.00     0.089 C 
ATOM     64  H35 BMA d   1      13.734  -7.586 -58.590  0.00  0.00     0.091 H 
ATOM     65  O5  MAN d   1      14.323 -10.246 -58.710  0.00  0.00    -0.348 OA
ATOM     66  H36 BMA d   1      14.340  -9.691 -60.728  0.00  0.00     0.090 H 
ATOM     67  H32 BMA d   1      13.001 -11.466 -57.709  0.00  0.00     0.133 H 
BRANCH  58  68
ATOM     68  O2  MAN d   1      12.140  -8.986 -57.184  0.00  0.00    -0.388 OA
ATOM     69  H39 BMA d   1      11.484  -8.303 -57.110  0.00  0.00     0.210 HD
ENDBRANCH  58  68
BRANCH  59  70
ATOM     70  O3  MAN d   1      11.145  -7.616 -59.393  0.00  0.00    -0.390 OA
ATOM     71  H40 BMA d   1      11.229  -7.024 -60.131  0.00  0.00     0.210 HD
ENDBRANCH  59  70
BRANCH  61  72
ATOM     72  O4  MAN d   1      13.667  -7.183 -60.614  0.00  0.00    -0.390 OA
ATOM     73  H41 BMA d   1      13.487  -7.628 -61.434  0.00  0.00     0.210 HD
ENDBRANCH  61  72
BRANCH  63  74
ATOM     74  C6  MAN d   1      15.959  -8.796 -59.655  0.00  0.00     0.043 C 
ATOM     75  H37 BMA d   1      16.111  -7.904 -60.281  0.00  0.00     0.078 H 
ATOM     76  H38 BMA d   1      16.622  -9.603 -59.999  0.00  0.00     0.078 H 
BRANCH  74  77
ATOM     77  O6  MAN d   1      16.240  -8.485 -58.290  0.00  0.00    -0.398 OA
ATOM     78  H42 BMA d   1      16.103  -9.258 -57.755  0.00  0.00     0.209 HD
ENDBRANCH  74  77
ENDBRANCH  63  74
ENDBRANCH  56  57
ENDBRANCH  46  56
BRANCH  47  79
ATOM     79  O3  MAN d   1      11.438 -14.032 -59.370  0.00  0.00    -0.390 OA
ATOM     80  H29 BMA d   1      10.917 -13.243 -59.281  0.00  0.00     0.210 HD
ENDBRANCH  47  79
BRANCH  49  81
ATOM     81  O4  MAN d   1      10.928 -14.554 -62.069  0.00  0.00    -0.390 OA
ATOM     82  H30 BMA d   1      10.270 -14.697 -61.399  0.00  0.00     0.210 HD
ENDBRANCH  49  81
BRANCH  51  83
ATOM     83  C6  MAN d   1      12.179 -12.779 -64.048  0.00  0.00     0.043 C 
ATOM     84  H27 BMA d   1      11.454 -11.984 -63.818  0.00  0.00     0.078 H 
ATOM     85  H28 BMA d   1      11.664 -13.611 -64.550  0.00  0.00     0.078 H 
BRANCH  83  86
ATOM     86  O6  MAN d   1      13.198 -12.265 -64.899  0.00  0.00    -0.398 OA
ATOM     87  H31 BMA d   1      13.642 -11.548 -64.462  0.00  0.00     0.209 HD
ENDBRANCH  83  86
ENDBRANCH  51  83
ENDBRANCH   1  45
TORSDOF 24
