REMARK  30 active torsions:
REMARK  status: ('A' for Active; 'I' for Inactive)
REMARK    1  A    between atoms: C1_1  and  O1_7 
REMARK    2  A    between atoms: C2_2  and  O2_8 
REMARK    3  A    between atoms: C3_3  and  O3_9 
REMARK    4  A    between atoms: C4_4  and  O4_10 
REMARK    5  A    between atoms: C5_5  and  C6_6 
REMARK    6  A    between atoms: C6_6  and  O6_12 
REMARK    7  A    between atoms: O3_9  and  C1_35 
REMARK    8  A    between atoms: O6_12  and  C1_13 
REMARK    9  A    between atoms: C2_14  and  O2_19 
REMARK   10  A    between atoms: C3_15  and  O3_20 
REMARK   11  A    between atoms: C4_16  and  O4_21 
REMARK   12  A    between atoms: C5_17  and  C6_18 
REMARK   13  A    between atoms: C6_18  and  O6_23 
REMARK   14  A    between atoms: O2_19  and  C1_24 
REMARK   15  A    between atoms: C2_25  and  O2_30 
REMARK   16  A    between atoms: C3_26  and  O3_31 
REMARK   17  A    between atoms: C4_27  and  O4_32 
REMARK   18  A    between atoms: C5_28  and  C6_29 
REMARK   19  A    between atoms: C6_29  and  O6_34 
REMARK   20  A    between atoms: C2_36  and  O2_41 
REMARK   21  A    between atoms: C3_37  and  O3_42 
REMARK   22  A    between atoms: C4_38  and  O4_43 
REMARK   23  A    between atoms: C5_39  and  C6_40 
REMARK   24  A    between atoms: C6_40  and  O6_45 
REMARK   25  A    between atoms: O2_41  and  C1_46 
REMARK   26  A    between atoms: C2_47  and  O2_52 
REMARK   27  A    between atoms: C3_48  and  O3_53 
REMARK   28  A    between atoms: C4_49  and  O4_54 
REMARK   29  A    between atoms: C5_50  and  C6_51 
REMARK   30  A    between atoms: C6_51  and  O6_56 
ROOT
ATOM      1  C1  BMA d   1      19.060 -16.400 -62.180  0.00  0.00     0.156 C 
ATOM      2  C2  BMA d   1      18.934 -17.526 -61.144  0.00  0.00     0.110 C 
ATOM      3  C3  BMA d   1      17.469 -17.660 -60.714  0.00  0.00     0.098 C 
ATOM      4  C4  BMA d   1      16.899 -16.302 -60.272  0.00  0.00     0.090 C 
ATOM      5  C5  BMA d   1      17.109 -15.254 -61.386  0.00  0.00     0.089 C 
ATOM      6  O5  BMA d   1      18.512 -15.188 -61.708  0.00  0.00    -0.349 OA
ATOM      7  H1  BMA d   1      18.564 -16.695 -63.116  0.00  0.00     0.133 H 
ATOM      8  H2  BMA d   1      19.291 -18.470 -61.583  0.00  0.00     0.094 H 
ATOM      9  H3  BMA d   1      16.896 -17.996 -61.591  0.00  0.00     0.091 H 
ATOM     10  H4  BMA d   1      17.425 -15.972 -59.364  0.00  0.00     0.091 H 
ATOM     11  H5  BMA d   1      16.538 -15.563 -62.274  0.00  0.00     0.090 H 
ENDROOT
BRANCH   5  12
ATOM     12  C6  BMA d   1      16.668 -13.865 -60.975  0.00  0.00     0.049 C 
ATOM     13  H6  BMA d   1      16.694 -13.194 -61.846  0.00  0.00     0.078 H 
ATOM     14  H7  BMA d   1      17.338 -13.478 -60.194  0.00  0.00     0.078 H 
BRANCH  12  15
ATOM     15  O6  BMA d   1      15.344 -13.947 -60.473  0.00  0.00    -0.356 OA
BRANCH  15  16
ATOM     16  C1  MAN d   1      14.651 -12.747 -60.869  0.00  0.00     0.159 C 
ATOM     17  C2  MAN d   1      13.379 -12.606 -59.981  0.00  0.00     0.116 C 
ATOM     18  C3  MAN d   1      12.339 -13.635 -60.390  0.00  0.00     0.092 C 
ATOM     19  H12 BMA d   1      13.652 -12.730 -58.923  0.00  0.00     0.095 H 
ATOM     20  C4  MAN d   1      12.070 -13.541 -61.905  0.00  0.00     0.090 C 
ATOM     21  H13 BMA d   1      12.745 -14.634 -60.175  0.00  0.00     0.091 H 
ATOM     22  C5  MAN d   1      13.382 -13.807 -62.646  0.00  0.00     0.089 C 
ATOM     23  H14 BMA d   1      11.704 -12.533 -62.150  0.00  0.00     0.091 H 
ATOM     24  O5  MAN d   1      14.334 -12.796 -62.258  0.00  0.00    -0.348 OA
ATOM     25  H15 BMA d   1      13.755 -14.800 -62.356  0.00  0.00     0.090 H 
ATOM     26  H11 BMA d   1      15.303 -11.879 -60.693  0.00  0.00     0.133 H 
BRANCH  17  27
ATOM     27  O2  MAN d   1      12.757 -11.334 -60.195  0.00  0.00    -0.346 OA
BRANCH  27  28
ATOM     28  C1  MAN d   1      12.747 -10.560 -58.975  0.00  0.00     0.159 C 
ATOM     29  C2  MAN d   1      11.971  -9.242 -59.271  0.00  0.00     0.110 C 
ATOM     30  C3  MAN d   1      12.825  -8.263 -60.080  0.00  0.00     0.092 C 
ATOM     31  H22 BMA d   1      11.056  -9.490 -59.828  0.00  0.00     0.094 H 
ATOM     32  C4  MAN d   1      14.231  -8.113 -59.504  0.00  0.00     0.090 C 
ATOM     33  H23 BMA d   1      12.915  -8.662 -61.101  0.00  0.00     0.091 H 
ATOM     34  C5  MAN d   1      14.875  -9.479 -59.394  0.00  0.00     0.089 C 
ATOM     35  H24 BMA d   1      14.177  -7.645 -58.510  0.00  0.00     0.091 H 
ATOM     36  O5  MAN d   1      14.067 -10.307 -58.525  0.00  0.00    -0.348 OA
ATOM     37  H25 BMA d   1      14.924  -9.927 -60.397  0.00  0.00     0.090 H 
ATOM     38  H21 BMA d   1      12.216 -11.122 -58.193  0.00  0.00     0.133 H 
BRANCH  29  39
ATOM     39  O2  MAN d   1      11.635  -8.551 -58.073  0.00  0.00    -0.388 OA
ATOM     40  H28 BMA d   1      11.151  -7.763 -58.289  0.00  0.00     0.210 HD
ENDBRANCH  29  39
BRANCH  30  41
ATOM     41  O3  MAN d   1      12.212  -6.991 -60.154  0.00  0.00    -0.390 OA
ATOM     42  H29 BMA d   1      11.337  -7.083 -60.512  0.00  0.00     0.210 HD
ENDBRANCH  30  41
BRANCH  32  43
ATOM     43  O4  MAN d   1      15.010  -7.310 -60.371  0.00  0.00    -0.390 OA
ATOM     44  H30 BMA d   1      15.050  -7.718 -61.228  0.00  0.00     0.210 HD
ENDBRANCH  32  43
BRANCH  34  45
ATOM     45  C6  MAN d   1      16.264  -9.435 -58.809  0.00  0.00     0.043 C 
ATOM     46  H26 BMA d   1      16.331  -8.634 -58.058  0.00  0.00     0.078 H 
ATOM     47  H27 BMA d   1      17.002  -9.254 -59.605  0.00  0.00     0.078 H 
BRANCH  45  48
ATOM     48  O6  MAN d   1      16.508 -10.701 -58.196  0.00  0.00    -0.398 OA
ATOM     49  H31 BMA d   1      15.864 -10.851 -57.514  0.00  0.00     0.209 HD
ENDBRANCH  45  48
ENDBRANCH  34  45
ENDBRANCH  27  28
ENDBRANCH  17  27
BRANCH  18  50
ATOM     50  O3  MAN d   1      11.134 -13.484 -59.646  0.00  0.00    -0.390 OA
ATOM     51  H18 BMA d   1      11.326 -13.546 -58.718  0.00  0.00     0.210 HD
ENDBRANCH  18  50
BRANCH  20  52
ATOM     52  O4  MAN d   1      11.104 -14.497 -62.301  0.00  0.00    -0.390 OA
ATOM     53  H19 BMA d   1      10.290 -14.332 -61.841  0.00  0.00     0.210 HD
ENDBRANCH  20  52
BRANCH  22  54
ATOM     54  C6  MAN d   1      13.243 -13.759 -64.160  0.00  0.00     0.043 C 
ATOM     55  H16 BMA d   1      12.372 -14.354 -64.472  0.00  0.00     0.078 H 
ATOM     56  H17 BMA d   1      14.151 -14.165 -64.630  0.00  0.00     0.078 H 
BRANCH  54  57
ATOM     57  O6  MAN d   1      13.064 -12.401 -64.552  0.00  0.00    -0.398 OA
ATOM     58  H20 BMA d   1      13.817 -11.892 -64.278  0.00  0.00     0.209 HD
ENDBRANCH  54  57
ENDBRANCH  22  54
ENDBRANCH  15  16
ENDBRANCH  12  15
ENDBRANCH   5  12
BRANCH   4  59
ATOM     59  O4  BMA d   1      15.513 -16.423 -59.985  0.00  0.00    -0.390 OA
ATOM     60  H10 BMA d   1      15.176 -15.583 -59.696  0.00  0.00     0.210 HD
ENDBRANCH   4  59
BRANCH   3  61
ATOM     61  O3  BMA d   1      17.294 -18.640 -59.681  0.00  0.00    -0.348 OA
BRANCH  61  62
ATOM     62  C1  MAN d   1      17.795 -19.909 -60.167  0.00  0.00     0.159 C 
ATOM     63  C2  MAN d   1      16.569 -20.818 -60.538  0.00  0.00     0.116 C 
ATOM     64  C3  MAN d   1      15.944 -21.452 -59.289  0.00  0.00     0.092 C 
ATOM     65  H33 BMA d   1      15.816 -20.204 -61.054  0.00  0.00     0.095 H 
ATOM     66  C4  MAN d   1      17.017 -22.083 -58.394  0.00  0.00     0.090 C 
ATOM     67  H34 BMA d   1      15.457 -20.648 -58.717  0.00  0.00     0.091 H 
ATOM     68  C5  MAN d   1      18.033 -21.009 -58.004  0.00  0.00     0.089 C 
ATOM     69  H35 BMA d   1      17.526 -22.888 -58.944  0.00  0.00     0.091 H 
ATOM     70  O5  MAN d   1      18.662 -20.518 -59.201  0.00  0.00    -0.348 OA
ATOM     71  H36 BMA d   1      17.506 -20.190 -57.492  0.00  0.00     0.090 H 
ATOM     72  H32 BMA d   1      18.381 -19.730 -61.080  0.00  0.00     0.133 H 
BRANCH  63  73
ATOM     73  O2  MAN d   1      16.983 -21.898 -61.395  0.00  0.00    -0.346 OA
BRANCH  73  74
ATOM     74  C1  MAN d   1      16.182 -21.961 -62.605  0.00  0.00     0.159 C 
ATOM     75  C2  MAN d   1      16.874 -22.984 -63.556  0.00  0.00     0.110 C 
ATOM     76  C3  MAN d   1      18.118 -22.364 -64.184  0.00  0.00     0.092 C 
ATOM     77  H43 BMA d   1      17.144 -23.884 -62.985  0.00  0.00     0.094 H 
ATOM     78  C4  MAN d   1      17.761 -21.062 -64.901  0.00  0.00     0.090 C 
ATOM     79  H44 BMA d   1      18.826 -22.130 -63.375  0.00  0.00     0.091 H 
ATOM     80  C5  MAN d   1      17.161 -20.078 -63.898  0.00  0.00     0.089 C 
ATOM     81  H45 BMA d   1      17.029 -21.271 -65.695  0.00  0.00     0.091 H 
ATOM     82  O5  MAN d   1      16.006 -20.677 -63.240  0.00  0.00    -0.348 OA
ATOM     83  H46 BMA d   1      17.928 -19.837 -63.147  0.00  0.00     0.090 H 
ATOM     84  H42 BMA d   1      15.184 -22.341 -62.343  0.00  0.00     0.133 H 
BRANCH  75  85
ATOM     85  O2  MAN d   1      16.021 -23.332 -64.647  0.00  0.00    -0.388 OA
ATOM     86  H49 BMA d   1      16.468 -23.951 -65.212  0.00  0.00     0.210 HD
ENDBRANCH  75  85
BRANCH  76  87
ATOM     87  O3  MAN d   1      18.758 -23.261 -65.084  0.00  0.00    -0.390 OA
ATOM     88  H50 BMA d   1      18.173 -23.454 -65.807  0.00  0.00     0.210 HD
ENDBRANCH  76  87
BRANCH  78  89
ATOM     89  O4  MAN d   1      18.927 -20.489 -65.470  0.00  0.00    -0.390 OA
ATOM     90  H51 BMA d   1      19.305 -21.097 -66.095  0.00  0.00     0.210 HD
ENDBRANCH  78  89
BRANCH  80  91
ATOM     91  C6  MAN d   1      16.688 -18.794 -64.548  0.00  0.00     0.043 C 
ATOM     92  H47 BMA d   1      17.514 -18.333 -65.109  0.00  0.00     0.078 H 
ATOM     93  H48 BMA d   1      16.333 -18.094 -63.778  0.00  0.00     0.078 H 
BRANCH  91  94
ATOM     94  O6  MAN d   1      15.621 -19.119 -65.436  0.00  0.00    -0.398 OA
ATOM     95  H52 BMA d   1      14.913 -19.520 -64.945  0.00  0.00     0.209 HD
ENDBRANCH  91  94
ENDBRANCH  80  91
ENDBRANCH  73  74
ENDBRANCH  63  73
BRANCH  64  96
ATOM     96  O3  MAN d   1      14.947 -22.413 -59.619  0.00  0.00    -0.390 OA
ATOM     97  H39 BMA d   1      15.349 -23.139 -60.081  0.00  0.00     0.210 HD
ENDBRANCH  64  96
BRANCH  66  98
ATOM     98  O4  MAN d   1      16.420 -22.619 -57.224  0.00  0.00    -0.390 OA
ATOM     99  H40 BMA d   1      15.789 -23.286 -57.469  0.00  0.00     0.210 HD
ENDBRANCH  66  98
BRANCH  68 100
ATOM    100  C6  MAN d   1      19.133 -21.532 -57.103  0.00  0.00     0.043 C 
ATOM    101  H37 BMA d   1      19.656 -22.364 -57.597  0.00  0.00     0.078 H 
ATOM    102  H38 BMA d   1      18.703 -21.882 -56.153  0.00  0.00     0.078 H 
BRANCH 100 103
ATOM    103  O6  MAN d   1      20.044 -20.465 -56.858  0.00  0.00    -0.398 OA
ATOM    104  H41 BMA d   1      20.409 -20.166 -57.683  0.00  0.00     0.209 HD
ENDBRANCH 100 103
ENDBRANCH  68 100
ENDBRANCH  61  62
ENDBRANCH   3  61
BRANCH   1 105
ATOM    105  O1  BMA d   1      20.433 -16.184 -62.388  0.00  0.00    -0.369 OA
ATOM    106  H8  BMA d   1      20.840 -15.930 -61.568  0.00  0.00     0.212 HD
ENDBRANCH   1 105
BRANCH   2 107
ATOM    107  O2  BMA d   1      19.682 -17.222 -59.969  0.00  0.00    -0.388 OA
ATOM    108  H9  BMA d   1      20.600 -17.131 -60.194  0.00  0.00     0.210 HD
ENDBRANCH   2 107
TORSDOF 30
