REMARK  7 active torsions:
REMARK  status: ('A' for Active; 'I' for Inactive)
REMARK    1  A    between atoms: P_1  and  O5'_5 
REMARK    2  A    between atoms: O5'_5  and  C5'_6 
REMARK    3  A    between atoms: C5'_6  and  C4'_7 
REMARK    4  A    between atoms: C3'_9  and  O3'_10 
REMARK    5  A    between atoms: C2'_11  and  O2'_12 
REMARK    6  A    between atoms: C1'_13  and  N9_14 
REMARK    7  A    between atoms: C2_21  and  N2_22 
ROOT
ATOM      1  C4' MOL d   1      -8.701   2.864 -52.377  0.00  0.00     0.089 C 
ATOM      2  O4' MOL d   1     -10.152   2.814 -52.530  0.00  0.00    -0.353 OA
ATOM      3  C3' MOL d   1      -8.340   1.551 -51.718  0.00  0.00     0.091 C 
ATOM      4  C2' MOL d   1      -9.572   1.212 -50.903  0.00  0.00     0.105 C 
ATOM      5  C1' MOL d   1     -10.664   1.712 -51.816  0.00  0.00     0.139 C 
ATOM      6  H3  MOL d   1      -8.417   3.702 -51.723  0.00  0.00     0.090 H 
ATOM      7  H4  MOL d   1      -8.193   0.776 -52.484  0.00  0.00     0.091 H 
ATOM      8  H6  MOL d   1      -9.644   0.137 -50.680  0.00  0.00     0.093 H 
ATOM      9  H8  MOL d   1     -11.528   2.026 -51.212  0.00  0.00     0.122 H 
ENDROOT
BRANCH   5  10
ATOM     10  N9  MOL d   1     -11.093   0.684 -52.766  0.00  0.00    -0.295 N 
ATOM     11  C8  MOL d   1     -10.961   0.704 -54.091  0.00  0.00     0.071 A 
ATOM     12  N7  MOL d   1     -11.599  -0.393 -54.573  0.00  0.00    -0.234 NA
ATOM     13  H9  MOL d   1     -10.439   1.459 -54.678  0.00  0.00     0.144 H 
ATOM     14  C5  MOL d   1     -12.124  -1.076 -53.529  0.00  0.00     0.171 A 
ATOM     15  C6  MOL d   1     -12.881  -2.249 -53.384  0.00  0.00     0.292 A 
ATOM     16  C4  MOL d   1     -11.813  -0.366 -52.402  0.00  0.00     0.161 A 
ATOM     17  O6  MOL d   1     -13.197  -2.940 -54.391  0.00  0.00    -0.265 OA
ATOM     18  N1  MOL d   1     -13.259  -2.636 -52.154  0.00  0.00    -0.154 N 
ATOM     19  C2  MOL d   1     -12.943  -1.937 -51.058  0.00  0.00     0.680 A 
ATOM     20  H10 MOL d   1     -13.794  -3.475 -52.054  0.00  0.00     0.187 HD
ATOM     21  N3  MOL d   1     -12.207  -0.802 -51.184  0.00  0.00    -0.174 N 
ATOM     22  H13 MOL d   1     -11.946  -0.268 -50.343  0.00  0.00     0.186 HD
BRANCH  19  23
ATOM     23  N2  MOL d   1     -13.324  -2.369 -49.820  0.00  0.00    -0.234 N 
ATOM     24  H11 MOL d   1     -13.074  -1.821 -48.984  0.00  0.00     0.174 HD
ATOM     25  H12 MOL d   1     -13.861  -3.242 -49.722  0.00  0.00     0.174 HD
ENDBRANCH  19  23
ENDBRANCH   5  10
BRANCH   4  26
ATOM     26  O2' MOL d   1      -9.649   1.986 -49.726  0.00  0.00    -0.388 OA
ATOM     27  H7  MOL d   1      -8.882   1.823 -49.190  0.00  0.00     0.210 HD
ENDBRANCH   4  26
BRANCH   1  28
ATOM     28  C5' MOL d   1      -8.023   3.041 -53.710  0.00  0.00     0.059 C 
ATOM     29  H1  MOL d   1      -6.983   3.361 -53.547  0.00  0.00     0.079 H 
ATOM     30  H2  MOL d   1      -8.031   2.082 -54.249  0.00  0.00     0.079 H 
BRANCH  28  31
ATOM     31  O5' MOL d   1      -8.681   3.999 -54.473  0.00  0.00    -0.280 OA
BRANCH  31  32
ATOM     32  P   MOL d   1      -8.123   4.503 -55.856  0.00  0.00     0.422 P 
ATOM     33  O1P MOL d   1      -9.420   4.630 -56.639  0.00  0.00    -0.617 OA
ATOM     34  O2P MOL d   1      -7.509   5.833 -55.478  0.00  0.00    -0.617 OA
ATOM     35  O3P MOL d   1      -7.164   3.540 -56.496  0.00  0.00    -0.617 OA
ENDBRANCH  31  32
ENDBRANCH  28  31
ENDBRANCH   1  28
BRANCH   3  36
ATOM     36  O3' MOL d   1      -7.149   1.658 -50.992  0.00  0.00    -0.390 OA
ATOM     37  H5  MOL d   1      -7.249   2.318 -50.317  0.00  0.00     0.210 HD
ENDBRANCH   3  36
TORSDOF 7
