REMARK  9 active torsions:
REMARK  status: ('A' for Active; 'I' for Inactive)
REMARK    1  A    between atoms: C2_2  and  N2_18 
REMARK       I    between atoms: C1_23  and  N4_6 
REMARK    2  A    between atoms: N4_6  and  C7_24 
REMARK    3  A    between atoms: C1'_9  and  N9_21 
REMARK    4  A    between atoms: C2'_10  and  O2'_11 
REMARK    5  A    between atoms: C3'_12  and  O3'_13 
REMARK    6  A    between atoms: C5'_16  and  C4'_14 
REMARK    7  A    between atoms: O5'_22  and  C5'_16 
REMARK    8  A    between atoms: O5'_22  and  C1_23 
REMARK    9  A    between atoms: C7_24  and  C9_25 
ROOT
ATOM      1  C1' KB7 d   1     -29.015   5.592 -29.161  0.00  0.00     0.139 C 
ATOM      2  C2' KB7 d   1     -29.798   6.783 -28.623  0.00  0.00     0.105 C 
ATOM      3  C3' KB7 d   1     -29.758   6.547 -27.102  0.00  0.00     0.091 C 
ATOM      4  C4' KB7 d   1     -29.423   5.055 -26.973  0.00  0.00     0.089 C 
ATOM      5  O4' KB7 d   1     -29.351   4.536 -28.314  0.00  0.00    -0.353 OA
ATOM      6  H4  KB7 d   1     -27.935   5.797 -29.133  0.00  0.00     0.122 H 
ATOM      7  H5  KB7 d   1     -30.841   6.730 -28.968  0.00  0.00     0.093 H 
ATOM      8  H7  KB7 d   1     -30.733   6.774 -26.646  0.00  0.00     0.091 H 
ATOM      9  H9  KB7 d   1     -28.443   4.954 -26.483  0.00  0.00     0.090 H 
ENDROOT
BRANCH   1  10
ATOM     10  N9  KB7 d   1     -29.413   5.241 -30.514  0.00  0.00    -0.295 N 
ATOM     11  C4  KB7 d   1     -28.574   5.119 -31.533  0.00  0.00     0.161 A 
ATOM     12  N3  KB7 d   1     -27.232   5.222 -31.675  0.00  0.00    -0.174 N 
ATOM     13  C5  KB7 d   1     -29.417   4.802 -32.690  0.00  0.00     0.171 A 
ATOM     14  C2  KB7 d   1     -26.672   5.013 -32.896  0.00  0.00     0.680 A 
ATOM     15  H2  KB7 d   1     -26.640   5.457 -30.865  0.00  0.00     0.186 HD
ATOM     16  N1  KB7 d   1     -27.395   4.731 -33.996  0.00  0.00    -0.154 N 
ATOM     17  C6  KB7 d   1     -28.730   4.606 -33.977  0.00  0.00     0.292 A 
ATOM     18  H1  KB7 d   1     -26.916   4.609 -34.865  0.00  0.00     0.187 HD
ATOM     19  O6  KB7 d   1     -29.388   4.346 -35.015  0.00  0.00    -0.265 OA
ATOM     20  N7  KB7 d   1     -30.693   4.766 -32.260  0.00  0.00    -0.234 NA
ATOM     21  C8  KB7 d   1     -30.677   5.040 -30.933  0.00  0.00     0.071 A 
ATOM     22  H14 KB7 d   1     -31.559   5.090 -30.297  0.00  0.00     0.144 H 
BRANCH  14  23
ATOM     23  N2  KB7 d   1     -25.331   5.113 -33.020  0.00  0.00    -0.234 N 
ATOM     24  H12 KB7 d   1     -24.886   4.959 -33.936  0.00  0.00     0.174 HD
ATOM     25  H13 KB7 d   1     -24.754   5.344 -32.199  0.00  0.00     0.174 HD
ENDBRANCH  14  23
ENDBRANCH   1  10
BRANCH   2  26
ATOM     26  O2' KB7 d   1     -29.273   8.020 -29.067  0.00  0.00    -0.388 OA
ATOM     27  H6  KB7 d   1     -28.373   8.104 -28.775  0.00  0.00     0.210 HD
ENDBRANCH   2  26
BRANCH   3  28
ATOM     28  O3' KB7 d   1     -28.741   7.337 -26.477  0.00  0.00    -0.390 OA
ATOM     29  H8  KB7 d   1     -28.915   8.258 -26.635  0.00  0.00     0.210 HD
ENDBRANCH   3  28
BRANCH   4  30
ATOM     30  C5' KB7 d   1     -30.421   4.267 -26.186  0.00  0.00     0.057 C 
ATOM     31  H10 KB7 d   1     -30.067   3.232 -26.067  0.00  0.00     0.079 H 
ATOM     32  H11 KB7 d   1     -31.388   4.265 -26.709  0.00  0.00     0.079 H 
BRANCH  30  33
ATOM     33  O5' KB7 d   1     -30.568   4.871 -24.912  0.00  0.00    -0.301 OA
BRANCH  33  34
ATOM     34  C1  KB7 d   1     -31.636   4.487 -24.031  0.00  0.00     0.360 C 
ATOM     35  O2  KB7 d   1     -32.190   3.414 -24.203  0.00  0.00    -0.239 OA
ATOM     36  N4  KB7 d   1     -31.924   5.378 -23.093  0.00  0.00    -0.337 N 
ATOM     37  H3  KB7 d   1     -32.523   5.133 -22.331  0.00  0.00     0.164 HD
BRANCH  36  38
ATOM     38  C7  KB7 d   1     -31.357   6.720 -23.184  0.00  0.00    -0.006 C 
ATOM     39  H15 KB7 d   1     -30.407   6.666 -23.735  0.00  0.00     0.063 H 
ATOM     40  H16 KB7 d   1     -31.170   7.094 -22.167  0.00  0.00     0.063 H 
BRANCH  38  41
ATOM     41  C9  KB7 d   1     -32.279   7.688 -23.897  0.00  0.00    -0.061 C 
ATOM     42  H17 KB7 d   1     -31.807   8.681 -23.939  0.00  0.00     0.029 H 
ATOM     43  H18 KB7 d   1     -33.231   7.758 -23.351  0.00  0.00     0.029 H 
ATOM     44  H19 KB7 d   1     -32.468   7.329 -24.919  0.00  0.00     0.029 H 
ENDBRANCH  38  41
ENDBRANCH  36  38
ENDBRANCH  33  34
ENDBRANCH  30  33
ENDBRANCH   4  30
TORSDOF 9
