REMARK  10 active torsions:
REMARK  status: ('A' for Active; 'I' for Inactive)
REMARK    1  A    between atoms: C1_1  and  O5'_25 
REMARK       I    between atoms: N4_27  and  C1_1 
REMARK    2  A    between atoms: C2_2  and  N2_13 
REMARK    3  A    between atoms: C9_29  and  C3_3 
REMARK    4  A    between atoms: C1'_17  and  N9_16 
REMARK    5  A    between atoms: C2'_19  and  O2'_20 
REMARK    6  A    between atoms: C3'_21  and  O3'_22 
REMARK    7  A    between atoms: C5'_24  and  C4'_23 
REMARK    8  A    between atoms: O5'_25  and  C5'_24 
REMARK    9  A    between atoms: C7_28  and  N4_27 
REMARK   10  A    between atoms: C7_28  and  C9_29 
ROOT
ATOM      1  C1' KBJ d   1     -29.107   5.659 -29.146  0.00  0.00     0.139 C 
ATOM      2  O4' KBJ d   1     -29.428   4.601 -28.283  0.00  0.00    -0.353 OA
ATOM      3  C2' KBJ d   1     -29.869   6.861 -28.596  0.00  0.00     0.105 C 
ATOM      4  C3' KBJ d   1     -29.791   6.636 -27.080  0.00  0.00     0.091 C 
ATOM      5  C4' KBJ d   1     -29.530   5.128 -26.943  0.00  0.00     0.089 C 
ATOM      6  H9  KBJ d   1     -28.025   5.859 -29.136  0.00  0.00     0.122 H 
ATOM      7  H10 KBJ d   1     -30.920   6.817 -28.916  0.00  0.00     0.093 H 
ATOM      8  H12 KBJ d   1     -30.735   6.919 -26.592  0.00  0.00     0.091 H 
ATOM      9  H14 KBJ d   1     -28.577   4.980 -26.414  0.00  0.00     0.090 H 
ENDROOT
BRANCH   5  10
ATOM     10  C5' KBJ d   1     -30.599   4.397 -26.196  0.00  0.00     0.057 C 
ATOM     11  H15 KBJ d   1     -30.324   3.336 -26.104  0.00  0.00     0.079 H 
ATOM     12  H16 KBJ d   1     -31.552   4.483 -26.738  0.00  0.00     0.079 H 
BRANCH  10  13
ATOM     13  O5' KBJ d   1     -30.734   4.967 -24.904  0.00  0.00    -0.301 OA
BRANCH  13  14
ATOM     14  C1  KBJ d   1     -31.905   4.706 -24.119  0.00  0.00     0.360 C 
ATOM     15  O2  KBJ d   1     -32.535   3.685 -24.332  0.00  0.00    -0.239 OA
ATOM     16  N4  KBJ d   1     -32.194   5.615 -23.190  0.00  0.00    -0.337 N 
ATOM     17  H17 KBJ d   1     -32.873   5.403 -22.487  0.00  0.00     0.164 HD
BRANCH  16  18
ATOM     18  C7  KBJ d   1     -31.534   6.914 -23.184  0.00  0.00     0.001 C 
ATOM     19  H18 KBJ d   1     -30.826   6.953 -24.025  0.00  0.00     0.064 H 
ATOM     20  H19 KBJ d   1     -30.985   7.026 -22.237  0.00  0.00     0.064 H 
BRANCH  18  21
ATOM     21  C9  KBJ d   1     -32.519   8.077 -23.319  0.00  0.00    -0.026 C 
ATOM     22  H20 KBJ d   1     -33.428   7.856 -22.741  0.00  0.00     0.042 H 
ATOM     23  H21 KBJ d   1     -32.055   8.997 -22.935  0.00  0.00     0.042 H 
BRANCH  21  24
ATOM     24  C3  KBJ d   1     -32.880   8.264 -24.775  0.00  0.00    -0.057 A 
ATOM     25  C10 KBJ d   1     -32.008   8.931 -25.635  0.00  0.00    -0.077 A 
ATOM     26  C11 KBJ d   1     -32.334   9.105 -26.981  0.00  0.00    -0.082 A 
ATOM     27  H2  KBJ d   1     -31.069   9.318 -25.255  0.00  0.00     0.084 H 
ATOM     28  C12 KBJ d   1     -33.540   8.615 -27.472  0.00  0.00    -0.083 A 
ATOM     29  H3  KBJ d   1     -31.648   9.621 -27.643  0.00  0.00     0.083 H 
ATOM     30  C13 KBJ d   1     -34.416   7.958 -26.610  0.00  0.00    -0.082 A 
ATOM     31  H4  KBJ d   1     -33.796   8.743 -28.517  0.00  0.00     0.083 H 
ATOM     32  C14 KBJ d   1     -34.089   7.785 -25.265  0.00  0.00    -0.077 A 
ATOM     33  H22 KBJ d   1     -35.359   7.579 -26.988  0.00  0.00     0.083 H 
ATOM     34  H23 KBJ d   1     -34.779   7.276 -24.601  0.00  0.00     0.084 H 
ENDBRANCH  21  24
ENDBRANCH  18  21
ENDBRANCH  16  18
ENDBRANCH  13  14
ENDBRANCH  10  13
ENDBRANCH   5  10
BRANCH   4  35
ATOM     35  O3' KBJ d   1     -28.715   7.378 -26.508  0.00  0.00    -0.390 OA
ATOM     36  H13 KBJ d   1     -27.896   7.099 -26.901  0.00  0.00     0.210 HD
ENDBRANCH   4  35
BRANCH   1  37
ATOM     37  N9  KBJ d   1     -29.522   5.310 -30.500  0.00  0.00    -0.295 N 
ATOM     38  C4  KBJ d   1     -28.684   5.178 -31.514  0.00  0.00     0.161 A 
ATOM     39  C5  KBJ d   1     -29.516   4.884 -32.685  0.00  0.00     0.171 A 
ATOM     40  N3  KBJ d   1     -27.339   5.235 -31.644  0.00  0.00    -0.174 N 
ATOM     41  C6  KBJ d   1     -28.820   4.684 -33.965  0.00  0.00     0.292 A 
ATOM     42  N7  KBJ d   1     -30.796   4.883 -32.275  0.00  0.00    -0.234 NA
ATOM     43  O6  KBJ d   1     -29.477   4.433 -35.007  0.00  0.00    -0.265 OA
ATOM     44  N1  KBJ d   1     -27.482   4.779 -33.963  0.00  0.00    -0.154 N 
ATOM     45  C2  KBJ d   1     -26.764   5.021 -32.854  0.00  0.00     0.680 A 
ATOM     46  H5  KBJ d   1     -26.995   4.664 -34.829  0.00  0.00     0.187 HD
ATOM     47  C8  KBJ d   1     -30.789   5.149 -30.942  0.00  0.00     0.071 A 
ATOM     48  H1  KBJ d   1     -31.679   5.222 -30.318  0.00  0.00     0.144 H 
ATOM     49  H8  KBJ d   1     -26.751   5.441 -30.824  0.00  0.00     0.186 HD
BRANCH  45  50
ATOM     50  N2  KBJ d   1     -25.418   5.103 -32.956  0.00  0.00    -0.234 N 
ATOM     51  H6  KBJ d   1     -24.848   5.288 -32.118  0.00  0.00     0.174 HD
ATOM     52  H7  KBJ d   1     -24.962   4.981 -33.872  0.00  0.00     0.174 HD
ENDBRANCH  45  50
ENDBRANCH   1  37
BRANCH   3  53
ATOM     53  O2' KBJ d   1     -29.339   8.092 -29.053  0.00  0.00    -0.388 OA
ATOM     54  H11 KBJ d   1     -28.433   8.167 -28.777  0.00  0.00     0.210 HD
ENDBRANCH   3  53
TORSDOF 10
