REMARK  9 active torsions:
REMARK  status: ('A' for Active; 'I' for Inactive)
REMARK    1  A    between atoms: C7_6  and  C15_8 
REMARK    2  A    between atoms: N4_18  and  C7_6 
REMARK       I    between atoms: C1_11  and  N4_18 
REMARK    3  A    between atoms: O5'_29  and  C1_11 
REMARK    4  A    between atoms: C2_16  and  N2_17 
REMARK    5  A    between atoms: C1'_19  and  N9_25 
REMARK    6  A    between atoms: C2'_20  and  O2'_26 
REMARK    7  A    between atoms: C3'_21  and  O3'_27 
REMARK    8  A    between atoms: C5'_23  and  C4'_22 
REMARK    9  A    between atoms: C5'_23  and  O5'_29 
ROOT
ATOM      1  C1' KBD d   1     -29.187   5.637 -29.209  0.00  0.00     0.139 C 
ATOM      2  C2' KBD d   1     -29.975   6.828 -28.670  0.00  0.00     0.105 C 
ATOM      3  C3' KBD d   1     -29.948   6.586 -27.146  0.00  0.00     0.091 C 
ATOM      4  C4' KBD d   1     -29.599   5.096 -27.022  0.00  0.00     0.089 C 
ATOM      5  O4' KBD d   1     -29.524   4.580 -28.366  0.00  0.00    -0.353 OA
ATOM      6  H14 KBD d   1     -28.108   5.845 -29.169  0.00  0.00     0.122 H 
ATOM      7  H15 KBD d   1     -31.016   6.773 -29.020  0.00  0.00     0.093 H 
ATOM      8  H16 KBD d   1     -30.935   6.795 -26.708  0.00  0.00     0.091 H 
ATOM      9  H17 KBD d   1     -28.618   5.003 -26.534  0.00  0.00     0.090 H 
ENDROOT
BRANCH   4  10
ATOM     10  C5' KBD d   1     -30.585   4.295 -26.238  0.00  0.00     0.057 C 
ATOM     11  H18 KBD d   1     -30.219   3.264 -26.125  0.00  0.00     0.079 H 
ATOM     12  H19 KBD d   1     -31.554   4.286 -26.759  0.00  0.00     0.079 H 
BRANCH  10  13
ATOM     13  O5' KBD d   1     -30.734   4.890 -24.965  0.00  0.00    -0.301 OA
BRANCH  13  14
ATOM     14  C1  KBD d   1     -31.806   4.512 -24.085  0.00  0.00     0.360 C 
ATOM     15  O2  KBD d   1     -32.336   3.423 -24.234  0.00  0.00    -0.239 OA
ATOM     16  N4  KBD d   1     -32.131   5.435 -23.180  0.00  0.00    -0.333 N 
ATOM     17  H13 KBD d   1     -32.766   5.202 -22.444  0.00  0.00     0.165 HD
BRANCH  16  18
ATOM     18  C7  KBD d   1     -31.572   6.779 -23.250  0.00  0.00     0.021 C 
ATOM     19  H3  KBD d   1     -31.215   7.074 -22.252  0.00  0.00     0.071 H 
ATOM     20  H4  KBD d   1     -30.729   6.783 -23.957  0.00  0.00     0.071 H 
BRANCH  18  21
ATOM     21  C15 KBD d   1     -32.615   7.771 -23.717  0.00  0.00    -0.040 A 
ATOM     22  C20 KBD d   1     -32.968   7.852 -25.061  0.00  0.00    -0.075 A 
ATOM     23  C19 KBD d   1     -33.926   8.769 -25.480  0.00  0.00    -0.082 A 
ATOM     24  H7  KBD d   1     -32.494   7.198 -25.784  0.00  0.00     0.084 H 
ATOM     25  C18 KBD d   1     -34.533   9.609 -24.553  0.00  0.00    -0.083 A 
ATOM     26  H10 KBD d   1     -34.199   8.829 -26.527  0.00  0.00     0.083 H 
ATOM     27  C17 KBD d   1     -34.185   9.530 -23.209  0.00  0.00    -0.082 A 
ATOM     28  H9  KBD d   1     -35.278  10.326 -24.878  0.00  0.00     0.083 H 
ATOM     29  C16 KBD d   1     -33.224   8.614 -22.793  0.00  0.00    -0.075 A 
ATOM     30  H6  KBD d   1     -34.662  10.182 -22.486  0.00  0.00     0.083 H 
ATOM     31  H8  KBD d   1     -32.949   8.557 -21.746  0.00  0.00     0.084 H 
ENDBRANCH  18  21
ENDBRANCH  16  18
ENDBRANCH  13  14
ENDBRANCH  10  13
ENDBRANCH   4  10
BRANCH   3  32
ATOM     32  O3' KBD d   1     -28.961   7.383 -26.478  0.00  0.00    -0.390 OA
ATOM     33  H21 KBD d   1     -28.111   7.228 -26.872  0.00  0.00     0.210 HD
ENDBRANCH   3  32
BRANCH   2  34
ATOM     34  O2' KBD d   1     -29.453   8.062 -29.118  0.00  0.00    -0.388 OA
ATOM     35  H20 KBD d   1     -28.542   8.132 -28.858  0.00  0.00     0.210 HD
ENDBRANCH   2  34
BRANCH   1  36
ATOM     36  N9  KBD d   1     -29.563   5.290 -30.571  0.00  0.00    -0.295 N 
ATOM     37  C4  KBD d   1     -28.729   5.165 -31.589  0.00  0.00     0.161 A 
ATOM     38  N3  KBD d   1     -27.390   5.252 -31.715  0.00  0.00    -0.174 N 
ATOM     39  C5  KBD d   1     -29.577   4.870 -32.749  0.00  0.00     0.171 A 
ATOM     40  C2  KBD d   1     -26.849   5.043 -32.941  0.00  0.00     0.680 A 
ATOM     41  H2  KBD d   1     -26.795   5.471 -30.904  0.00  0.00     0.186 HD
ATOM     42  N1  KBD d   1     -27.565   4.775 -34.048  0.00  0.00    -0.154 N 
ATOM     43  C6  KBD d   1     -28.897   4.669 -34.038  0.00  0.00     0.292 A 
ATOM     44  H1  KBD d   1     -27.081   4.650 -34.914  0.00  0.00     0.187 HD
ATOM     45  O6  KBD d   1     -29.549   4.429 -35.081  0.00  0.00    -0.265 OA
ATOM     46  N7  KBD d   1     -30.853   4.849 -32.328  0.00  0.00    -0.234 NA
ATOM     47  C8  KBD d   1     -30.826   5.113 -31.003  0.00  0.00     0.071 A 
ATOM     48  H5  KBD d   1     -31.709   5.175 -30.369  0.00  0.00     0.144 H 
BRANCH  40  49
ATOM     49  N2  KBD d   1     -25.511   5.120 -33.086  0.00  0.00    -0.234 N 
ATOM     50  H11 KBD d   1     -25.083   4.964 -34.010  0.00  0.00     0.174 HD
ATOM     51  H12 KBD d   1     -24.916   5.335 -32.273  0.00  0.00     0.174 HD
ENDBRANCH  40  49
ENDBRANCH   1  36
TORSDOF 9
