REMARK  10 active torsions:
REMARK  status: ('A' for Active; 'I' for Inactive)
REMARK    1  A    between atoms: C2_4  and  N2_5 
REMARK    2  A    between atoms: N9_11  and  C1'_12 
REMARK    3  A    between atoms: C2'_14  and  O2'_15 
REMARK    4  A    between atoms: C3'_16  and  O3'_17 
REMARK    5  A    between atoms: C4'_18  and  C5'_19 
REMARK    6  A    between atoms: C5'_19  and  O5'_20 
REMARK    7  A    between atoms: O5'_20  and  C1_21 
REMARK       I    between atoms: C1_21  and  N4_23 
REMARK    8  A    between atoms: N4_23  and  C9_24 
REMARK    9  A    between atoms: C9_24  and  C10_25 
REMARK   10  A    between atoms: C10_25  and  C12_26 
ROOT
ATOM      1  C1' HHJ d   1     -29.372   5.666 -29.175  0.00  0.00     0.139 C 
ATOM      2  O4' HHJ d   1     -29.727   4.636 -28.294  0.00  0.00    -0.353 OA
ATOM      3  C2' HHJ d   1     -30.104   6.905 -28.657  0.00  0.00     0.105 C 
ATOM      4  C3' HHJ d   1     -30.040   6.712 -27.138  0.00  0.00     0.091 C 
ATOM      5  C4' HHJ d   1     -29.867   5.195 -26.966  0.00  0.00     0.089 C 
ATOM      6  H6  HHJ d   1     -28.285   5.835 -29.164  0.00  0.00     0.122 H 
ATOM      7  H7  HHJ d   1     -31.152   6.890 -28.989  0.00  0.00     0.093 H 
ATOM      8  H9  HHJ d   1     -30.962   7.063 -26.652  0.00  0.00     0.091 H 
ATOM      9  H11 HHJ d   1     -28.952   5.009 -26.384  0.00  0.00     0.090 H 
ENDROOT
BRANCH   5  10
ATOM     10  C5' HHJ d   1     -31.011   4.511 -26.276  0.00  0.00     0.057 C 
ATOM     11  H12 HHJ d   1     -31.191   3.535 -26.751  0.00  0.00     0.079 H 
ATOM     12  H13 HHJ d   1     -31.913   5.134 -26.364  0.00  0.00     0.079 H 
BRANCH  10  13
ATOM     13  O5' HHJ d   1     -30.710   4.316 -24.907  0.00  0.00    -0.301 OA
BRANCH  13  14
ATOM     14  C1  HHJ d   1     -31.644   4.716 -23.890  0.00  0.00     0.360 C 
ATOM     15  O2  HHJ d   1     -32.728   4.162 -23.840  0.00  0.00    -0.239 OA
ATOM     16  N4  HHJ d   1     -31.215   5.685 -23.093  0.00  0.00    -0.337 N 
ATOM     17  H14 HHJ d   1     -30.238   5.721 -22.883  0.00  0.00     0.164 HD
BRANCH  16  18
ATOM     18  C9  HHJ d   1     -32.070   6.690 -22.511  0.00  0.00     0.001 C 
ATOM     19  H15 HHJ d   1     -31.527   7.154 -21.674  0.00  0.00     0.064 H 
ATOM     20  H16 HHJ d   1     -32.972   6.189 -22.130  0.00  0.00     0.064 H 
BRANCH  18  21
ATOM     21  C10 HHJ d   1     -32.514   7.801 -23.457  0.00  0.00    -0.024 C 
ATOM     22  H17 HHJ d   1     -32.359   7.496 -24.503  0.00  0.00     0.042 H 
ATOM     23  H18 HHJ d   1     -31.947   8.722 -23.256  0.00  0.00     0.042 H 
BRANCH  21  24
ATOM     24  C12 HHJ d   1     -33.985   8.022 -23.188  0.00  0.00    -0.029 A 
ATOM     25  C16 HHJ d   1     -35.025   7.824 -24.089  0.00  0.00    -0.015 A 
ATOM     26  N23 HHJ d   1     -36.197   8.113 -23.467  0.00  0.00    -0.365 N 
ATOM     27  H19 HHJ d   1     -34.918   7.493 -25.121  0.00  0.00     0.112 H 
ATOM     28  C22 HHJ d   1     -35.946   8.487 -22.187  0.00  0.00     0.042 A 
ATOM     29  H24 HHJ d   1     -37.130   8.057 -23.899  0.00  0.00     0.165 HD
ATOM     30  C17 HHJ d   1     -34.573   8.432 -21.992  0.00  0.00    -0.002 A 
ATOM     31  C21 HHJ d   1     -36.767   8.883 -21.134  0.00  0.00    -0.056 A 
ATOM     32  C18 HHJ d   1     -34.001   8.764 -20.763  0.00  0.00    -0.070 A 
ATOM     33  C19 HHJ d   1     -34.825   9.156 -19.710  0.00  0.00    -0.082 A 
ATOM     34  H20 HHJ d   1     -32.926   8.717 -20.629  0.00  0.00     0.084 H 
ATOM     35  C20 HHJ d   1     -36.208   9.214 -19.900  0.00  0.00    -0.081 A 
ATOM     36  H21 HHJ d   1     -34.395   9.415 -18.749  0.00  0.00     0.083 H 
ATOM     37  H22 HHJ d   1     -36.851   9.518 -19.082  0.00  0.00     0.083 H 
ATOM     38  H23 HHJ d   1     -37.841   8.934 -21.274  0.00  0.00     0.086 H 
ENDBRANCH  21  24
ENDBRANCH  18  21
ENDBRANCH  16  18
ENDBRANCH  13  14
ENDBRANCH  10  13
ENDBRANCH   5  10
BRANCH   4  39
ATOM     39  O3' HHJ d   1     -28.914   7.413 -26.609  0.00  0.00    -0.390 OA
ATOM     40  H10 HHJ d   1     -28.118   7.075 -27.003  0.00  0.00     0.210 HD
ENDBRANCH   4  39
BRANCH   1  41
ATOM     41  N9  HHJ d   1     -29.794   5.300 -30.523  0.00  0.00    -0.295 N 
ATOM     42  C4  HHJ d   1     -28.982   5.153 -31.570  0.00  0.00     0.161 A 
ATOM     43  N3  HHJ d   1     -27.641   5.205 -31.759  0.00  0.00    -0.174 N 
ATOM     44  C5  HHJ d   1     -29.859   4.864 -32.709  0.00  0.00     0.171 A 
ATOM     45  C2  HHJ d   1     -27.097   4.981 -32.979  0.00  0.00     0.680 A 
ATOM     46  H4  HHJ d   1     -27.025   5.418 -30.962  0.00  0.00     0.186 HD
ATOM     47  N1  HHJ d   1     -27.861   4.723 -34.048  0.00  0.00    -0.154 N 
ATOM     48  C6  HHJ d   1     -29.199   4.643 -33.998  0.00  0.00     0.292 A 
ATOM     49  H1  HHJ d   1     -27.410   4.583 -34.930  0.00  0.00     0.187 HD
ATOM     50  O6  HHJ d   1     -29.880   4.400 -35.015  0.00  0.00    -0.265 OA
ATOM     51  N7  HHJ d   1     -31.127   4.871 -32.256  0.00  0.00    -0.234 NA
ATOM     52  C8  HHJ d   1     -31.070   5.149 -30.926  0.00  0.00     0.071 A 
ATOM     53  H5  HHJ d   1     -31.939   5.237 -30.275  0.00  0.00     0.144 H 
BRANCH  45  54
ATOM     54  N2  HHJ d   1     -25.749   5.044 -33.139  0.00  0.00    -0.234 N 
ATOM     55  H2  HHJ d   1     -25.143   5.241 -32.330  0.00  0.00     0.174 HD
ATOM     56  H3  HHJ d   1     -25.333   4.894 -34.069  0.00  0.00     0.174 HD
ENDBRANCH  45  54
ENDBRANCH   1  41
BRANCH   3  57
ATOM     57  O2' HHJ d   1     -29.524   8.112 -29.114  0.00  0.00    -0.388 OA
ATOM     58  H8  HHJ d   1     -28.622   8.161 -28.818  0.00  0.00     0.210 HD
ENDBRANCH   3  57
TORSDOF 10
