REMARK  8 active torsions:
REMARK  status: ('A' for Active; 'I' for Inactive)
REMARK    1  A    between atoms: OH_1  and  C2_2 
REMARK    2  A    between atoms: C2_2  and  C1_3 
REMARK    3  A    between atoms: C2_2  and  C3_4 
REMARK    4  A    between atoms: C3_4  and  O2_5 
REMARK    5  A    between atoms: O2_5  and  C5_6 
REMARK    6  A    between atoms: C5_6  and  C6_7 
REMARK    7  A    between atoms: C5_6  and  C4_8 
REMARK    8  A    between atoms: C4_8  and  O3_9 
ROOT
ATOM      1  O2  JEF d   1      13.961  71.126  49.657  0.00  0.00    -0.382 OA
ENDROOT
BRANCH   1   2
ATOM      2  C3  JEF d   1      14.955  71.713  50.455  0.00  0.00     0.043 C 
ATOM      3  H6  JEF d   1      14.959  72.801  50.294  0.00  0.00     0.078 H 
ATOM      4  H7  JEF d   1      14.748  71.500  51.514  0.00  0.00     0.078 H 
BRANCH   2   5
ATOM      5  C2  JEF d   1      16.317  71.138  50.077  0.00  0.00     0.052 C 
ATOM      6  H2  JEF d   1      16.436  71.165  48.984  0.00  0.00     0.085 H 
BRANCH   5   7
ATOM      7  OH  JEF d   1      16.407  69.815  50.523  0.00  0.00    -0.394 OA
ATOM      8  H1  JEF d   1      15.723  69.297  50.115  0.00  0.00     0.210 HD
ENDBRANCH   5   7
BRANCH   5   9
ATOM      9  C1  JEF d   1      17.416  71.971  50.731  0.00  0.00    -0.051 C 
ATOM     10  H3  JEF d   1      17.345  73.011  50.380  0.00  0.00     0.031 H 
ATOM     11  H4  JEF d   1      18.399  71.559  50.460  0.00  0.00     0.031 H 
ATOM     12  H5  JEF d   1      17.296  71.944  51.824  0.00  0.00     0.031 H 
ENDBRANCH   5   9
ENDBRANCH   2   5
ENDBRANCH   1   2
BRANCH   1  13
ATOM     13  C5  JEF d   1      13.769  71.704  48.395  0.00  0.00     0.055 C 
ATOM     14  H8  JEF d   1      14.739  71.783  47.881  0.00  0.00     0.086 H 
BRANCH  13  15
ATOM     15  C6  JEF d   1      12.828  70.821  47.579  0.00  0.00    -0.050 C 
ATOM     16  H9  JEF d   1      12.673  71.269  46.587  0.00  0.00     0.031 H 
ATOM     17  H10 JEF d   1      11.862  70.737  48.098  0.00  0.00     0.031 H 
ATOM     18  H11 JEF d   1      13.271  69.821  47.464  0.00  0.00     0.031 H 
ENDBRANCH  13  15
BRANCH  13  19
ATOM     19  C4  JEF d   1      13.154  73.097  48.527  0.00  0.00     0.040 C 
ATOM     20  H12 JEF d   1      13.946  73.831  48.735  0.00  0.00     0.077 H 
ATOM     21  H13 JEF d   1      12.425  73.101  49.350  0.00  0.00     0.077 H 
BRANCH  19  22
ATOM     22  O3  JEF d   1      12.511  73.429  47.330  0.00  0.00    -0.398 OA
ATOM     23  H14 JEF d   1      12.127  74.294  47.407  0.00  0.00     0.209 HD
ENDBRANCH  19  22
ENDBRANCH  13  19
ENDBRANCH   1  13
TORSDOF 8
