REMARK  5 active torsions:
REMARK  status: ('A' for Active; 'I' for Inactive)
REMARK    1  A    between atoms: C3_14  and  C6_4 
REMARK       I    between atoms: C6_4  and  N3_15 
REMARK    2  A    between atoms: N3_15  and  C7_6 
REMARK    3  A    between atoms: C9_8  and  C10_9 
REMARK    4  A    between atoms: C15_17  and  O1_18 
REMARK    5  A    between atoms: O1_18  and  C16_19 
ROOT
ATOM      1  C7  KES d   1      21.740 194.285  19.405  0.00  0.00     0.083 A 
ATOM      2  C8  KES d   1      22.159 194.249  20.766  0.00  0.00     0.050 A 
ATOM      3  C9  KES d   1      21.299 192.973  19.108  0.00  0.00     0.091 A 
ATOM      4  N5  KES d   1      21.475 192.204  20.189  0.00  0.00    -0.275 N 
ATOM      5  N4  KES d   1      21.984 192.988  21.165  0.00  0.00    -0.184 NA
ATOM      6  H5  KES d   1      22.543 195.079  21.358  0.00  0.00     0.121 H 
ATOM      7  H9  KES d   1      21.262 191.199  20.264  0.00  0.00     0.189 HD
ENDROOT
BRANCH   1   8
ATOM      8  N3  KES d   1      21.777 195.351  18.475  0.00  0.00    -0.320 N 
ATOM      9  C6  KES d   1      22.200 196.622  18.779  0.00  0.00     0.261 C 
ATOM     10  O   KES d   1      22.660 196.943  19.876  0.00  0.00    -0.267 OA
ATOM     11  H7  KES d   1      21.477 195.168  17.539  0.00  0.00     0.169 HD
BRANCH   9  12
ATOM     12  C3  KES d   1      22.006 197.632  17.701  0.00  0.00     0.099 A 
ATOM     13  C4  KES d   1      22.237 199.015  17.749  0.00  0.00     0.041 A 
ATOM     14  N1  KES d   1      21.770 199.652  16.684  0.00  0.00    -0.178 NA
ATOM     15  H1  KES d   1      22.746 199.512  18.573  0.00  0.00     0.119 H 
ATOM     16  N2  KES d   1      21.219 198.663  15.902  0.00  0.00    -0.226 N 
ATOM     17  C5  KES d   1      20.520 198.829  14.726  0.00  0.00     0.007 A 
ATOM     18  C2  KES d   1      21.382 197.422  16.463  0.00  0.00     0.167 A 
ATOM     19  C   KES d   1      20.005 197.726  14.140  0.00  0.00    -0.049 A 
ATOM     20  H3  KES d   1      20.387 199.815  14.284  0.00  0.00     0.115 H 
ATOM     21  C1  KES d   1      20.245 196.463  14.741  0.00  0.00     0.006 A 
ATOM     22  H10 KES d   1      19.418 197.804  13.226  0.00  0.00     0.087 H 
ATOM     23  N   KES d   1      20.915 196.285  15.874  0.00  0.00    -0.240 NA
ATOM     24  H11 KES d   1      19.853 195.580  14.239  0.00  0.00     0.114 H 
ENDBRANCH   9  12
ENDBRANCH   1   8
BRANCH   3  25
ATOM     25  C10 KES d   1      20.677 192.472  17.864  0.00  0.00     0.030 A 
ATOM     26  C11 KES d   1      21.214 191.326  17.274  0.00  0.00    -0.047 A 
ATOM     27  C12 KES d   1      20.645 190.816  16.127  0.00  0.00     0.035 A 
ATOM     28  H4  KES d   1      22.076 190.839  17.717  0.00  0.00     0.087 H 
ATOM     29  C13 KES d   1      19.565 191.420  15.521  0.00  0.00    -0.059 A 
ATOM     30 CL   KES d   1      21.281 189.347  15.452  0.00  0.00    -0.084 Cl
ATOM     31  C14 KES d   1      19.019 192.556  16.091  0.00  0.00    -0.048 A 
ATOM     32  H6  KES d   1      19.148 191.010  14.608  0.00  0.00     0.086 H 
ATOM     33  C15 KES d   1      19.563 193.075  17.256  0.00  0.00     0.087 A 
ATOM     34  H2  KES d   1      18.167 193.040  15.627  0.00  0.00     0.087 H 
BRANCH  33  35
ATOM     35  O1  KES d   1      19.072 194.210  17.857  0.00  0.00    -0.289 OA
BRANCH  35  36
ATOM     36  C16 KES d   1      17.810 194.191  18.317  0.00  0.00     0.310 C 
ATOM     37  F1  KES d   1      17.801 194.544  19.587  0.00  0.00    -0.184 F 
ATOM     38  F   KES d   1      16.918 194.724  17.474  0.00  0.00    -0.184 F 
ATOM     39  H8  KES d   1      17.529 193.128  18.336  0.00  0.00     0.195 H 
ENDBRANCH  35  36
ENDBRANCH  33  35
ENDBRANCH   3  25
TORSDOF 5
