REMARK  7 active torsions:
REMARK  status: ('A' for Active; 'I' for Inactive)
REMARK    1  A    between atoms: C7_6  and  C5_3 
REMARK    2  A    between atoms: C11_5  and  C10_9 
REMARK       I    between atoms: N3_15  and  C7_6 
REMARK    3  A    between atoms: C8_7  and  N3_15 
REMARK    4  A    between atoms: C16_18  and  O1_19 
REMARK    5  A    between atoms: O1_19  and  C17_20 
REMARK    6  A    between atoms: N4_22  and  C18_23 
REMARK    7  A    between atoms: N_27  and  C_28 
ROOT
ATOM      1  C8  KEV d   1       7.115 -24.000  23.009  0.00  0.00     0.084 A 
ATOM      2  C9  KEV d   1       8.350 -24.012  23.599  0.00  0.00     0.026 A 
ATOM      3  C10 KEV d   1       6.876 -22.647  22.680  0.00  0.00     0.118 A 
ATOM      4  N5  KEV d   1       7.906 -21.880  23.042  0.00  0.00    -0.170 NA
ATOM      5  N4  KEV d   1       8.787 -22.745  23.600  0.00  0.00    -0.282 N 
ATOM      6  H3  KEV d   1       8.875 -24.882  23.991  0.00  0.00     0.117 H 
ENDROOT
BRANCH   1   7
ATOM      7  N3  KEV d   1       6.241 -25.062  22.769  0.00  0.00    -0.320 N 
ATOM      8  C7  KEV d   1       6.421 -26.361  23.168  0.00  0.00     0.260 C 
ATOM      9  O   KEV d   1       7.435 -26.743  23.760  0.00  0.00    -0.267 OA
ATOM     10  H6  KEV d   1       5.406 -24.856  22.259  0.00  0.00     0.169 HD
BRANCH   8  11
ATOM     11  C5  KEV d   1       5.322 -27.306  22.781  0.00  0.00     0.081 A 
ATOM     12  C4  KEV d   1       5.457 -28.657  23.101  0.00  0.00     0.019 A 
ATOM     13  N1  KEV d   1       4.578 -29.616  22.758  0.00  0.00    -0.271 NA
ATOM     14  H1  KEV d   1       6.332 -28.955  23.666  0.00  0.00     0.116 H 
ATOM     15  C3  KEV d   1       3.498 -29.260  22.056  0.00  0.00     0.015 A 
ATOM     16  C2  KEV d   1       3.239 -27.942  21.695  0.00  0.00     0.030 A 
ATOM     17  H5  KEV d   1       2.796 -30.029  21.756  0.00  0.00     0.116 H 
ATOM     18  C6  KEV d   1       4.164 -26.924  22.053  0.00  0.00     0.107 A 
ATOM     19  C1  KEV d   1       2.194 -27.247  20.983  0.00  0.00     0.012 A 
ATOM     20  N2  KEV d   1       3.742 -25.718  21.609  0.00  0.00    -0.172 NA
ATOM     21  N   KEV d   1       2.563 -25.958  20.971  0.00  0.00    -0.284 N 
ATOM     22  H14 KEV d   1       1.294 -27.679  20.547  0.00  0.00     0.115 H 
BRANCH  21  23
ATOM     23  C   KEV d   1       1.767 -24.846  20.451  0.00  0.00     0.002 C 
ATOM     24  H15 KEV d   1       0.857 -25.238  19.973  0.00  0.00     0.059 H 
ATOM     25  H16 KEV d   1       2.358 -24.287  19.711  0.00  0.00     0.059 H 
ATOM     26  H17 KEV d   1       1.487 -24.177  21.278  0.00  0.00     0.059 H 
ENDBRANCH  21  23
ENDBRANCH   8  11
ENDBRANCH   1   7
BRANCH   3  27
ATOM     27  C11 KEV d   1       5.712 -22.012  22.034  0.00  0.00     0.032 A 
ATOM     28  C12 KEV d   1       5.065 -20.938  22.660  0.00  0.00    -0.047 A 
ATOM     29  C13 KEV d   1       3.998 -20.325  22.037  0.00  0.00     0.035 A 
ATOM     30  H4  KEV d   1       5.402 -20.590  23.630  0.00  0.00     0.087 H 
ATOM     31  C14 KEV d   1       3.521 -20.758  20.819  0.00  0.00    -0.059 A 
ATOM     32 CL   KEV d   1       3.186 -19.019  22.847  0.00  0.00    -0.084 Cl
ATOM     33  C15 KEV d   1       4.151 -21.817  20.184  0.00  0.00    -0.048 A 
ATOM     34  H2  KEV d   1       2.664 -20.276  20.363  0.00  0.00     0.086 H 
ATOM     35  C16 KEV d   1       5.246 -22.433  20.778  0.00  0.00     0.081 A 
ATOM     36  H7  KEV d   1       3.789 -22.165  19.223  0.00  0.00     0.087 H 
BRANCH  35  37
ATOM     37  O1  KEV d   1       5.954 -23.455  20.207  0.00  0.00    -0.355 OA
BRANCH  37  38
ATOM     38  C17 KEV d   1       5.612 -23.846  18.863  0.00  0.00     0.010 C 
ATOM     39  H8  KEV d   1       6.263 -24.673  18.545  0.00  0.00     0.066 H 
ATOM     40  H9  KEV d   1       5.749 -22.990  18.186  0.00  0.00     0.066 H 
ATOM     41  H10 KEV d   1       4.562 -24.173  18.832  0.00  0.00     0.066 H 
ENDBRANCH  37  38
ENDBRANCH  35  37
ENDBRANCH   3  27
BRANCH   5  42
ATOM     42  C18 KEV d   1      10.055 -22.243  24.126  0.00  0.00     0.002 C 
ATOM     43  H11 KEV d   1      10.110 -21.155  23.973  0.00  0.00     0.059 H 
ATOM     44  H12 KEV d   1      10.889 -22.730  23.599  0.00  0.00     0.059 H 
ATOM     45  H13 KEV d   1      10.120 -22.466  25.201  0.00  0.00     0.059 H 
ENDBRANCH   5  42
TORSDOF 7
