REMARK  6 active torsions:
REMARK  status: ('A' for Active; 'I' for Inactive)
REMARK    1  A    between atoms: C3_14  and  C4_1 
REMARK    2  A    between atoms: C11_5  and  C12_10 
REMARK       I    between atoms: N2_13  and  C11_5 
REMARK    3  A    between atoms: C9_8  and  O_26 
REMARK    4  A    between atoms: O_26  and  C10_9 
REMARK    5  A    between atoms: C2_22  and  N2_13 
REMARK    6  A    between atoms: N_24  and  C_25 
ROOT
ATOM      1  N1  KEY d   1     -21.943   1.207  -0.565  0.00  0.00    -0.170 NA
ATOM      2  C3  KEY d   1     -22.752   2.229  -0.827  0.00  0.00     0.118 A 
ATOM      3  C2  KEY d   1     -24.083   1.899  -0.580  0.00  0.00     0.084 A 
ATOM      4  C1  KEY d   1     -24.072   0.587  -0.193  0.00  0.00     0.026 A 
ATOM      5  N   KEY d   1     -22.784   0.215  -0.183  0.00  0.00    -0.282 N 
ATOM      6  H12 KEY d   1     -24.934  -0.030   0.056  0.00  0.00     0.117 H 
ENDROOT
BRANCH   3   7
ATOM      7  N2  KEY d   1     -25.152   2.813  -0.682  0.00  0.00    -0.320 N 
ATOM      8  C11 KEY d   1     -26.471   2.601  -0.355  0.00  0.00     0.260 C 
ATOM      9  O1  KEY d   1     -26.875   1.561   0.147  0.00  0.00    -0.267 OA
ATOM     10  H9  KEY d   1     -24.924   3.721  -1.033  0.00  0.00     0.169 HD
BRANCH   8  11
ATOM     11  C12 KEY d   1     -27.415   3.730  -0.634  0.00  0.00     0.081 A 
ATOM     12  C13 KEY d   1     -28.772   3.598  -0.333  0.00  0.00     0.019 A 
ATOM     13  N3  KEY d   1     -29.688   4.527  -0.625  0.00  0.00    -0.271 NA
ATOM     14  H8  KEY d   1     -29.101   2.693   0.165  0.00  0.00     0.116 H 
ATOM     15  C14 KEY d   1     -29.273   5.624  -1.267  0.00  0.00     0.015 A 
ATOM     16  C15 KEY d   1     -27.969   5.912  -1.654  0.00  0.00     0.030 A 
ATOM     17  H1  KEY d   1     -30.029   6.362  -1.510  0.00  0.00     0.116 H 
ATOM     18  C16 KEY d   1     -27.036   4.910  -1.304  0.00  0.00     0.107 A 
ATOM     19  C17 KEY d   1     -27.184   6.901  -2.299  0.00  0.00     0.009 A 
ATOM     20  N4  KEY d   1     -25.824   5.346  -1.720  0.00  0.00    -0.173 NA
ATOM     21  N5  KEY d   1     -25.909   6.564  -2.327  0.00  0.00    -0.288 N 
ATOM     22  H10 KEY d   1     -25.133   7.111  -2.727  0.00  0.00     0.188 HD
ATOM     23  H11 KEY d   1     -27.584   7.823  -2.719  0.00  0.00     0.115 H 
ENDBRANCH   8  11
ENDBRANCH   3   7
BRANCH   2  24
ATOM     24  C4  KEY d   1     -22.188   3.435  -1.460  0.00  0.00     0.032 A 
ATOM     25  C5  KEY d   1     -21.145   4.098  -0.809  0.00  0.00    -0.047 A 
ATOM     26  C6  KEY d   1     -20.501   5.143  -1.436  0.00  0.00     0.035 A 
ATOM     27  H2  KEY d   1     -20.843   3.792   0.186  0.00  0.00     0.087 H 
ATOM     28  C7  KEY d   1     -20.880   5.583  -2.693  0.00  0.00    -0.059 A 
ATOM     29 CL   KEY d   1     -19.137   5.885  -0.650  0.00  0.00    -0.084 Cl
ATOM     30  C8  KEY d   1     -21.927   4.955  -3.341  0.00  0.00    -0.048 A 
ATOM     31  H3  KEY d   1     -20.361   6.411  -3.163  0.00  0.00     0.086 H 
ATOM     32  C9  KEY d   1     -22.580   3.885  -2.736  0.00  0.00     0.081 A 
ATOM     33  H4  KEY d   1     -22.240   5.296  -4.321  0.00  0.00     0.087 H 
BRANCH  32  34
ATOM     34  O   KEY d   1     -23.651   3.239  -3.294  0.00  0.00    -0.355 OA
BRANCH  34  35
ATOM     35  C10 KEY d   1     -24.064   3.625  -4.605  0.00  0.00     0.010 C 
ATOM     36  H5  KEY d   1     -24.930   3.018  -4.910  0.00  0.00     0.066 H 
ATOM     37  H6  KEY d   1     -23.237   3.465  -5.312  0.00  0.00     0.066 H 
ATOM     38  H7  KEY d   1     -24.344   4.689  -4.603  0.00  0.00     0.066 H 
ENDBRANCH  34  35
ENDBRANCH  32  34
ENDBRANCH   2  24
BRANCH   5  39
ATOM     39  C   KEY d   1     -22.234  -1.073   0.217  0.00  0.00     0.002 C 
ATOM     40  H13 KEY d   1     -23.054  -1.752   0.493  0.00  0.00     0.059 H 
ATOM     41  H14 KEY d   1     -21.567  -0.935   1.080  0.00  0.00     0.059 H 
ATOM     42  H15 KEY d   1     -21.666  -1.505  -0.620  0.00  0.00     0.059 H 
ENDBRANCH   5  39
TORSDOF 6
