REMARK  5 active torsions:
REMARK  status: ('A' for Active; 'I' for Inactive)
REMARK    1  A    between atoms: C7_6  and  C6_4 
REMARK    2  A    between atoms: C11_5  and  C10_9 
REMARK    3  A    between atoms: N2_13  and  C8_7 
REMARK       I    between atoms: C10_9  and  N2_13 
REMARK    4  A    between atoms: C1_22  and  O_23 
REMARK    5  A    between atoms: O_23  and  C_24 
ROOT
ATOM      1  C7  KF4 d   1     -23.257   1.867  -1.056  0.00  0.00     0.091 A 
ATOM      2  C8  KF4 d   1     -24.601   1.609  -0.718  0.00  0.00     0.083 A 
ATOM      3  C9  KF4 d   1     -24.648   0.231  -0.339  0.00  0.00     0.050 A 
ATOM      4  N1  KF4 d   1     -22.545   0.739  -0.903  0.00  0.00    -0.275 N 
ATOM      5  N   KF4 d   1     -23.400  -0.222  -0.476  0.00  0.00    -0.184 NA
ATOM      6  H3  KF4 d   1     -25.520  -0.331  -0.008  0.00  0.00     0.121 H 
ATOM      7  H5  KF4 d   1     -21.536   0.625  -1.078  0.00  0.00     0.189 HD
ENDROOT
BRANCH   1   8
ATOM      8  C6  KF4 d   1     -22.637   3.110  -1.576  0.00  0.00     0.029 A 
ATOM      9  C5  KF4 d   1     -21.530   3.640  -0.910  0.00  0.00    -0.054 A 
ATOM     10  C4  KF4 d   1     -20.861   4.767  -1.403  0.00  0.00     0.012 A 
ATOM     11  H2  KF4 d   1     -21.183   3.171   0.004  0.00  0.00     0.086 H 
ATOM     12  C3  KF4 d   1     -21.324   5.386  -2.580  0.00  0.00     0.091 A 
ATOM     13  C17 KF4 d   1     -19.750   5.553  -1.004  0.00  0.00     0.008 A 
ATOM     14  N7  KF4 d   1     -20.501   6.443  -2.806  0.00  0.00    -0.175 NA
ATOM     15  C2  KF4 d   1     -22.441   4.876  -3.234  0.00  0.00    -0.020 A 
ATOM     16  N6  KF4 d   1     -19.542   6.551  -1.842  0.00  0.00    -0.288 N 
ATOM     17  H13 KF4 d   1     -18.804   7.267  -1.780  0.00  0.00     0.188 HD
ATOM     18  C1  KF4 d   1     -23.083   3.746  -2.752  0.00  0.00     0.083 A 
ATOM     19  H14 KF4 d   1     -22.812   5.366  -4.127  0.00  0.00     0.091 H 
ATOM     20  H12 KF4 d   1     -19.146   5.358  -0.119  0.00  0.00     0.115 H 
BRANCH  18  21
ATOM     21  O   KF4 d   1     -24.140   3.150  -3.388  0.00  0.00    -0.355 OA
BRANCH  21  22
ATOM     22  C   KF4 d   1     -24.502   3.629  -4.687  0.00  0.00     0.010 C 
ATOM     23  H9  KF4 d   1     -25.362   3.055  -5.063  0.00  0.00     0.066 H 
ATOM     24  H10 KF4 d   1     -23.651   3.507  -5.373  0.00  0.00     0.066 H 
ATOM     25  H11 KF4 d   1     -24.772   4.694  -4.623  0.00  0.00     0.066 H 
ENDBRANCH  21  22
ENDBRANCH  18  21
ENDBRANCH   1   8
BRANCH   2  26
ATOM     26  N2  KF4 d   1     -25.662   2.548  -0.809  0.00  0.00    -0.320 N 
ATOM     27  C10 KF4 d   1     -26.917   2.367  -0.281  0.00  0.00     0.261 C 
ATOM     28  O1  KF4 d   1     -27.251   1.374   0.360  0.00  0.00    -0.267 OA
ATOM     29  H6  KF4 d   1     -25.482   3.404  -1.293  0.00  0.00     0.169 HD
BRANCH  27  30
ATOM     30  C11 KF4 d   1     -27.879   3.460  -0.531  0.00  0.00     0.099 A 
ATOM     31  C12 KF4 d   1     -29.256   3.492  -0.254  0.00  0.00     0.041 A 
ATOM     32  N3  KF4 d   1     -29.836   4.611  -0.671  0.00  0.00    -0.178 NA
ATOM     33  H4  KF4 d   1     -29.790   2.686   0.248  0.00  0.00     0.119 H 
ATOM     34  N4  KF4 d   1     -28.827   5.332  -1.232  0.00  0.00    -0.226 N 
ATOM     35  C13 KF4 d   1     -27.620   4.676  -1.165  0.00  0.00     0.167 A 
ATOM     36  C16 KF4 d   1     -28.944   6.545  -1.870  0.00  0.00     0.007 A 
ATOM     37  N5  KF4 d   1     -26.482   5.179  -1.711  0.00  0.00    -0.240 NA
ATOM     38  C14 KF4 d   1     -26.614   6.343  -2.334  0.00  0.00     0.006 A 
ATOM     39  C15 KF4 d   1     -27.830   7.067  -2.430  0.00  0.00    -0.049 A 
ATOM     40  H1  KF4 d   1     -25.729   6.771  -2.803  0.00  0.00     0.114 H 
ATOM     41  H7  KF4 d   1     -27.865   8.026  -2.945  0.00  0.00     0.087 H 
ATOM     42  H8  KF4 d   1     -29.899   7.066  -1.922  0.00  0.00     0.115 H 
ENDBRANCH  27  30
ENDBRANCH   2  26
TORSDOF 5
