REMARK  13 active torsions:
REMARK  status: ('A' for Active; 'I' for Inactive)
REMARK    1  A    between atoms: C6_3  and  N6_13 
REMARK    2  A    between atoms: C8_4  and  CAL_15 
REMARK    3  A    between atoms: CAF_8  and  CAA_7 
REMARK    4  A    between atoms: CAG_9  and  CAF_8 
REMARK    5  A    between atoms: CAK_10  and  CAG_9 
REMARK    6  A    between atoms: CAK_10  and  N9_11 
REMARK    7  A    between atoms: CAL_15  and  CAS_16 
REMARK    8  A    between atoms: CAU_19  and  OAP_20 
REMARK    9  A    between atoms: OAP_20  and  CAB_21 
REMARK   10  A    between atoms: CAX_22  and  OAR_23 
REMARK   11  A    between atoms: OAR_23  and  CAD_24 
REMARK   12  A    between atoms: CAV_25  and  OAQ_26 
REMARK   13  A    between atoms: OAQ_26  and  CAC_27 
ROOT
ATOM      1  C4  KFY d   1       0.764  10.280 221.187  0.00  0.00     0.165 A 
ATOM      2  C5  KFY d   1      -0.052  10.990 220.370  0.00  0.00     0.150 A 
ATOM      3  C6  KFY d   1      -1.367  11.115 220.712  0.00  0.00     0.155 A 
ATOM      4  C8  KFY d   1       1.942  10.964 219.541  0.00  0.00     0.113 A 
ATOM      5  N1  KFY d   1      -1.809  10.584 221.851  0.00  0.00    -0.222 NA
ATOM      6  N3  KFY d   1       0.352   9.717 222.334  0.00  0.00    -0.222 NA
ATOM      7  N9  KFY d   1       1.988  10.262 220.664  0.00  0.00    -0.317 N 
ATOM      8  C2  KFY d   1      -0.973   9.877 222.694  0.00  0.00     0.091 A 
ATOM      9  N7  KFY d   1       0.703  11.415 219.331  0.00  0.00    -0.227 NA
ATOM     10  H10 KFY d   1      -1.349   9.456 223.619  0.00  0.00     0.146 H 
ENDROOT
BRANCH   4  11
ATOM     11  CAL KFY d   1       3.140  11.189 218.607  0.00  0.00     0.014 C 
ATOM     12  H13 KFY d   1       2.812  11.833 217.778  0.00  0.00     0.051 H 
ATOM     13  H14 KFY d   1       3.454  10.212 218.211  0.00  0.00     0.051 H 
BRANCH  11  14
ATOM     14  CAS KFY d   1       4.282  11.808 219.231  0.00  0.00    -0.046 A 
ATOM     15  CAJ KFY d   1       5.551  11.285 218.971  0.00  0.00    -0.041 A 
ATOM     16  CAV KFY d   1       6.680  11.868 219.543  0.00  0.00     0.104 A 
ATOM     17  H15 KFY d   1       5.658  10.423 218.322  0.00  0.00     0.088 H 
ATOM     18  CAX KFY d   1       6.552  12.972 220.362  0.00  0.00     0.135 A 
ATOM     19  CAU KFY d   1       5.300  13.507 220.640  0.00  0.00     0.104 A 
ATOM     20  CAI KFY d   1       4.156  12.928 220.073  0.00  0.00    -0.041 A 
ATOM     21  H16 KFY d   1       3.177  13.342 220.283  0.00  0.00     0.088 H 
BRANCH  16  22
ATOM     22  OAQ KFY d   1       7.962  11.427 219.342  0.00  0.00    -0.353 OA
BRANCH  22  23
ATOM     23  CAC KFY d   1       8.076  10.355 218.386  0.00  0.00     0.010 C 
ATOM     24  H23 KFY d   1       9.132  10.064 218.286  0.00  0.00     0.066 H 
ATOM     25  H24 KFY d   1       7.694  10.691 217.411  0.00  0.00     0.066 H 
ATOM     26  H25 KFY d   1       7.489   9.492 218.732  0.00  0.00     0.066 H 
ENDBRANCH  22  23
ENDBRANCH  16  22
BRANCH  18  27
ATOM     27  OAR KFY d   1       7.714  13.481 220.915  0.00  0.00    -0.351 OA
BRANCH  27  28
ATOM     28  CAD KFY d   1       7.978  14.844 220.579  0.00  0.00     0.011 C 
ATOM     29  H20 KFY d   1       8.915  15.165 221.058  0.00  0.00     0.067 H 
ATOM     30  H21 KFY d   1       7.150  15.476 220.933  0.00  0.00     0.067 H 
ATOM     31  H22 KFY d   1       8.072  14.941 219.487  0.00  0.00     0.067 H 
ENDBRANCH  27  28
ENDBRANCH  18  27
BRANCH  19  32
ATOM     32  OAP KFY d   1       5.260  14.585 221.479  0.00  0.00    -0.353 OA
BRANCH  32  33
ATOM     33  CAB KFY d   1       4.047  15.326 221.441  0.00  0.00     0.010 C 
ATOM     34  H17 KFY d   1       4.110  16.169 222.145  0.00  0.00     0.066 H 
ATOM     35  H18 KFY d   1       3.209  14.672 221.725  0.00  0.00     0.066 H 
ATOM     36  H19 KFY d   1       3.884  15.710 220.423  0.00  0.00     0.066 H 
ENDBRANCH  32  33
ENDBRANCH  19  32
ENDBRANCH  11  14
ENDBRANCH   4  11
BRANCH   7  37
ATOM     37  CAK KFY d   1       3.153   9.575 221.282  0.00  0.00     0.003 C 
ATOM     38  H8  KFY d   1       4.058  10.189 221.163  0.00  0.00     0.065 H 
ATOM     39  H9  KFY d   1       2.964   9.404 222.352  0.00  0.00     0.065 H 
BRANCH  37  40
ATOM     40  CAG KFY d   1       3.333   8.226 220.557  0.00  0.00    -0.050 C 
ATOM     41  H6  KFY d   1       3.121   7.422 221.277  0.00  0.00     0.035 H 
ATOM     42  H7  KFY d   1       2.605   8.182 219.733  0.00  0.00     0.035 H 
BRANCH  40  43
ATOM     43  CAF KFY d   1       4.715   7.984 219.976  0.00  0.00    -0.067 C 
ATOM     44  H4  KFY d   1       4.918   8.786 219.251  0.00  0.00     0.032 H 
ATOM     45  H5  KFY d   1       5.440   8.043 220.801  0.00  0.00     0.032 H 
BRANCH  43  46
ATOM     46  CAA KFY d   1       4.929   6.645 219.263  0.00  0.00    -0.076 C 
ATOM     47  H1  KFY d   1       5.962   6.590 218.889  0.00  0.00     0.027 H 
ATOM     48  H2  KFY d   1       4.229   6.563 218.419  0.00  0.00     0.027 H 
ATOM     49  H3  KFY d   1       4.750   5.821 219.969  0.00  0.00     0.027 H 
ENDBRANCH  43  46
ENDBRANCH  40  43
ENDBRANCH  37  40
ENDBRANCH   7  37
BRANCH   3  50
ATOM     50  N6  KFY d   1      -2.224  11.787 219.929  0.00  0.00    -0.382 N 
ATOM     51  H11 KFY d   1      -3.213  11.872 220.202  0.00  0.00     0.157 HD
ATOM     52  H12 KFY d   1      -1.893  12.218 219.054  0.00  0.00     0.157 HD
ENDBRANCH   3  50
TORSDOF 13
