REMARK  27 active torsions:
REMARK  status: ('A' for Active; 'I' for Inactive)
REMARK    1  A    between atoms: O3'_5  and  P3_2 
REMARK    2  A    between atoms: C3'_6  and  O3'_5 
REMARK    3  A    between atoms: C2'_7  and  O2'_8 
REMARK    4  A    between atoms: C1'_9  and  N9_10 
REMARK    5  A    between atoms: C5'_22  and  C4'_21 
REMARK    6  A    between atoms: O5'_23  and  C5'_22 
REMARK    7  A    between atoms: P1_24  and  O5'_23 
REMARK    8  A    between atoms: O6_27  and  P1_24 
REMARK    9  A    between atoms: P2_28  and  O6_27 
REMARK   10  A    between atoms: O7_31  and  P2_28 
REMARK   11  A    between atoms: CPB_32  and  O7_31 
REMARK   12  A    between atoms: CPA_33  and  CPB_32 
REMARK   13  A    between atoms: CPA_33  and  CP9_34 
REMARK   14  A    between atoms: CPA_33  and  CP8_35 
REMARK   15  A    between atoms: CP7_36  and  CPA_33 
REMARK   16  A    between atoms: CP7_36  and  OP3_37 
REMARK   17  A    between atoms: CP6_38  and  CP7_36 
REMARK       I    between atoms: NP2_40  and  CP6_38 
REMARK   18  A    between atoms: CP5_41  and  NP2_40 
REMARK   19  A    between atoms: CP4_42  and  CP5_41 
REMARK   20  A    between atoms: CP3_43  and  CP4_42 
REMARK       I    between atoms: NP1_45  and  CP3_43 
REMARK   21  A    between atoms: CP2_46  and  NP1_45 
REMARK   22  A    between atoms: CP1_47  and  CP2_46 
REMARK   23  A    between atoms: S_48  and  CP1_47 
REMARK   24  A    between atoms: CS1_49  and  S_48 
REMARK   25  A    between atoms: CS2_51  and  CS1_49 
REMARK   26  A    between atoms: CS2_51  and  CS3_52 
REMARK   27  A    between atoms: SS4_53  and  CS2_51 
ROOT
ATOM      1  CPA YXS d   1      21.237  19.850  22.084  0.00  0.00     0.009 C 
ENDROOT
BRANCH   1   2
ATOM      2  CPB YXS d   1      20.560  21.114  22.579  0.00  0.00     0.041 C 
ATOM      3  H12 YXS d   1      20.679  21.189  23.670  0.00  0.00     0.076 H 
ATOM      4  H13 YXS d   1      21.024  21.988  22.099  0.00  0.00     0.076 H 
BRANCH   2   5
ATOM      5  O7  YXS d   1      19.175  21.077  22.256  0.00  0.00    -0.289 OA
BRANCH   5   6
ATOM      6  P2  YXS d   1      18.346  22.476  22.192  0.00  0.00     0.417 P 
ATOM      7  O21 YXS d   1      18.482  23.147  23.502  0.00  0.00    -0.624 OA
ATOM      8  O22 YXS d   1      16.969  22.161  21.746  0.00  0.00    -0.624 OA
BRANCH   6   9
ATOM      9  O6  YXS d   1      18.994  23.473  21.132  0.00  0.00    -0.180 OA
BRANCH   9  10
ATOM     10  P1  YXS d   1      18.791  23.300  19.548  0.00  0.00     0.417 P 
ATOM     11  O11 YXS d   1      17.636  24.187  19.168  0.00  0.00    -0.624 OA
ATOM     12  O12 YXS d   1      18.535  21.883  19.149  0.00  0.00    -0.624 OA
BRANCH  10  13
ATOM     13  O5' YXS d   1      20.067  23.950  18.846  0.00  0.00    -0.287 OA
BRANCH  13  14
ATOM     14  C5' YXS d   1      20.443  25.313  19.067  0.00  0.00     0.058 C 
ATOM     15  H10 YXS d   1      19.558  25.917  19.314  0.00  0.00     0.079 H 
ATOM     16  H11 YXS d   1      21.173  25.379  19.887  0.00  0.00     0.079 H 
BRANCH  14  17
ATOM     17  C4' YXS d   1      21.069  25.801  17.761  0.00  0.00     0.090 C 
ATOM     18  C3' YXS d   1      20.373  25.075  16.623  0.00  0.00     0.107 C 
ATOM     19  C2' YXS d   1      21.157  23.799  16.442  0.00  0.00     0.106 C 
ATOM     20  H1  YXS d   1      19.316  24.883  16.859  0.00  0.00     0.092 H 
ATOM     21  C1' YXS d   1      22.542  24.367  16.700  0.00  0.00     0.140 C 
ATOM     22  H2  YXS d   1      20.883  23.055  17.204  0.00  0.00     0.093 H 
ATOM     23  O4' YXS d   1      22.457  25.426  17.688  0.00  0.00    -0.353 OA
ATOM     24  H4  YXS d   1      22.934  24.795  15.766  0.00  0.00     0.122 H 
ATOM     25  H9  YXS d   1      20.957  26.891  17.667  0.00  0.00     0.090 H 
BRANCH  18  26
ATOM     26  O3' YXS d   1      20.498  25.801  15.417  0.00  0.00    -0.272 OA
BRANCH  26  27
ATOM     27  P3  YXS d   1      19.286  26.685  14.809  0.00  0.00     0.422 P 
ATOM     28  O33 YXS d   1      19.750  27.043  13.423  0.00  0.00    -0.617 OA
ATOM     29  O31 YXS d   1      19.193  27.891  15.705  0.00  0.00    -0.617 OA
ATOM     30  O32 YXS d   1      18.049  25.832  14.772  0.00  0.00    -0.617 OA
ENDBRANCH  26  27
ENDBRANCH  18  26
BRANCH  19  31
ATOM     31  O2' YXS d   1      21.014  23.179  15.139  0.00  0.00    -0.388 OA
ATOM     32  H3  YXS d   1      21.312  23.782  14.468  0.00  0.00     0.210 HD
ENDBRANCH  19  31
BRANCH  21  33
ATOM     33  N9  YXS d   1      23.441  23.267  17.127  0.00  0.00    -0.294 N 
ATOM     34  C4  YXS d   1      24.575  23.017  16.486  0.00  0.00     0.167 A 
ATOM     35  N3  YXS d   1      25.172  23.556  15.410  0.00  0.00    -0.222 NA
ATOM     36  C5  YXS d   1      25.189  21.893  17.215  0.00  0.00     0.149 A 
ATOM     37  C2  YXS d   1      26.346  23.046  14.998  0.00  0.00     0.091 A 
ATOM     38  N1  YXS d   1      26.965  22.003  15.609  0.00  0.00    -0.222 NA
ATOM     39  H5  YXS d   1      26.823  23.491  14.133  0.00  0.00     0.146 H 
ATOM     40  C6  YXS d   1      26.457  21.395  16.696  0.00  0.00     0.155 A 
ATOM     41  N6  YXS d   1      27.072  20.368  17.317  0.00  0.00    -0.382 N 
ATOM     42  H6  YXS d   1      26.642  19.936  18.147  0.00  0.00     0.157 HD
ATOM     43  H7  YXS d   1      27.972  20.016  16.961  0.00  0.00     0.157 HD
ATOM     44  N7  YXS d   1      24.364  21.573  18.237  0.00  0.00    -0.236 NA
ATOM     45  C8  YXS d   1      23.296  22.418  18.178  0.00  0.00     0.071 A 
ATOM     46  H8  YXS d   1      22.454  22.413  18.869  0.00  0.00     0.144 H 
ENDBRANCH  21  33
ENDBRANCH  14  17
ENDBRANCH  13  14
ENDBRANCH  10  13
ENDBRANCH   9  10
ENDBRANCH   6   9
ENDBRANCH   5   6
ENDBRANCH   2   5
ENDBRANCH   1   2
BRANCH   1  47
ATOM     47  CP9 YXS d   1      20.716  18.674  22.889  0.00  0.00    -0.065 C 
ATOM     48  H14 YXS d   1      21.199  17.749  22.541  0.00  0.00     0.028 H 
ATOM     49  H15 YXS d   1      19.627  18.592  22.756  0.00  0.00     0.028 H 
ATOM     50  H16 YXS d   1      20.945  18.828  23.954  0.00  0.00     0.028 H 
ENDBRANCH   1  47
BRANCH   1  51
ATOM     51  CP8 YXS d   1      22.734  20.008  22.295  0.00  0.00    -0.065 C 
ATOM     52  H17 YXS d   1      23.099  20.863  21.707  0.00  0.00     0.028 H 
ATOM     53  H18 YXS d   1      23.249  19.092  21.969  0.00  0.00     0.028 H 
ATOM     54  H19 YXS d   1      22.938  20.183  23.362  0.00  0.00     0.028 H 
ENDBRANCH   1  51
BRANCH   1  55
ATOM     55  CP7 YXS d   1      20.957  19.624  20.596  0.00  0.00     0.120 C 
ATOM     56  H20 YXS d   1      19.896  19.369  20.458  0.00  0.00     0.099 H 
BRANCH  55  57
ATOM     57  OP3 YXS d   1      21.267  20.830  19.903  0.00  0.00    -0.385 OA
ATOM     58  H21 YXS d   1      20.724  21.534  20.237  0.00  0.00     0.210 HD
ENDBRANCH  55  57
BRANCH  55  59
ATOM     59  CP6 YXS d   1      21.812  18.526  20.025  0.00  0.00     0.247 C 
ATOM     60  OP2 YXS d   1      21.610  17.349  20.280  0.00  0.00    -0.271 OA
ATOM     61  NP2 YXS d   1      22.802  18.925  19.238  0.00  0.00    -0.358 N 
ATOM     62  H22 YXS d   1      22.928  19.905  19.085  0.00  0.00     0.162 HD
BRANCH  61  63
ATOM     63  CP5 YXS d   1      23.706  18.002  18.593  0.00  0.00     0.003 C 
ATOM     64  H23 YXS d   1      24.201  18.518  17.757  0.00  0.00     0.064 H 
ATOM     65  H24 YXS d   1      23.126  17.151  18.206  0.00  0.00     0.064 H 
BRANCH  63  66
ATOM     66  CP4 YXS d   1      24.775  17.474  19.545  0.00  0.00     0.024 C 
ATOM     67  H25 YXS d   1      24.303  16.925  20.373  0.00  0.00     0.049 H 
ATOM     68  H26 YXS d   1      25.366  18.310  19.948  0.00  0.00     0.049 H 
BRANCH  66  69
ATOM     69  CP3 YXS d   1      25.663  16.550  18.755  0.00  0.00     0.219 C 
ATOM     70  OP1 YXS d   1      25.161  15.641  18.136  0.00  0.00    -0.274 OA
ATOM     71  NP1 YXS d   1      26.950  16.828  18.730  0.00  0.00    -0.360 N 
ATOM     72  H27 YXS d   1      27.290  17.544  19.339  0.00  0.00     0.162 HD
BRANCH  71  73
ATOM     73  CP2 YXS d   1      27.889  16.162  17.880  0.00  0.00     0.003 C 
ATOM     74  H28 YXS d   1      27.375  15.389  17.290  0.00  0.00     0.065 H 
ATOM     75  H29 YXS d   1      28.677  15.695  18.489  0.00  0.00     0.065 H 
BRANCH  73  76
ATOM     76  CP1 YXS d   1      28.501  17.197  16.951  0.00  0.00    -0.001 C 
ATOM     77  H30 YXS d   1      29.099  17.902  17.547  0.00  0.00     0.052 H 
ATOM     78  H31 YXS d   1      27.692  17.742  16.442  0.00  0.00     0.052 H 
BRANCH  76  79
ATOM     79  S   YXS d   1      29.538  16.453  15.739  0.00  0.00    -0.089 SA
BRANCH  79  80
ATOM     80  CS1 YXS d   1      30.871  15.827  16.580  0.00  0.00     0.206 C 
ATOM     81  OS1 YXS d   1      31.219  16.236  17.686  0.00  0.00    -0.284 OA
BRANCH  80  82
ATOM     82  CS2 YXS d   1      31.637  14.770  15.909  0.00  0.00     0.126 C 
ATOM     83  H32 YXS d   1      32.719  14.962  15.955  0.00  0.00     0.081 H 
BRANCH  82  84
ATOM     84  CS3 YXS d   1      31.103  14.701  14.500  0.00  0.00    -0.050 C 
ATOM     85  H33 YXS d   1      31.313  15.648  13.982  0.00  0.00     0.029 H 
ATOM     86  H34 YXS d   1      30.017  14.531  14.527  0.00  0.00     0.029 H 
ATOM     87  H35 YXS d   1      31.590  13.874  13.963  0.00  0.00     0.029 H 
ENDBRANCH  82  84
BRANCH  82  88
ATOM     88  SS4 YXS d   1      31.237  13.292  16.515  0.00  0.00     0.114 S 
ATOM     89  O56 YXS d   1      31.909  12.358  15.646  0.00  0.00    -0.594 OA
ATOM     90  OS5 YXS d   1      31.703  13.205  17.879  0.00  0.00    -0.594 OA
ATOM     91  OS4 YXS d   1      29.784  13.198  16.420  0.00  0.00    -0.594 OA
ENDBRANCH  82  88
ENDBRANCH  80  82
ENDBRANCH  79  80
ENDBRANCH  76  79
ENDBRANCH  73  76
ENDBRANCH  71  73
ENDBRANCH  66  69
ENDBRANCH  63  66
ENDBRANCH  61  63
ENDBRANCH  55  59
ENDBRANCH   1  55
TORSDOF 27
