REMARK  3 active torsions:
REMARK  status: ('A' for Active; 'I' for Inactive)
REMARK    1  A    between atoms: C5_3  and  N1_1 
REMARK    2  A    between atoms: C1_8  and  C5_3 
REMARK    3  A    between atoms: C1_8  and  C2_10 
ROOT
ATOM      1  C4  KJM d   1      -6.847 -14.679 -15.890  0.00  0.00    -0.047 C 
ATOM      2  C8  KJM d   1      -6.416 -13.645 -16.942  0.00  0.00    -0.062 C 
ATOM      3  C1  KJM d   1      -6.889 -13.551 -14.821  0.00  0.00     0.044 C 
ATOM      4  C3  KJM d   1      -6.811 -12.518 -15.982  0.00  0.00    -0.047 C 
ATOM      5  H3  KJM d   1      -6.099 -15.460 -15.692  0.00  0.00     0.035 H 
ATOM      6  H4  KJM d   1      -7.822 -15.147 -16.090  0.00  0.00     0.035 H 
ATOM      7  H7  KJM d   1      -7.006 -13.674 -17.870  0.00  0.00     0.033 H 
ATOM      8  H8  KJM d   1      -5.344 -13.672 -17.188  0.00  0.00     0.033 H 
ATOM      9  H11 KJM d   1      -7.770 -12.037 -16.222  0.00  0.00     0.035 H 
ATOM     10  H12 KJM d   1      -6.037 -11.748 -15.849  0.00  0.00     0.035 H 
ENDROOT
BRANCH   3  11
ATOM     11  C5  KJM d   1      -8.121 -13.316 -13.931  0.00  0.00     0.081 C 
ATOM     12  N2  KJM d   1      -8.922 -14.239 -13.596  0.00  0.00    -0.388 N 
ATOM     13  H13 KJM d   1      -8.760 -15.204 -13.919  0.00  0.00     0.157 HD
ATOM     14  H14 KJM d   1      -9.735 -14.025 -13.001  0.00  0.00     0.157 HD
BRANCH  11  15
ATOM     15  N1  KJM d   1      -8.322 -12.066 -13.519  0.00  0.00    -0.388 N 
ATOM     16  H1  KJM d   1      -9.130 -11.845 -12.920  0.00  0.00     0.157 HD
ATOM     17  H2  KJM d   1      -7.669 -11.320 -13.799  0.00  0.00     0.157 HD
ENDBRANCH  11  15
ENDBRANCH   3  11
BRANCH   3  18
ATOM     18  C2  KJM d   1      -5.677 -13.665 -13.899  0.00  0.00    -0.040 A 
ATOM     19  C6  KJM d   1      -4.776 -12.611 -13.787  0.00  0.00    -0.055 A 
ATOM     20  C9  KJM d   1      -3.657 -12.753 -12.989  0.00  0.00     0.034 A 
ATOM     21  H5  KJM d   1      -4.951 -11.685 -14.322  0.00  0.00     0.086 H 
ATOM     22  C11 KJM d   1      -3.422 -13.906 -12.268  0.00  0.00    -0.062 A 
ATOM     23 CL1  KJM d   1      -2.485 -11.462 -12.950  0.00  0.00    -0.084 Cl
ATOM     24  C10 KJM d   1      -4.327 -14.951 -12.369  0.00  0.00    -0.081 A 
ATOM     25  H10 KJM d   1      -2.546 -13.993 -11.635  0.00  0.00     0.086 H 
ATOM     26  C7  KJM d   1      -5.441 -14.833 -13.185  0.00  0.00    -0.076 A 
ATOM     27  H9  KJM d   1      -4.163 -15.864 -11.808  0.00  0.00     0.083 H 
ATOM     28  H6  KJM d   1      -6.136 -15.661 -13.267  0.00  0.00     0.084 H 
ENDBRANCH   3  18
TORSDOF 3
