REMARK  8 active torsions:
REMARK  status: ('A' for Active; 'I' for Inactive)
REMARK    1  A    between atoms: C18_19  and  C22_7 
REMARK    2  A    between atoms: C22_7  and  N24_22 
REMARK    3  A    between atoms: C02_9  and  C01_8 
REMARK    4  A    between atoms: C02_9  and  C03_10 
REMARK    5  A    between atoms: C05_11  and  C02_9 
REMARK    6  A    between atoms: C02_9  and  O04_23 
REMARK    7  A    between atoms: C11_16  and  C08_14 
REMARK    8  A    between atoms: C16_18  and  C18_19 
ROOT
ATOM      1  C13 KQP d   1       3.915 -13.029  13.445  0.00  0.00     0.035 A 
ATOM      2  C15 KQP d   1       4.893 -12.842  14.378  0.00  0.00    -0.055 A 
ATOM      3  C17 KQP d   1       5.804 -15.057  13.856  0.00  0.00    -0.065 A 
ATOM      4  C11 KQP d   1       4.842 -15.223  12.903  0.00  0.00    -0.024 A 
ATOM      5  C12 KQP d   1       3.847 -14.222  12.697  0.00  0.00    -0.051 A 
ATOM      6  C16 KQP d   1       5.870 -13.819  14.583  0.00  0.00    -0.040 A 
ATOM      7 CL14 KQP d   1       2.719 -11.675  13.256  0.00  0.00    -0.084 Cl
ATOM      8  H2  KQP d   1       4.912 -11.930  14.963  0.00  0.00     0.086 H 
ATOM      9  H3  KQP d   1       6.512 -15.851  14.063  0.00  0.00     0.085 H 
ATOM     10  H17 KQP d   1       3.051 -14.376  11.977  0.00  0.00     0.087 H 
ENDROOT
BRANCH   4  11
ATOM     11  C08 KQP d   1       4.734 -16.474  12.162  0.00  0.00    -0.026 A 
ATOM     12  C07 KQP d   1       5.032 -17.658  12.826  0.00  0.00    -0.072 A 
ATOM     13  C06 KQP d   1       4.893 -18.896  12.170  0.00  0.00    -0.073 A 
ATOM     14  H15 KQP d   1       5.373 -17.628  13.854  0.00  0.00     0.084 H 
ATOM     15  C05 KQP d   1       4.424 -18.925  10.839  0.00  0.00    -0.025 A 
ATOM     16  H14 KQP d   1       5.144 -19.818  12.682  0.00  0.00     0.084 H 
ATOM     17  C10 KQP d   1       4.101 -17.744  10.187  0.00  0.00    -0.073 A 
ATOM     18  C09 KQP d   1       4.242 -16.501  10.845  0.00  0.00    -0.072 A 
ATOM     19  H1  KQP d   1       3.738 -17.775   9.166  0.00  0.00     0.084 H 
ATOM     20  H16 KQP d   1       3.974 -15.580  10.341  0.00  0.00     0.084 H 
BRANCH  15  21
ATOM     21  C02 KQP d   1       4.251 -20.268  10.119  0.00  0.00     0.077 C 
BRANCH  21  22
ATOM     22  C01 KQP d   1       3.100 -21.017  10.774  0.00  0.00    -0.044 C 
ATOM     23  H8  KQP d   1       2.959 -21.985  10.271  0.00  0.00     0.032 H 
ATOM     24  H9  KQP d   1       2.179 -20.422  10.688  0.00  0.00     0.032 H 
ATOM     25  H10 KQP d   1       3.330 -21.186  11.836  0.00  0.00     0.032 H 
ENDBRANCH  21  22
BRANCH  21  26
ATOM     26  C03 KQP d   1       5.551 -21.112  10.193  0.00  0.00    -0.044 C 
ATOM     27  H11 KQP d   1       6.374 -20.560   9.716  0.00  0.00     0.032 H 
ATOM     28  H12 KQP d   1       5.399 -22.067   9.669  0.00  0.00     0.032 H 
ATOM     29  H13 KQP d   1       5.802 -21.308  11.246  0.00  0.00     0.032 H 
ENDBRANCH  21  26
BRANCH  21  30
ATOM     30  O04 KQP d   1       3.888 -20.026   8.724  0.00  0.00    -0.386 OA
ATOM     31  H24 KQP d   1       3.092 -19.509   8.690  0.00  0.00     0.211 HD
ENDBRANCH  21  30
ENDBRANCH  15  21
ENDBRANCH   4  11
BRANCH   6  32
ATOM     32  C18 KQP d   1       6.831 -13.557  15.659  0.00  0.00     0.044 C 
ATOM     33  C21 KQP d   1       7.060 -12.375  16.506  0.00  0.00    -0.047 C 
ATOM     34  C20 KQP d   1       6.926 -13.412  17.607  0.00  0.00    -0.062 C 
ATOM     35  H6  KQP d   1       8.047 -11.900  16.411  0.00  0.00     0.035 H 
ATOM     36  H7  KQP d   1       6.277 -11.603  16.475  0.00  0.00     0.035 H 
ATOM     37  C19 KQP d   1       7.407 -14.486  16.638  0.00  0.00    -0.047 C 
ATOM     38  H4  KQP d   1       5.897 -13.557  17.966  0.00  0.00     0.033 H 
ATOM     39  H5  KQP d   1       7.594 -13.247  18.465  0.00  0.00     0.033 H 
ATOM     40  H18 KQP d   1       6.912 -15.465  16.721  0.00  0.00     0.035 H 
ATOM     41  H19 KQP d   1       8.496 -14.630  16.581  0.00  0.00     0.035 H 
BRANCH  32  42
ATOM     42  C22 KQP d   1       8.103 -13.364  14.788  0.00  0.00     0.081 C 
ATOM     43  N23 KQP d   1       8.410 -12.221  14.341  0.00  0.00    -0.388 N 
ATOM     44  H20 KQP d   1       9.255 -12.104  13.764  0.00  0.00     0.157 HD
ATOM     45  H21 KQP d   1       7.815 -11.408  14.554  0.00  0.00     0.157 HD
BRANCH  42  46
ATOM     46  N24 KQP d   1       8.977 -14.493  14.498  0.00  0.00    -0.388 N 
ATOM     47  H22 KQP d   1       9.819 -14.358  13.920  0.00  0.00     0.157 HD
ATOM     48  H23 KQP d   1       8.753 -15.427  14.871  0.00  0.00     0.157 HD
ENDBRANCH  42  46
ENDBRANCH  32  42
ENDBRANCH   6  32
TORSDOF 8
