REMARK  13 active torsions:
REMARK  status: ('A' for Active; 'I' for Inactive)
REMARK    1  A    between atoms: C10_1  and  C08_11 
REMARK    2  A    between atoms: C11_12  and  C10_1 
REMARK    3  A    between atoms: C13_2  and  C12_13 
REMARK    4  A    between atoms: N14_22  and  C13_2 
REMARK       I    between atoms: C15_3  and  N14_22 
REMARK       I    between atoms: N16_23  and  C15_3 
REMARK    5  A    between atoms: C22_4  and  C23_14 
REMARK    6  A    between atoms: N21_24  and  C22_4 
REMARK    7  A    between atoms: C23_14  and  C24_5 
REMARK    8  A    between atoms: C24_5  and  C25_15 
REMARK    9  A    between atoms: C12_13  and  C11_12 
REMARK   10  A    between atoms: C25_15  and  N26_25 
REMARK   11  A    between atoms: C34_19  and  N35_29 
REMARK   12  A    between atoms: S18_35  and  N16_23 
REMARK   13  A    between atoms: N21_24  and  S18_35 
ROOT
ATOM      1  C15 BQX d   1      51.118  17.898  17.163  0.00  0.00     0.330 C 
ATOM      2  N14 BQX d   1      49.676  17.512  17.286  0.00  0.00    -0.342 N 
ATOM      3  N16 BQX d   1      51.540  18.787  16.064  0.00  0.00    -0.219 N 
ATOM      4  O17 BQX d   1      51.925  17.513  17.882  0.00  0.00    -0.246 OA
ATOM      5  H26 BQX d   1      49.030  17.883  16.619  0.00  0.00     0.164 HD
ATOM      6  H27 BQX d   1      50.913  19.168  15.384  0.00  0.00     0.185 HD
ENDROOT
BRANCH   3   7
ATOM      7  S18 BQX d   1      53.229  19.095  16.083  0.00  0.00     0.322 S 
ATOM      8  O19 BQX d   1      53.995  18.016  15.402  0.00  0.00    -0.182 OA
ATOM      9  O20 BQX d   1      53.564  20.323  15.342  0.00  0.00    -0.182 OA
BRANCH   7  10
ATOM     10  N21 BQX d   1      53.688  19.200  17.691  0.00  0.00    -0.302 N 
ATOM     11  H28 BQX d   1      53.194  18.684  18.391  0.00  0.00     0.173 HD
BRANCH  10  12
ATOM     12  C22 BQX d   1      54.804  20.043  18.057  0.00  0.00     0.004 C 
ATOM     13  H5  BQX d   1      55.400  19.548  18.838  0.00  0.00     0.065 H 
ATOM     14  H6  BQX d   1      55.434  20.224  17.174  0.00  0.00     0.065 H 
BRANCH  12  15
ATOM     15  C23 BQX d   1      54.264  21.389  18.593  0.00  0.00    -0.048 C 
ATOM     16  H18 BQX d   1      53.357  21.209  19.189  0.00  0.00     0.035 H 
ATOM     17  H19 BQX d   1      54.022  22.050  17.748  0.00  0.00     0.035 H 
BRANCH  15  18
ATOM     18  C24 BQX d   1      55.388  22.089  19.520  0.00  0.00    -0.048 C 
ATOM     19  H7  BQX d   1      56.349  22.074  18.985  0.00  0.00     0.035 H 
ATOM     20  H8  BQX d   1      55.481  21.519  20.456  0.00  0.00     0.035 H 
BRANCH  18  21
ATOM     21  C25 BQX d   1      55.043  23.508  19.852  0.00  0.00     0.002 C 
ATOM     22  H20 BQX d   1      54.595  23.999  18.976  0.00  0.00     0.065 H 
ATOM     23  H21 BQX d   1      55.949  24.053  20.154  0.00  0.00     0.065 H 
BRANCH  21  24
ATOM     24  N26 BQX d   1      54.058  23.486  20.985  0.00  0.00    -0.324 N 
ATOM     25  C27 BQX d   1      52.879  24.107  20.972  0.00  0.00     0.165 A 
ATOM     26  C28 BQX d   1      52.256  23.846  22.206  0.00  0.00     0.149 A 
ATOM     27  N31 BQX d   1      52.247  24.857  20.060  0.00  0.00    -0.222 NA
ATOM     28  C34 BQX d   1      50.902  24.440  22.442  0.00  0.00     0.155 A 
ATOM     29  N29 BQX d   1      53.098  23.082  22.904  0.00  0.00    -0.236 NA
ATOM     30  N33 BQX d   1      50.340  25.174  21.512  0.00  0.00    -0.222 NA
ATOM     31  C32 BQX d   1      50.982  25.395  20.317  0.00  0.00     0.091 A 
ATOM     32  H23 BQX d   1      50.498  25.999  19.558  0.00  0.00     0.146 H 
ATOM     33  C30 BQX d   1      54.199  22.859  22.149  0.00  0.00     0.068 A 
ATOM     34  H22 BQX d   1      55.060  22.263  22.447  0.00  0.00     0.143 H 
BRANCH  28  35
ATOM     35  N35 BQX d   1      50.217  24.213  23.677  0.00  0.00    -0.382 N 
ATOM     36  H29 BQX d   1      49.286  24.625  23.833  0.00  0.00     0.157 HD
ATOM     37  H30 BQX d   1      50.655  23.638  24.411  0.00  0.00     0.157 HD
ENDBRANCH  28  35
ENDBRANCH  21  24
ENDBRANCH  18  21
ENDBRANCH  15  18
ENDBRANCH  12  15
ENDBRANCH  10  12
ENDBRANCH   7  10
ENDBRANCH   3   7
BRANCH   2  38
ATOM     38  C13 BQX d   1      49.172  16.644  18.303  0.00  0.00    -0.003 C 
ATOM     39  H3  BQX d   1      48.134  16.376  18.057  0.00  0.00     0.064 H 
ATOM     40  H4  BQX d   1      49.789  15.734  18.329  0.00  0.00     0.064 H 
BRANCH  38  41
ATOM     41  C12 BQX d   1      49.199  17.329  19.755  0.00  0.00    -0.050 C 
ATOM     42  H16 BQX d   1      48.629  18.269  19.720  0.00  0.00     0.035 H 
ATOM     43  H17 BQX d   1      50.242  17.542  20.034  0.00  0.00     0.035 H 
BRANCH  41  44
ATOM     44  C11 BQX d   1      48.553  16.368  20.848  0.00  0.00    -0.062 C 
ATOM     45  H14 BQX d   1      47.601  15.974  20.462  0.00  0.00     0.033 H 
ATOM     46  H15 BQX d   1      49.242  15.534  21.045  0.00  0.00     0.033 H 
BRANCH  44  47
ATOM     47  C10 BQX d   1      48.289  17.121  22.159  0.00  0.00    -0.051 C 
ATOM     48  H1  BQX d   1      49.185  17.062  22.794  0.00  0.00     0.034 H 
ATOM     49  H2  BQX d   1      48.071  18.174  21.930  0.00  0.00     0.034 H 
BRANCH  47  50
ATOM     50  C08 BQX d   1      47.032  16.481  22.957  0.00  0.00     0.012 C 
ATOM     51  C04 BQX d   1      47.368  14.877  23.251  0.00  0.00     0.046 A 
ATOM     52  C03 BQX d   1      46.395  14.528  24.601  0.00  0.00     0.042 A 
ATOM     53  N05 BQX d   1      48.611  14.696  23.564  0.00  0.00    -0.335 N 
ATOM     54  H10 BQX d   1      47.104  14.251  22.386  0.00  0.00     0.077 H 
ATOM     55  C06 BQX d   1      45.764  15.759  24.957  0.00  0.00    -0.002 C 
ATOM     56  N02 BQX d   1      47.231  14.132  25.605  0.00  0.00    -0.336 N 
ATOM     57  H9  BQX d   1      45.651  13.749  24.377  0.00  0.00     0.077 H 
ATOM     58  S07 BQX d   1      46.797  17.053  24.334  0.00  0.00    -0.160 SA
ATOM     59  H11 BQX d   1      45.675  15.838  26.050  0.00  0.00     0.052 H 
ATOM     60  H12 BQX d   1      44.764  15.819  24.502  0.00  0.00     0.052 H 
ATOM     61  C01 BQX d   1      48.677  14.203  25.107  0.00  0.00     0.316 A 
ATOM     62  H24 BQX d   1      46.945  13.842  26.518  0.00  0.00     0.164 HD
ATOM     63  O09 BQX d   1      49.657  13.954  25.734  0.00  0.00    -0.247 OA
ATOM     64  H25 BQX d   1      49.395  14.836  22.959  0.00  0.00     0.164 HD
ATOM     65  H13 BQX d   1      46.124  16.593  22.346  0.00  0.00     0.059 H 
ENDBRANCH  47  50
ENDBRANCH  44  47
ENDBRANCH  41  44
ENDBRANCH  38  41
ENDBRANCH   2  38
TORSDOF 13
