REMARK  15 active torsions:
REMARK  status: ('A' for Active; 'I' for Inactive)
REMARK    1  A    between atoms: C09_15  and  C10_1 
REMARK    2  A    between atoms: C10_1  and  C11_16 
REMARK    3  A    between atoms: C19_19  and  C20_3 
REMARK    4  A    between atoms: C23_20  and  C24_5 
REMARK    5  A    between atoms: O12_45  and  C26_6 
REMARK    6  A    between atoms: C28_7  and  C29_23 
REMARK    7  A    between atoms: C02_9  and  C34_27 
REMARK    8  A    between atoms: C08_14  and  C09_15 
REMARK    9  A    between atoms: C11_16  and  O12_45 
REMARK   10  A    between atoms: N30_42  and  C31_24 
REMARK   11  A    between atoms: C32_25  and  C33_26 
REMARK   12  A    between atoms: C35_28  and  C36_29 
REMARK   13  A    between atoms: N38_44  and  C39_30 
REMARK   14  A    between atoms: C41_32  and  N15_40 
REMARK   15  A    between atoms: C46_37  and  C47_38 
ROOT
ATOM      1  C13 KJP d   1      -5.441 -15.400  96.372  0.00  0.00     0.111 A 
ATOM      2  C01 KJP d   1      -3.715 -16.876  95.980  0.00  0.00     0.059 A 
ATOM      3  C02 KJP d   1      -2.665 -17.998  96.003  0.00  0.00     0.028 A 
ATOM      4  C03 KJP d   1      -1.643 -18.075  94.905  0.00  0.00     0.047 A 
ATOM      5  C05 KJP d   1      -1.668 -17.082  93.803  0.00  0.00    -0.060 A 
ATOM      6  C06 KJP d   1      -2.713 -15.996  93.794  0.00  0.00    -0.069 A 
ATOM      7  C07 KJP d   1      -3.747 -15.917  94.919  0.00  0.00     0.001 A 
ATOM      8  C08 KJP d   1      -4.839 -15.010  95.171  0.00  0.00    -0.013 A 
ATOM      9  C14 KJP d   1      -6.658 -14.949  97.199  0.00  0.00     0.275 C 
ATOM     10  C16 KJP d   1      -5.882 -16.232  99.077  0.00  0.00     0.022 C 
ATOM     11  C19 KJP d   1      -5.229 -17.197  98.132  0.00  0.00     0.030 C 
ATOM     12  N15 KJP d   1      -6.832 -15.391  98.422  0.00  0.00    -0.308 N 
ATOM     13  N18 KJP d   1      -4.747 -16.590  96.863  0.00  0.00    -0.334 N 
ATOM     14  O17 KJP d   1      -7.536 -14.239  96.662  0.00  0.00    -0.265 OA
ATOM     15 CL04 KJP d   1      -0.425 -19.350  94.921  0.00  0.00    -0.083 Cl
ATOM     16  H9  KJP d   1      -0.936 -17.137  93.006  0.00  0.00     0.086 H 
ATOM     17  H10 KJP d   1      -2.732 -15.270  92.989  0.00  0.00     0.085 H 
ATOM     18  H15 KJP d   1      -5.104 -15.600  99.531  0.00  0.00     0.068 H 
ATOM     19  H16 KJP d   1      -6.397 -16.802  99.864  0.00  0.00     0.068 H 
ATOM     20  H17 KJP d   1      -4.370 -17.657  98.643  0.00  0.00     0.075 H 
ENDROOT
BRANCH   8  21
ATOM     21  C09 KJP d   1      -5.244 -13.785  94.259  0.00  0.00    -0.036 C 
ATOM     22  H11 KJP d   1      -5.472 -12.921  94.900  0.00  0.00     0.040 H 
ATOM     23  H12 KJP d   1      -4.402 -13.537  93.596  0.00  0.00     0.040 H 
BRANCH  21  24
ATOM     24  C10 KJP d   1      -6.457 -14.107  93.415  0.00  0.00    -0.041 C 
ATOM     25  H1  KJP d   1      -6.930 -13.171  93.083  0.00  0.00     0.036 H 
ATOM     26  H2  KJP d   1      -7.175 -14.688  94.013  0.00  0.00     0.036 H 
BRANCH  24  27
ATOM     27  C11 KJP d   1      -6.026 -14.940  92.170  0.00  0.00     0.026 C 
ATOM     28  H13 KJP d   1      -6.787 -14.864  91.380  0.00  0.00     0.075 H 
ATOM     29  H14 KJP d   1      -5.890 -15.996  92.448  0.00  0.00     0.075 H 
BRANCH  27  30
ATOM     30  O12 KJP d   1      -4.792 -14.387  91.720  0.00  0.00    -0.351 OA
BRANCH  30  31
ATOM     31  C26 KJP d   1      -4.304 -14.922  90.565  0.00  0.00     0.069 A 
ATOM     32  C25 KJP d   1      -3.483 -14.060  89.655  0.00  0.00    -0.043 A 
ATOM     33  C23 KJP d   1      -2.942 -14.658  88.385  0.00  0.00    -0.037 A 
ATOM     34  H18 KJP d   1      -3.283 -13.025  89.907  0.00  0.00     0.088 H 
ATOM     35  C21 KJP d   1      -3.235 -16.090  88.051  0.00  0.00     0.046 A 
ATOM     36  C28 KJP d   1      -4.065 -16.960  88.957  0.00  0.00    -0.037 A 
ATOM     37 CL22 KJP d   1      -2.551 -16.669  86.540  0.00  0.00    -0.083 Cl
ATOM     38  C27 KJP d   1      -4.602 -16.372  90.234  0.00  0.00    -0.043 A 
ATOM     39  H19 KJP d   1      -5.195 -16.978  90.910  0.00  0.00     0.088 H 
BRANCH  33  40
ATOM     40  C24 KJP d   1      -2.118 -13.858  87.437  0.00  0.00    -0.050 C 
ATOM     41  H6  KJP d   1      -1.998 -12.837  87.828  0.00  0.00     0.033 H 
ATOM     42  H7  KJP d   1      -2.619 -13.820  86.458  0.00  0.00     0.033 H 
ATOM     43  H8  KJP d   1      -1.129 -14.327  87.325  0.00  0.00     0.033 H 
ENDBRANCH  33  40
BRANCH  36  44
ATOM     44  C29 KJP d   1      -4.357 -18.448  88.595  0.00  0.00    -0.050 C 
ATOM     45  H20 KJP d   1      -3.884 -18.691  87.632  0.00  0.00     0.033 H 
ATOM     46  H21 KJP d   1      -5.444 -18.600  88.519  0.00  0.00     0.033 H 
ATOM     47  H22 KJP d   1      -3.949 -19.103  89.379  0.00  0.00     0.033 H 
ENDBRANCH  36  44
ENDBRANCH  30  31
ENDBRANCH  27  30
ENDBRANCH  24  27
ENDBRANCH  21  24
ENDBRANCH   8  21
BRANCH  12  48
ATOM     48  C41 KJP d   1      -8.059 -14.983  99.154  0.00  0.00     0.065 A 
ATOM     49  C40 KJP d   1      -9.347 -15.496  98.990  0.00  0.00     0.006 A 
ATOM     50  N38 KJP d   1     -10.193 -14.837  99.885  0.00  0.00    -0.358 N 
ATOM     51  H35 KJP d   1      -9.641 -16.274  98.287  0.00  0.00     0.115 H 
ATOM     52  C43 KJP d   1      -9.442 -13.945 100.583  0.00  0.00     0.046 A 
ATOM     53  C42 KJP d   1      -8.106 -14.047 100.120  0.00  0.00     0.020 A 
ATOM     54  C44 KJP d   1      -9.805 -12.944 101.693  0.00  0.00    -0.055 A 
ATOM     55  C50 KJP d   1      -6.983 -13.189 100.687  0.00  0.00    -0.052 A 
ATOM     56  C46 KJP d   1      -7.338 -12.216 101.762  0.00  0.00     0.041 A 
ATOM     57  H38 KJP d   1      -5.966 -13.281 100.324  0.00  0.00     0.086 H 
ATOM     58  C45 KJP d   1      -8.714 -12.085 102.263  0.00  0.00    -0.064 A 
ATOM     59  H37 KJP d   1      -8.941 -11.368 103.044  0.00  0.00     0.085 H 
ATOM     60  H36 KJP d   1     -10.823 -12.861 102.055  0.00  0.00     0.087 H 
BRANCH  50  61
ATOM     61  C39 KJP d   1     -11.596 -15.045 100.056  0.00  0.00    -0.014 C 
ATOM     62  H32 KJP d   1     -11.938 -15.825  99.360  0.00  0.00     0.057 H 
ATOM     63  H33 KJP d   1     -12.133 -14.108  99.850  0.00  0.00     0.057 H 
ATOM     64  H34 KJP d   1     -11.796 -15.362 101.090  0.00  0.00     0.057 H 
ENDBRANCH  50  61
BRANCH  56  65
ATOM     65  C47 KJP d   1      -6.235 -11.369 102.335  0.00  0.00     0.209 C 
ATOM     66  O48 KJP d   1      -6.422 -10.846 103.489  0.00  0.00    -0.644 OA
ATOM     67  O49 KJP d   1      -5.145 -11.221 101.687  0.00  0.00    -0.644 OA
ENDBRANCH  56  65
ENDBRANCH  12  48
BRANCH  11  68
ATOM     68  C20 KJP d   1      -6.279 -18.292  97.778  0.00  0.00    -0.055 C 
ATOM     69  H3  KJP d   1      -6.651 -18.756  98.703  0.00  0.00     0.030 H 
ATOM     70  H4  KJP d   1      -5.809 -19.060  97.146  0.00  0.00     0.030 H 
ATOM     71  H5  KJP d   1      -7.119 -17.833  97.235  0.00  0.00     0.030 H 
ENDBRANCH  11  68
BRANCH   3  72
ATOM     72  C34 KJP d   1      -2.645 -18.998  97.156  0.00  0.00     0.028 A 
ATOM     73  C32 KJP d   1      -3.180 -20.282  97.191  0.00  0.00     0.039 A 
ATOM     74  N30 KJP d   1      -2.921 -20.789  98.408  0.00  0.00    -0.278 N 
ATOM     75  N37 KJP d   1      -2.225 -19.836  99.142  0.00  0.00    -0.177 NA
ATOM     76  C35 KJP d   1      -2.065 -18.743  98.363  0.00  0.00     0.064 A 
BRANCH  73  77
ATOM     77  C33 KJP d   1      -3.929 -20.994  96.048  0.00  0.00    -0.035 C 
ATOM     78  H26 KJP d   1      -3.986 -20.327  95.175  0.00  0.00     0.035 H 
ATOM     79  H27 KJP d   1      -4.946 -21.251  96.380  0.00  0.00     0.035 H 
ATOM     80  H28 KJP d   1      -3.390 -21.913  95.773  0.00  0.00     0.035 H 
ENDBRANCH  73  77
BRANCH  74  81
ATOM     81  C31 KJP d   1      -3.288 -22.091  98.871  0.00  0.00     0.003 C 
ATOM     82  H23 KJP d   1      -2.942 -22.223  99.907  0.00  0.00     0.059 H 
ATOM     83  H24 KJP d   1      -2.822 -22.853  98.229  0.00  0.00     0.059 H 
ATOM     84  H25 KJP d   1      -4.382 -22.199  98.834  0.00  0.00     0.059 H 
ENDBRANCH  74  81
BRANCH  76  85
ATOM     85  C36 KJP d   1      -1.355 -17.434  98.756  0.00  0.00    -0.033 C 
ATOM     86  H29 KJP d   1      -0.985 -17.513  99.789  0.00  0.00     0.035 H 
ATOM     87  H30 KJP d   1      -2.064 -16.596  98.684  0.00  0.00     0.035 H 
ATOM     88  H31 KJP d   1      -0.508 -17.258  98.076  0.00  0.00     0.035 H 
ENDBRANCH  76  85
ENDBRANCH   3  72
TORSDOF 15
