REMARK  11 active torsions:
REMARK  status: ('A' for Active; 'I' for Inactive)
REMARK    1  A    between atoms: N2_23  and  C1_1 
REMARK    2  A    between atoms: N2_23  and  C3_2 
REMARK    3  A    between atoms: C5_4  and  C4_3 
REMARK    4  A    between atoms: C4_3  and  N2_23 
REMARK    5  A    between atoms: C8_5  and  C5_4 
REMARK    6  A    between atoms: C5_4  and  O7_24 
REMARK    7  A    between atoms: O9_6  and  C8_5 
REMARK    8  A    between atoms: C10_25  and  O9_6 
REMARK    9  A    between atoms: C17_10  and  N16_28 
REMARK   10  A    between atoms: N16_28  and  C13_26 
REMARK   11  A    between atoms: N26_34  and  C29_36 
ROOT
ATOM      1  N16 KLM d   1      19.422   5.311  -1.083  0.00  0.00    -0.188 N 
ATOM      2  H28 KLM d   1      18.646   5.096  -1.726  0.00  0.00     0.184 HD
ENDROOT
BRANCH   1   3
ATOM      3  C17 KLM d   1      19.119   5.286   0.262  0.00  0.00     0.728 A 
ATOM      4  N18 KLM d   1      17.922   4.826   0.601  0.00  0.00    -0.073 NA
ATOM      5  C19 KLM d   1      17.548   4.777   1.892  0.00  0.00     0.051 A 
ATOM      6  C20 KLM d   1      18.395   5.236   2.891  0.00  0.00     0.101 A 
ATOM      7  H15 KLM d   1      16.576   4.375   2.155  0.00  0.00     0.119 H 
ATOM      8  C27 KLM d   1      19.643   5.736   2.493  0.00  0.00     0.185 A 
ATOM      9  N21 KLM d   1      18.078   5.151   4.245  0.00  0.00    -0.314 N 
ATOM     10  N26 KLM d   1      20.574   6.191   3.423  0.00  0.00    -0.256 N 
ATOM     11  N28 KLM d   1      19.936   5.747   1.193  0.00  0.00    -0.042 NA
ATOM     12  C24 KLM d   1      20.297   6.081   4.753  0.00  0.00     0.322 A 
ATOM     13  O25 KLM d   1      21.102   6.423   5.592  0.00  0.00    -0.261 OA
ATOM     14  C22 KLM d   1      18.993   5.496   5.188  0.00  0.00     0.315 A 
ATOM     15  O23 KLM d   1      18.716   5.411   6.377  0.00  0.00    -0.262 OA
ATOM     16  H29 KLM d   1      17.172   4.834   4.524  0.00  0.00     0.169 HD
BRANCH  10  17
ATOM     17  C29 KLM d   1      21.766   6.795   2.975  0.00  0.00     0.045 A 
ATOM     18  C30 KLM d   1      22.892   6.125   2.545  0.00  0.00    -0.050 A 
ATOM     19  C31 KLM d   1      23.989   6.840   2.100  0.00  0.00    -0.050 A 
ATOM     20  H16 KLM d   1      22.917   5.041   2.556  0.00  0.00     0.087 H 
ATOM     21  C32 KLM d   1      25.307   6.330   1.602  0.00  0.00    -0.040 C 
ATOM     22  C35 KLM d   1      23.985   8.237   2.086  0.00  0.00    -0.052 A 
ATOM     23  C33 KLM d   1      26.259   7.540   1.635  0.00  0.00    -0.058 C 
ATOM     24  H17 KLM d   1      25.208   5.948   0.575  0.00  0.00     0.040 H 
ATOM     25  H18 KLM d   1      25.681   5.529   2.257  0.00  0.00     0.040 H 
ATOM     26  C34 KLM d   1      25.313   8.750   1.561  0.00  0.00    -0.040 C 
ATOM     27  H19 KLM d   1      26.944   7.524   0.774  0.00  0.00     0.033 H 
ATOM     28  H20 KLM d   1      26.843   7.555   2.567  0.00  0.00     0.033 H 
ATOM     29  H21 KLM d   1      25.210   9.099   0.523  0.00  0.00     0.040 H 
ATOM     30  H22 KLM d   1      25.686   9.572   2.189  0.00  0.00     0.040 H 
ATOM     31  C36 KLM d   1      22.857   8.914   2.509  0.00  0.00    -0.074 A 
ATOM     32  C37 KLM d   1      21.754   8.199   2.939  0.00  0.00    -0.056 A 
ATOM     33  H23 KLM d   1      22.837   9.998   2.504  0.00  0.00     0.084 H 
ATOM     34  H24 KLM d   1      20.864   8.732   3.254  0.00  0.00     0.087 H 
ENDBRANCH  10  17
ENDBRANCH   1   3
BRANCH   1  35
ATOM     35  C13 KLM d   1      20.659   5.594  -1.683  0.00  0.00     0.049 A 
ATOM     36  C12 KLM d   1      21.734   6.282  -1.085  0.00  0.00    -0.054 A 
ATOM     37  C11 KLM d   1      22.909   6.536  -1.808  0.00  0.00    -0.049 A 
ATOM     38  H13 KLM d   1      21.652   6.618  -0.058  0.00  0.00     0.087 H 
ATOM     39  C10 KLM d   1      23.049   6.075  -3.113  0.00  0.00     0.069 A 
ATOM     40  H12 KLM d   1      23.714   7.096  -1.346  0.00  0.00     0.087 H 
ATOM     41  C15 KLM d   1      21.991   5.411  -3.711  0.00  0.00    -0.049 A 
ATOM     42  C14 KLM d   1      20.806   5.167  -3.009  0.00  0.00    -0.054 A 
ATOM     43  H14 KLM d   1      22.082   5.076  -4.738  0.00  0.00     0.087 H 
ATOM     44  H27 KLM d   1      19.993   4.642  -3.496  0.00  0.00     0.087 H 
BRANCH  39  45
ATOM     45  O9  KLM d   1      24.151   6.255  -3.912  0.00  0.00    -0.349 OA
BRANCH  45  46
ATOM     46  C8  KLM d   1      25.340   6.983  -3.612  0.00  0.00     0.051 C 
ATOM     47  H10 KLM d   1      25.116   8.057  -3.532  0.00  0.00     0.079 H 
ATOM     48  H11 KLM d   1      25.772   6.627  -2.665  0.00  0.00     0.079 H 
BRANCH  46  49
ATOM     49  C5  KLM d   1      26.324   6.733  -4.770  0.00  0.00     0.080 C 
ATOM     50  H9  KLM d   1      27.316   7.119  -4.492  0.00  0.00     0.088 H 
BRANCH  49  51
ATOM     51  C4  KLM d   1      25.851   7.443  -6.053  0.00  0.00     0.108 C 
ATOM     52  H7  KLM d   1      25.800   8.526  -5.866  0.00  0.00     0.080 H 
ATOM     53  H8  KLM d   1      24.852   7.070  -6.322  0.00  0.00     0.080 H 
BRANCH  51  54
ATOM     54  N2  KLM d   1      26.781   7.191  -7.180  0.00  0.00    -0.076 N 
ATOM     55  H25 KLM d   1      27.666   6.932  -6.773  0.00  0.00     0.279 HD
BRANCH  54  56
ATOM     56  C1  KLM d   1      26.348   6.075  -8.037  0.00  0.00     0.066 C 
ATOM     57  H1  KLM d   1      27.073   5.936  -8.852  0.00  0.00     0.068 H 
ATOM     58  H2  KLM d   1      25.359   6.301  -8.461  0.00  0.00     0.068 H 
ATOM     59  H3  KLM d   1      26.288   5.154  -7.438  0.00  0.00     0.068 H 
ENDBRANCH  54  56
BRANCH  54  60
ATOM     60  C3  KLM d   1      27.012   8.384  -8.011  0.00  0.00     0.066 C 
ATOM     61  H4  KLM d   1      27.336   9.219  -7.372  0.00  0.00     0.068 H 
ATOM     62  H5  KLM d   1      26.080   8.657  -8.527  0.00  0.00     0.068 H 
ATOM     63  H6  KLM d   1      27.793   8.167  -8.755  0.00  0.00     0.068 H 
ENDBRANCH  54  60
ENDBRANCH  51  54
ENDBRANCH  49  51
BRANCH  49  64
ATOM     64  O7  KLM d   1      26.411   5.320  -5.004  0.00  0.00    -0.392 OA
ATOM     65  H26 KLM d   1      25.552   4.984  -5.232  0.00  0.00     0.210 HD
ENDBRANCH  49  64
ENDBRANCH  46  49
ENDBRANCH  45  46
ENDBRANCH  39  45
ENDBRANCH   1  35
TORSDOF 11
