REMARK  11 active torsions:
REMARK  status: ('A' for Active; 'I' for Inactive)
REMARK    1  A    between atoms: C14_13  and  C4_1 
REMARK    2  A    between atoms: C13_5  and  C3_11 
REMARK    3  A    between atoms: C19_16  and  C22_10 
REMARK       I    between atoms: C22_10  and  N25_19 
REMARK    4  A    between atoms: C18_15  and  C12_12 
REMARK    5  A    between atoms: N25_19  and  C37_23 
REMARK    6  A    between atoms: C37_23  and  C38_24 
REMARK    7  A    between atoms: C38_24  and  N4_25 
REMARK    8  A    between atoms: N4_25  and  C39_26 
REMARK    9  A    between atoms: N4_25  and  C40_27 
REMARK   10  A    between atoms: C39_26  and  C42_29 
REMARK   11  A    between atoms: C40_27  and  C41_28 
ROOT
ATOM      1  C13 B49 d   1     -24.236  75.674 146.786  0.00  0.00    -0.018 A 
ATOM      2  C14 B49 d   1     -26.066  76.887 146.292  0.00  0.00     0.022 A 
ATOM      3  C18 B49 d   1     -25.314  75.219 147.550  0.00  0.00     0.040 A 
ATOM      4  C19 B49 d   1     -24.704  76.740 145.984  0.00  0.00     0.062 A 
ATOM      5  N23 B49 d   1     -26.399  75.989 147.224  0.00  0.00    -0.359 N 
ATOM      6  H11 B49 d   1     -27.337  75.890 147.638  0.00  0.00     0.166 HD
ENDROOT
BRANCH   4   7
ATOM      7  C22 B49 d   1     -23.924  77.567 144.929  0.00  0.00     0.254 C 
ATOM      8  N25 B49 d   1     -22.515  77.844 145.094  0.00  0.00    -0.355 N 
ATOM      9  H13 B49 d   1     -22.031  77.466 145.883  0.00  0.00     0.162 HD
ATOM     10  O28 B49 d   1     -24.511  77.940 143.925  0.00  0.00    -0.268 OA
BRANCH   8  11
ATOM     11  C37 B49 d   1     -21.783  78.666 144.129  0.00  0.00     0.018 C 
ATOM     12  H14 B49 d   1     -22.303  78.671 143.160  0.00  0.00     0.066 H 
ATOM     13  H15 B49 d   1     -20.762  78.279 143.995  0.00  0.00     0.066 H 
BRANCH  11  14
ATOM     14  C38 B49 d   1     -21.742  80.092 144.723  0.00  0.00     0.098 C 
ATOM     15  H16 B49 d   1     -20.689  80.340 144.923  0.00  0.00     0.078 H 
ATOM     16  H17 B49 d   1     -22.301  80.074 145.670  0.00  0.00     0.078 H 
BRANCH  14  17
ATOM     17  N4  B49 d   1     -22.306  81.175 143.891  0.00  0.00    -0.070 N 
ATOM     18  H18 B49 d   1     -22.362  81.963 144.517  0.00  0.00     0.279 HD
BRANCH  17  19
ATOM     19  C39 B49 d   1     -23.696  80.959 143.481  0.00  0.00     0.080 C 
ATOM     20  H19 B49 d   1     -24.211  80.387 144.267  0.00  0.00     0.075 H 
ATOM     21  H20 B49 d   1     -23.702  80.382 142.544  0.00  0.00     0.075 H 
BRANCH  19  22
ATOM     22  C42 B49 d   1     -24.455  82.283 143.253  0.00  0.00    -0.053 C 
ATOM     23  H26 B49 d   1     -25.489  82.065 142.948  0.00  0.00     0.029 H 
ATOM     24  H27 B49 d   1     -23.954  82.862 142.463  0.00  0.00     0.029 H 
ATOM     25  H28 B49 d   1     -24.463  82.866 144.185  0.00  0.00     0.029 H 
ENDBRANCH  19  22
ENDBRANCH  17  19
BRANCH  17  26
ATOM     26  C40 B49 d   1     -21.399  81.628 142.837  0.00  0.00     0.080 C 
ATOM     27  H21 B49 d   1     -21.975  81.841 141.925  0.00  0.00     0.075 H 
ATOM     28  H22 B49 d   1     -20.659  80.841 142.628  0.00  0.00     0.075 H 
BRANCH  26  29
ATOM     29  C41 B49 d   1     -20.672  82.907 143.295  0.00  0.00    -0.053 C 
ATOM     30  H23 B49 d   1     -19.991  83.246 142.501  0.00  0.00     0.029 H 
ATOM     31  H24 B49 d   1     -20.095  82.694 144.207  0.00  0.00     0.029 H 
ATOM     32  H25 B49 d   1     -21.411  83.694 143.504  0.00  0.00     0.029 H 
ENDBRANCH  26  29
ENDBRANCH  17  26
ENDBRANCH  14  17
ENDBRANCH  11  14
ENDBRANCH   8  11
ENDBRANCH   4   7
BRANCH   1  33
ATOM     33  C3  B49 d   1     -22.835  75.099 146.795  0.00  0.00    -0.048 C 
ATOM     34  H7  B49 d   1     -22.780  74.278 147.525  0.00  0.00     0.033 H 
ATOM     35  H8  B49 d   1     -22.118  75.885 147.073  0.00  0.00     0.033 H 
ATOM     36  H9  B49 d   1     -22.590  74.716 145.794  0.00  0.00     0.033 H 
ENDBRANCH   1  33
BRANCH   2  37
ATOM     37  C4  B49 d   1     -27.072  77.886 145.703  0.00  0.00    -0.036 C 
ATOM     38  H1  B49 d   1     -28.058  77.730 146.166  0.00  0.00     0.035 H 
ATOM     39  H2  B49 d   1     -27.149  77.731 144.617  0.00  0.00     0.035 H 
ATOM     40  H3  B49 d   1     -26.730  78.912 145.904  0.00  0.00     0.035 H 
ENDBRANCH   2  37
BRANCH   3  41
ATOM     41  C12 B49 d   1     -25.265  74.002 148.505  0.00  0.00    -0.041 C 
ATOM     42  C20 B49 d   1     -26.280  73.569 149.287  0.00  0.00     0.047 A 
ATOM     43  C17 B49 d   1     -26.123  72.408 150.220  0.00  0.00     0.009 A 
ATOM     44  C21 B49 d   1     -27.675  73.943 149.334  0.00  0.00     0.257 A 
ATOM     45  C7  B49 d   1     -24.993  71.610 150.560  0.00  0.00    -0.033 A 
ATOM     46  C16 B49 d   1     -27.341  72.185 150.870  0.00  0.00     0.046 A 
ATOM     47  C15 B49 d   1     -25.114  70.618 151.556  0.00  0.00     0.117 A 
ATOM     48  H6  B49 d   1     -24.046  71.764 150.056  0.00  0.00     0.089 H 
ATOM     49  C5  B49 d   1     -26.344  70.396 152.213  0.00  0.00    -0.043 A 
ATOM     50  F29 B49 d   1     -24.070  69.844 151.855  0.00  0.00    -0.206 F 
ATOM     51  C6  B49 d   1     -27.459  71.201 151.884  0.00  0.00    -0.053 A 
ATOM     52  H4  B49 d   1     -26.433  69.617 152.962  0.00  0.00     0.088 H 
ATOM     53  H5  B49 d   1     -28.400  71.066 152.405  0.00  0.00     0.087 H 
ATOM     54  N24 B49 d   1     -28.315  73.176 150.356  0.00  0.00    -0.322 N 
ATOM     55  H12 B49 d   1     -29.258  73.289 150.670  0.00  0.00     0.169 HD
ATOM     56  O27 B49 d   1     -28.259  74.786 148.677  0.00  0.00    -0.267 OA
ATOM     57  H10 B49 d   1     -24.330  73.445 148.551  0.00  0.00     0.088 H 
ENDBRANCH   3  41
TORSDOF 11
