REMARK  7 active torsions:
REMARK  status: ('A' for Active; 'I' for Inactive)
REMARK    1  A    between atoms: N2_1  and  C1_4 
REMARK    2  A    between atoms: C8_21  and  C10_2 
REMARK    3  A    between atoms: N7_30  and  C4_3 
REMARK    4  A    between atoms: C11_5  and  N23_26 
REMARK    5  A    between atoms: C13_6  and  C15_7 
REMARK    6  A    between atoms: C27_15  and  N34_28 
REMARK    7  A    between atoms: C3_17  and  N24_27 
REMARK       I    between atoms: C8_21  and  N7_30 
ROOT
ATOM      1  N2  KUV d   1     -36.392  -2.507   6.713  0.00  0.00    -0.261 N 
ATOM      2  C4  KUV d   1     -38.493  -2.309   6.106  0.00  0.00     0.095 A 
ATOM      3  C3  KUV d   1     -37.675  -2.510   7.175  0.00  0.00     0.129 A 
ATOM      4  C5  KUV d   1     -37.693  -2.119   4.974  0.00  0.00     0.051 A 
ATOM      5  N6  KUV d   1     -36.441  -2.263   5.342  0.00  0.00    -0.182 NA
ATOM      6  H17 KUV d   1     -38.045  -1.893   3.969  0.00  0.00     0.121 H 
ENDROOT
BRANCH   2   7
ATOM      7  N7  KUV d   1     -39.890  -2.176   6.231  0.00  0.00    -0.318 N 
ATOM      8  C8  KUV d   1     -40.750  -1.992   5.209  0.00  0.00     0.277 C 
ATOM      9  O9  KUV d   1     -40.383  -2.001   4.045  0.00  0.00    -0.266 OA
ATOM     10  H23 KUV d   1     -40.275  -2.222   7.153  0.00  0.00     0.169 HD
BRANCH   8  11
ATOM     11  C10 KUV d   1     -42.143  -1.749   5.588  0.00  0.00     0.159 A 
ATOM     12  C11 KUV d   1     -43.137  -1.392   4.703  0.00  0.00     0.104 A 
ATOM     13  S12 KUV d   1     -44.599  -1.141   5.644  0.00  0.00    -0.050 SA
ATOM     14  C13 KUV d   1     -43.755  -1.506   7.155  0.00  0.00     0.117 A 
ATOM     15  N14 KUV d   1     -42.513  -1.760   6.876  0.00  0.00    -0.232 NA
BRANCH  12  16
ATOM     16  N23 KUV d   1     -43.035  -1.279   3.329  0.00  0.00    -0.391 N 
ATOM     17  H18 KUV d   1     -43.856  -1.002   2.773  0.00  0.00     0.157 HD
ATOM     18  H19 KUV d   1     -42.138  -1.472   2.862  0.00  0.00     0.157 HD
ENDBRANCH  12  16
BRANCH  14  19
ATOM     19  C15 KUV d   1     -44.349  -1.513   8.523  0.00  0.00     0.077 A 
ATOM     20  C16 KUV d   1     -43.761  -2.228   9.581  0.00  0.00     0.132 A 
ATOM     21  C17 KUV d   1     -44.333  -2.226  10.845  0.00  0.00    -0.044 A 
ATOM     22  F22 KUV d   1     -42.617  -2.913   9.382  0.00  0.00    -0.205 F 
ATOM     23  C18 KUV d   1     -45.506  -1.521  11.079  0.00  0.00    -0.077 A 
ATOM     24  H4  KUV d   1     -43.863  -2.776  11.652  0.00  0.00     0.088 H 
ATOM     25  C19 KUV d   1     -46.105  -0.829  10.041  0.00  0.00    -0.044 A 
ATOM     26  H5  KUV d   1     -45.950  -1.513  12.068  0.00  0.00     0.083 H 
ATOM     27  C20 KUV d   1     -45.539  -0.819   8.778  0.00  0.00     0.132 A 
ATOM     28  H6  KUV d   1     -47.028  -0.289  10.219  0.00  0.00     0.088 H 
ATOM     29  F21 KUV d   1     -46.129  -0.138   7.774  0.00  0.00    -0.205 F 
ENDBRANCH  14  19
ENDBRANCH   8  11
ENDBRANCH   2   7
BRANCH   3  30
ATOM     30  N24 KUV d   1     -38.145  -2.738   8.473  0.00  0.00    -0.266 NA
ATOM     31  C25 KUV d   1     -37.735  -4.025   8.992  0.00  0.00    -0.013 C 
ATOM     32  C26 KUV d   1     -38.217  -4.337  10.421  0.00  0.00    -0.025 C 
ATOM     33  H7  KUV d   1     -38.129  -4.804   8.322  0.00  0.00     0.056 H 
ATOM     34  H8  KUV d   1     -36.636  -4.059   8.988  0.00  0.00     0.056 H 
ATOM     35  C27 KUV d   1     -39.626  -3.768  10.691  0.00  0.00     0.130 C 
ATOM     36  H9  KUV d   1     -37.511  -3.894  11.139  0.00  0.00     0.037 H 
ATOM     37  H10 KUV d   1     -38.242  -5.428  10.557  0.00  0.00     0.037 H 
ATOM     38  C29 KUV d   1     -39.601  -2.342  11.183  0.00  0.00     0.107 C 
ATOM     39  H11 KUV d   1     -40.209  -3.805   9.759  0.00  0.00     0.088 H 
ATOM     40  C31 KUV d   1     -39.298  -1.350  10.040  0.00  0.00    -0.023 C 
ATOM     41  F33 KUV d   1     -40.866  -2.071  11.735  0.00  0.00    -0.247 F 
ATOM     42  H12 KUV d   1     -38.828  -2.237  11.958  0.00  0.00     0.094 H 
ATOM     43  C32 KUV d   1     -37.998  -1.625   9.435  0.00  0.00    -0.013 C 
ATOM     44  H13 KUV d   1     -39.297  -0.327  10.444  0.00  0.00     0.039 H 
ATOM     45  H14 KUV d   1     -40.078  -1.440   9.270  0.00  0.00     0.039 H 
ATOM     46  H15 KUV d   1     -37.278  -1.906  10.218  0.00  0.00     0.056 H 
ATOM     47  H16 KUV d   1     -37.638  -0.728   8.910  0.00  0.00     0.056 H 
BRANCH  35  48
ATOM     48  N34 KUV d   1     -40.263  -4.630  11.707  0.00  0.00    -0.072 N 
ATOM     49  H20 KUV d   1     -40.279  -5.582  11.377  0.00  0.00     0.274 HD
ATOM     50  H21 KUV d   1     -41.206  -4.315  11.871  0.00  0.00     0.274 HD
ATOM     51  H22 KUV d   1     -39.738  -4.581  12.566  0.00  0.00     0.274 HD
ENDBRANCH  35  48
ENDBRANCH   3  30
BRANCH   1  52
ATOM     52  C1  KUV d   1     -35.177  -2.726   7.510  0.00  0.00     0.004 C 
ATOM     53  H1  KUV d   1     -34.294  -2.664   6.857  0.00  0.00     0.059 H 
ATOM     54  H2  KUV d   1     -35.219  -3.721   7.976  0.00  0.00     0.059 H 
ATOM     55  H3  KUV d   1     -35.109  -1.957   8.293  0.00  0.00     0.059 H 
ENDBRANCH   1  52
TORSDOF 7
