REMARK  15 active torsions:
REMARK  status: ('A' for Active; 'I' for Inactive)
REMARK    1  A    between atoms: O11_2  and  C11_1 
REMARK    2  A    between atoms: C42_16  and  O11_2 
REMARK    3  A    between atoms: C21_3  and  N21_4 
REMARK    4  A    between atoms: C51_7  and  C61_9 
REMARK    5  A    between atoms: C61_9  and  N61_10 
REMARK    6  A    between atoms: C12_11  and  N12_12 
REMARK    7  A    between atoms: C32_14  and  N32_15 
REMARK    8  A    between atoms: C52_17  and  O52_18 
REMARK    9  A    between atoms: C62_19  and  O62_20 
REMARK   10  A    between atoms: O62_20  and  C13_21 
REMARK   11  A    between atoms: C23_22  and  O23_23 
REMARK   12  A    between atoms: C33_24  and  N33_25 
REMARK   13  A    between atoms: N33_25  and  C93_31 
REMARK   14  A    between atoms: C43_26  and  O43_27 
REMARK   15  A    between atoms: C43_26  and  C83_30 
ROOT
ATOM      1  C12 LLL d   1     112.509 -15.293  -5.624  0.00  0.00     0.129 C 
ATOM      2  C22 LLL d   1     112.758 -16.762  -5.295  0.00  0.00    -0.007 C 
ATOM      3  C32 LLL d   1     111.411 -17.472  -5.298  0.00  0.00     0.129 C 
ATOM      4  C42 LLL d   1     110.728 -17.416  -6.666  0.00  0.00     0.096 C 
ATOM      5  C52 LLL d   1     110.595 -15.956  -7.110  0.00  0.00     0.089 C 
ATOM      6  C62 LLL d   1     111.919 -15.196  -7.034  0.00  0.00     0.096 C 
ATOM      7  H16 LLL d   1     111.790 -14.880  -4.901  0.00  0.00     0.088 H 
ATOM      8  H20 LLL d   1     113.225 -16.850  -4.303  0.00  0.00     0.039 H 
ATOM      9  H21 LLL d   1     113.419 -17.209  -6.053  0.00  0.00     0.039 H 
ATOM     10  H22 LLL d   1     110.758 -16.990  -4.556  0.00  0.00     0.088 H 
ATOM     11  H26 LLL d   1     111.322 -17.960  -7.415  0.00  0.00     0.090 H 
ATOM     12  H27 LLL d   1     109.860 -15.455  -6.463  0.00  0.00     0.091 H 
ATOM     13  H29 LLL d   1     112.630 -15.600  -7.770  0.00  0.00     0.090 H 
ENDROOT
BRANCH   6  14
ATOM     14  O62 LLL d   1     111.649 -13.826  -7.300  0.00  0.00    -0.349 OA
BRANCH  14  15
ATOM     15  C13 LLL d   1     112.453 -13.211  -8.309  0.00  0.00     0.158 C 
ATOM     16  C23 LLL d   1     112.579 -11.740  -7.911  0.00  0.00     0.113 C 
ATOM     17  C33 LLL d   1     111.196 -11.070  -7.880  0.00  0.00     0.161 C 
ATOM     18  H31 LLL d   1     113.236 -11.215  -8.620  0.00  0.00     0.094 H 
ATOM     19  C43 LLL d   1     110.517 -11.291  -9.241  0.00  0.00     0.106 C 
ATOM     20  H33 LLL d   1     110.584 -11.523  -7.086  0.00  0.00     0.093 H 
ATOM     21  C53 LLL d   1     110.541 -12.778  -9.614  0.00  0.00     0.053 C 
ATOM     22  O53 LLL d   1     111.856 -13.313  -9.611  0.00  0.00    -0.356 OA
ATOM     23  H37 LLL d   1     110.113 -12.897 -10.620  0.00  0.00     0.079 H 
ATOM     24  H38 LLL d   1     109.931 -13.335  -8.888  0.00  0.00     0.079 H 
ATOM     25  H30 LLL d   1     113.446 -13.684  -8.332  0.00  0.00     0.133 H 
BRANCH  16  26
ATOM     26  O23 LLL d   1     113.117 -11.681  -6.599  0.00  0.00    -0.388 OA
ATOM     27  H32 LLL d   1     113.203 -10.773  -6.334  0.00  0.00     0.210 HD
ENDBRANCH  16  26
BRANCH  17  28
ATOM     28  N33 LLL d   1     111.348  -9.624  -7.615  0.00  0.00    -0.069 N 
ATOM     29  H34 LLL d   1     111.066  -9.103  -8.431  0.00  0.00     0.277 HD
ATOM     30  H35 LLL d   1     112.313  -9.422  -7.404  0.00  0.00     0.277 HD
BRANCH  28  31
ATOM     31  C93 LLL d   1     110.505  -9.233  -6.469  0.00  0.00     0.065 C 
ATOM     32  H42 LLL d   1     110.623  -8.156  -6.277  0.00  0.00     0.067 H 
ATOM     33  H43 LLL d   1     110.812  -9.800  -5.578  0.00  0.00     0.067 H 
ATOM     34  H44 LLL d   1     109.451  -9.451  -6.697  0.00  0.00     0.067 H 
ENDBRANCH  28  31
ENDBRANCH  17  28
BRANCH  19  35
ATOM     35  O43 LLL d   1     111.229 -10.519 -10.200  0.00  0.00    -0.386 OA
ATOM     36  H36 LLL d   1     110.832 -10.634 -11.055  0.00  0.00     0.210 HD
ENDBRANCH  19  35
BRANCH  19  37
ATOM     37  C83 LLL d   1     109.056 -10.835  -9.183  0.00  0.00    -0.044 C 
ATOM     38  H39 LLL d   1     108.582 -10.998 -10.162  0.00  0.00     0.031 H 
ATOM     39  H40 LLL d   1     109.016  -9.765  -8.930  0.00  0.00     0.031 H 
ATOM     40  H41 LLL d   1     108.521 -11.414  -8.416  0.00  0.00     0.031 H 
ENDBRANCH  19  37
ENDBRANCH  14  15
ENDBRANCH   6  14
BRANCH   1  41
ATOM     41  N12 LLL d   1     113.752 -14.523  -5.548  0.00  0.00    -0.072 N 
ATOM     42  H17 LLL d   1     114.134 -14.592  -4.618  0.00  0.00     0.274 HD
ATOM     43  H18 LLL d   1     113.562 -13.557  -5.763  0.00  0.00     0.274 HD
ATOM     44  H19 LLL d   1     114.416 -14.890  -6.212  0.00  0.00     0.274 HD
ENDBRANCH   1  41
BRANCH   5  45
ATOM     45  O52 LLL d   1     110.144 -15.929  -8.455  0.00  0.00    -0.390 OA
ATOM     46  H28 LLL d   1     110.772 -16.379  -9.008  0.00  0.00     0.210 HD
ENDBRANCH   5  45
BRANCH   4  47
ATOM     47  O11 LLL d   1     109.469 -18.078  -6.476  0.00  0.00    -0.349 OA
BRANCH  47  48
ATOM     48  C11 LLL d   1     108.567 -18.118  -7.598  0.00  0.00     0.159 C 
ATOM     49  C21 LLL d   1     107.231 -18.695  -7.113  0.00  0.00     0.147 C 
ATOM     50  C31 LLL d   1     106.493 -19.287  -8.293  0.00  0.00    -0.032 C 
ATOM     51  H2  LLL d   1     106.635 -17.903  -6.636  0.00  0.00     0.091 H 
ATOM     52  C41 LLL d   1     107.281 -20.546  -8.706  0.00  0.00    -0.037 C 
ATOM     53  H6  LLL d   1     106.462 -18.567  -9.124  0.00  0.00     0.036 H 
ATOM     54  H7  LLL d   1     105.467 -19.557  -8.004  0.00  0.00     0.036 H 
ATOM     55  C51 LLL d   1     108.785 -20.303  -8.514  0.00  0.00     0.064 C 
ATOM     56  H8  LLL d   1     107.080 -20.773  -9.763  0.00  0.00     0.036 H 
ATOM     57  H9  LLL d   1     106.966 -21.395  -8.082  0.00  0.00     0.036 H 
ATOM     58  O51 LLL d   1     109.071 -18.923  -8.667  0.00  0.00    -0.352 OA
ATOM     59  H10 LLL d   1     109.101 -20.636  -7.514  0.00  0.00     0.086 H 
ATOM     60  H1  LLL d   1     108.412 -17.094  -7.970  0.00  0.00     0.132 H 
BRANCH  49  61
ATOM     61  N21 LLL d   1     107.441 -19.795  -6.192  0.00  0.00    -0.070 N 
ATOM     62  H3  LLL d   1     106.549 -20.155  -5.889  0.00  0.00     0.274 HD
ATOM     63  H4  LLL d   1     107.961 -19.469  -5.392  0.00  0.00     0.274 HD
ATOM     64  H5  LLL d   1     107.959 -20.526  -6.654  0.00  0.00     0.274 HD
ENDBRANCH  49  61
BRANCH  55  65
ATOM     65  C61 LLL d   1     109.501 -21.115  -9.591  0.00  0.00     0.103 C 
ATOM     66  H11 LLL d   1     108.814 -21.270 -10.436  0.00  0.00     0.079 H 
ATOM     67  H12 LLL d   1     109.789 -22.089  -9.169  0.00  0.00     0.079 H 
BRANCH  65  68
ATOM     68  N61 LLL d   1     110.706 -20.435 -10.079  0.00  0.00    -0.077 N 
ATOM     69  H13 LLL d   1     111.148 -21.001 -10.786  0.00  0.00     0.274 HD
ATOM     70  H14 LLL d   1     111.346 -20.294  -9.313  0.00  0.00     0.274 HD
ATOM     71  H15 LLL d   1     110.452 -19.543 -10.473  0.00  0.00     0.274 HD
ENDBRANCH  65  68
ENDBRANCH  55  65
ENDBRANCH  47  48
ENDBRANCH   4  47
BRANCH   3  72
ATOM     72  N32 LLL d   1     111.603 -18.879  -4.937  0.00  0.00    -0.072 N 
ATOM     73  H23 LLL d   1     110.712 -19.351  -4.938  0.00  0.00     0.274 HD
ATOM     74  H24 LLL d   1     112.013 -18.937  -4.018  0.00  0.00     0.274 HD
ATOM     75  H25 LLL d   1     112.216 -19.317  -5.606  0.00  0.00     0.274 HD
ENDBRANCH   3  72
TORSDOF 15
