REMARK  16 active torsions:
REMARK  status: ('A' for Active; 'I' for Inactive)
REMARK    1  A    between atoms: O11_2  and  C11_1 
REMARK    2  A    between atoms: C42_17  and  O11_2 
REMARK    3  A    between atoms: C21_3  and  N21_4 
REMARK    4  A    between atoms: C41_6  and  O41_7 
REMARK    5  A    between atoms: C51_8  and  C61_10 
REMARK    6  A    between atoms: C61_10  and  N61_11 
REMARK    7  A    between atoms: C12_12  and  N12_13 
REMARK    8  A    between atoms: C32_15  and  N32_16 
REMARK    9  A    between atoms: C52_18  and  O52_19 
REMARK   10  A    between atoms: C62_20  and  O62_21 
REMARK   11  A    between atoms: O62_21  and  C13_22 
REMARK   12  A    between atoms: C23_23  and  O23_24 
REMARK   13  A    between atoms: C33_25  and  N33_26 
REMARK   14  A    between atoms: C43_27  and  O43_28 
REMARK   15  A    between atoms: C53_29  and  C63_31 
REMARK   16  A    between atoms: C63_31  and  O63_32 
ROOT
ATOM      1  C12 TOY d   1     113.210 -15.416  -5.627  0.00  0.00     0.129 C 
ATOM      2  C22 TOY d   1     113.409 -16.888  -5.247  0.00  0.00    -0.007 C 
ATOM      3  C32 TOY d   1     112.070 -17.643  -5.358  0.00  0.00     0.129 C 
ATOM      4  C42 TOY d   1     111.389 -17.546  -6.741  0.00  0.00     0.096 C 
ATOM      5  C52 TOY d   1     111.320 -16.082  -7.192  0.00  0.00     0.089 C 
ATOM      6  C62 TOY d   1     112.665 -15.346  -7.053  0.00  0.00     0.096 C 
ATOM      7  H16 TOY d   1     112.478 -14.961  -4.943  0.00  0.00     0.088 H 
ATOM      8  H20 TOY d   1     113.779 -16.951  -4.213  0.00  0.00     0.039 H 
ATOM      9  H21 TOY d   1     114.143 -17.345  -5.928  0.00  0.00     0.039 H 
ATOM     10  H22 TOY d   1     111.385 -17.218  -4.609  0.00  0.00     0.088 H 
ATOM     11  H26 TOY d   1     111.974 -18.102  -7.488  0.00  0.00     0.090 H 
ATOM     12  H27 TOY d   1     110.570 -15.566  -6.575  0.00  0.00     0.091 H 
ATOM     13  H29 TOY d   1     113.395 -15.801  -7.739  0.00  0.00     0.090 H 
ENDROOT
BRANCH   4  14
ATOM     14  O11 TOY d   1     110.127 -18.192  -6.568  0.00  0.00    -0.349 OA
BRANCH  14  15
ATOM     15  C11 TOY d   1     109.193 -18.227  -7.601  0.00  0.00     0.159 C 
ATOM     16  C21 TOY d   1     107.895 -18.855  -7.047  0.00  0.00     0.149 C 
ATOM     17  C31 TOY d   1     108.072 -20.263  -6.680  0.00  0.00    -0.008 C 
ATOM     18  H2  TOY d   1     107.114 -18.790  -7.819  0.00  0.00     0.091 H 
ATOM     19  C41 TOY d   1     108.618 -21.046  -7.807  0.00  0.00     0.064 C 
ATOM     20  H6  TOY d   1     107.098 -20.683  -6.390  0.00  0.00     0.040 H 
ATOM     21  H7  TOY d   1     108.766 -20.327  -5.829  0.00  0.00     0.040 H 
ATOM     22  C51 TOY d   1     109.867 -20.408  -8.402  0.00  0.00     0.089 C 
ATOM     23  H8  TOY d   1     107.844 -21.139  -8.583  0.00  0.00     0.087 H 
ATOM     24  O51 TOY d   1     109.635 -19.003  -8.753  0.00  0.00    -0.350 OA
ATOM     25  H10 TOY d   1     110.682 -20.466  -7.666  0.00  0.00     0.090 H 
ATOM     26  H1  TOY d   1     108.993 -17.197  -7.930  0.00  0.00     0.132 H 
BRANCH  16  27
ATOM     27  N21 TOY d   1     107.467 -18.079  -5.847  0.00  0.00    -0.070 N 
ATOM     28  H3  TOY d   1     106.620 -18.478  -5.474  0.00  0.00     0.274 HD
ATOM     29  H4  TOY d   1     107.300 -17.120  -6.109  0.00  0.00     0.274 HD
ATOM     30  H5  TOY d   1     108.192 -18.115  -5.147  0.00  0.00     0.274 HD
ENDBRANCH  16  27
BRANCH  19  31
ATOM     31  O41 TOY d   1     109.024 -22.346  -7.356  0.00  0.00    -0.393 OA
ATOM     32  H9  TOY d   1     109.373 -22.840  -8.089  0.00  0.00     0.210 HD
ENDBRANCH  19  31
BRANCH  22  33
ATOM     33  C61 TOY d   1     110.262 -21.143  -9.645  0.00  0.00     0.106 C 
ATOM     34  H11 TOY d   1     109.469 -21.033 -10.400  0.00  0.00     0.079 H 
ATOM     35  H12 TOY d   1     110.398 -22.209  -9.409  0.00  0.00     0.079 H 
BRANCH  33  36
ATOM     36  N61 TOY d   1     111.505 -20.606 -10.173  0.00  0.00    -0.077 N 
ATOM     37  H13 TOY d   1     111.760 -21.109 -11.009  0.00  0.00     0.274 HD
ATOM     38  H14 TOY d   1     112.234 -20.707  -9.484  0.00  0.00     0.274 HD
ATOM     39  H15 TOY d   1     111.383 -19.630 -10.392  0.00  0.00     0.274 HD
ENDBRANCH  33  36
ENDBRANCH  22  33
ENDBRANCH  14  15
ENDBRANCH   4  14
BRANCH   3  40
ATOM     40  N32 TOY d   1     112.272 -19.056  -5.070  0.00  0.00    -0.072 N 
ATOM     41  H23 TOY d   1     111.393 -19.543  -5.144  0.00  0.00     0.274 HD
ATOM     42  H24 TOY d   1     112.635 -19.160  -4.136  0.00  0.00     0.274 HD
ATOM     43  H25 TOY d   1     112.927 -19.443  -5.731  0.00  0.00     0.274 HD
ENDBRANCH   3  40
BRANCH   5  44
ATOM     44  O52 TOY d   1     110.937 -16.017  -8.543  0.00  0.00    -0.390 OA
ATOM     45  H28 TOY d   1     110.896 -15.108  -8.816  0.00  0.00     0.210 HD
ENDBRANCH   5  44
BRANCH   6  46
ATOM     46  O62 TOY d   1     112.475 -13.993  -7.391  0.00  0.00    -0.349 OA
BRANCH  46  47
ATOM     47  C13 TOY d   1     113.346 -13.435  -8.309  0.00  0.00     0.159 C 
ATOM     48  C23 TOY d   1     113.456 -11.958  -7.967  0.00  0.00     0.112 C 
ATOM     49  C33 TOY d   1     112.147 -11.258  -8.124  0.00  0.00     0.155 C 
ATOM     50  H31 TOY d   1     114.190 -11.483  -8.634  0.00  0.00     0.093 H 
ATOM     51  C43 TOY d   1     111.595 -11.456  -9.511  0.00  0.00     0.092 C 
ATOM     52  H33 TOY d   1     111.432 -11.700  -7.414  0.00  0.00     0.092 H 
ATOM     53  C53 TOY d   1     111.522 -12.954  -9.834  0.00  0.00     0.088 C 
ATOM     54  H37 TOY d   1     112.262 -10.964 -10.234  0.00  0.00     0.090 H 
ATOM     55  O53 TOY d   1     112.855 -13.528  -9.682  0.00  0.00    -0.349 OA
ATOM     56  H39 TOY d   1     110.848 -13.428  -9.105  0.00  0.00     0.090 H 
ATOM     57  H30 TOY d   1     114.327 -13.927  -8.235  0.00  0.00     0.133 H 
BRANCH  48  58
ATOM     58  O23 TOY d   1     113.910 -11.874  -6.626  0.00  0.00    -0.388 OA
ATOM     59  H32 TOY d   1     113.991 -10.961  -6.377  0.00  0.00     0.210 HD
ENDBRANCH  48  58
BRANCH  49  60
ATOM     60  N33 TOY d   1     112.314  -9.792  -7.768  0.00  0.00    -0.070 N 
ATOM     61  H34 TOY d   1     111.431  -9.318  -7.874  0.00  0.00     0.274 HD
ATOM     62  H35 TOY d   1     112.996  -9.373  -8.381  0.00  0.00     0.274 HD
ATOM     63  H36 TOY d   1     112.626  -9.712  -6.813  0.00  0.00     0.274 HD
ENDBRANCH  49  60
BRANCH  51  64
ATOM     64  O43 TOY d   1     110.295 -10.880  -9.614  0.00  0.00    -0.391 OA
ATOM     65  H38 TOY d   1     109.960 -11.012 -10.493  0.00  0.00     0.210 HD
ENDBRANCH  51  64
BRANCH  53  66
ATOM     66  C63 TOY d   1     110.987 -13.242 -11.207  0.00  0.00     0.043 C 
ATOM     67  H40 TOY d   1     109.933 -12.931 -11.255  0.00  0.00     0.078 H 
ATOM     68  H41 TOY d   1     111.060 -14.322 -11.402  0.00  0.00     0.078 H 
BRANCH  66  69
ATOM     69  O63 TOY d   1     111.713 -12.551 -12.181  0.00  0.00    -0.398 OA
ATOM     70  H42 TOY d   1     111.650 -11.617 -12.018  0.00  0.00     0.209 HD
ENDBRANCH  66  69
ENDBRANCH  53  66
ENDBRANCH  46  47
ENDBRANCH   6  46
BRANCH   1  71
ATOM     71  N12 TOY d   1     114.478 -14.697  -5.502  0.00  0.00    -0.072 N 
ATOM     72  H17 TOY d   1     114.809 -14.762  -4.552  0.00  0.00     0.274 HD
ATOM     73  H18 TOY d   1     114.340 -13.728  -5.744  0.00  0.00     0.274 HD
ATOM     74  H19 TOY d   1     115.158 -15.105  -6.124  0.00  0.00     0.274 HD
ENDBRANCH   1  71
TORSDOF 16
