REMARK  17 active torsions:
REMARK  status: ('A' for Active; 'I' for Inactive)
REMARK    1  A    between atoms: O9_26  and  C1_1 
REMARK    2  A    between atoms: C2_2  and  N6_33 
REMARK    3  A    between atoms: C3_3  and  O7_24 
REMARK    4  A    between atoms: C4_4  and  O8_25 
REMARK    5  A    between atoms: C5_5  and  C6_6 
REMARK    6  A    between atoms: C6_6  and  N1_19 
REMARK    7  A    between atoms: C7_7  and  N3_21 
REMARK    8  A    between atoms: O11_28  and  C8_8 
REMARK    9  A    between atoms: C9_9  and  O10_27 
REMARK   10  A    between atoms: C10_10  and  O9_26 
REMARK   11  A    between atoms: C11_11  and  N2_20 
REMARK   12  A    between atoms: C13_13  and  O11_28 
REMARK   13  A    between atoms: C14_14  and  O13_30 
REMARK   14  A    between atoms: C15_15  and  N4_22 
REMARK   15  A    between atoms: C16_16  and  O14_31 
REMARK   16  A    between atoms: C17_17  and  C18_18 
REMARK   17  A    between atoms: C18_18  and  O15_32 
ROOT
ATOM      1  C7  MOL d   1     111.918 -15.778  -5.800  0.00  0.00     0.129 C 
ATOM      2  C8  MOL d   1     111.382 -15.634  -7.225  0.00  0.00     0.096 C 
ATOM      3  C9  MOL d   1     110.021 -16.328  -7.360  0.00  0.00     0.089 C 
ATOM      4  C10 MOL d   1     110.068 -17.805  -6.918  0.00  0.00     0.096 C 
ATOM      5  C11 MOL d   1     110.749 -17.977  -5.555  0.00  0.00     0.129 C 
ATOM      6  C12 MOL d   1     112.096 -17.260  -5.470  0.00  0.00    -0.007 C 
ATOM      7  H8  MOL d   1     111.194 -15.338  -5.099  0.00  0.00     0.088 H 
ATOM      8  H9  MOL d   1     112.098 -16.075  -7.934  0.00  0.00     0.090 H 
ATOM      9  H10 MOL d   1     109.288 -15.797  -6.734  0.00  0.00     0.091 H 
ATOM     10  H11 MOL d   1     110.632 -18.359  -7.683  0.00  0.00     0.090 H 
ATOM     11  H12 MOL d   1     110.091 -17.553  -4.782  0.00  0.00     0.088 H 
ATOM     12  H13 MOL d   1     112.499 -17.361  -4.452  0.00  0.00     0.039 H 
ATOM     13  H14 MOL d   1     112.796 -17.712  -6.188  0.00  0.00     0.039 H 
ENDROOT
BRANCH   4  14
ATOM     14  O9  MOL d   1     108.796 -18.420  -6.747  0.00  0.00    -0.349 OA
BRANCH  14  15
ATOM     15  C1  MOL d   1     107.907 -18.427  -7.809  0.00  0.00     0.162 C 
ATOM     16  C2  MOL d   1     106.578 -18.994  -7.336  0.00  0.00     0.173 C 
ATOM     17  C3  MOL d   1     106.723 -20.365  -6.794  0.00  0.00     0.094 C 
ATOM     18  H2  MOL d   1     105.880 -19.029  -8.186  0.00  0.00     0.096 H 
ATOM     19  C4  MOL d   1     107.316 -21.289  -7.821  0.00  0.00     0.089 C 
ATOM     20  H3  MOL d   1     107.390 -20.338  -5.920  0.00  0.00     0.090 H 
ATOM     21  C5  MOL d   1     108.594 -20.681  -8.423  0.00  0.00     0.091 C 
ATOM     22  H4  MOL d   1     106.573 -21.432  -8.619  0.00  0.00     0.091 H 
ATOM     23  O5  MOL d   1     108.365 -19.319  -8.886  0.00  0.00    -0.349 OA
ATOM     24  H5  MOL d   1     109.380 -20.684  -7.654  0.00  0.00     0.090 H 
ATOM     25  H1  MOL d   1     107.780 -17.403  -8.191  0.00  0.00     0.132 H 
BRANCH  16  26
ATOM     26  N6  MOL d   1     106.038 -18.063  -6.289  0.00  0.00    -0.068 N 
ATOM     27  H40 MOL d   1     105.947 -17.137  -6.677  0.00  0.00     0.275 HD
ATOM     28  H41 MOL d   1     106.670 -18.038  -5.504  0.00  0.00     0.275 HD
ATOM     29  H42 MOL d   1     105.135 -18.389  -5.983  0.00  0.00     0.275 HD
ENDBRANCH  16  26
BRANCH  17  30
ATOM     30  O7  MOL d   1     105.398 -20.834  -6.373  0.00  0.00    -0.391 OA
ATOM     31  H34 MOL d   1     105.476 -21.702  -5.995  0.00  0.00     0.210 HD
ENDBRANCH  17  30
BRANCH  19  32
ATOM     32  O8  MOL d   1     107.668 -22.572  -7.285  0.00  0.00    -0.390 OA
ATOM     33  H35 MOL d   1     108.334 -22.463  -6.616  0.00  0.00     0.210 HD
ENDBRANCH  19  32
BRANCH  21  34
ATOM     34  C6  MOL d   1     109.060 -21.452  -9.627  0.00  0.00     0.106 C 
ATOM     35  H6  MOL d   1     108.266 -21.460 -10.389  0.00  0.00     0.079 H 
ATOM     36  H7  MOL d   1     109.297 -22.485  -9.333  0.00  0.00     0.079 H 
BRANCH  34  37
ATOM     37  N1  MOL d   1     110.251 -20.814 -10.171  0.00  0.00    -0.077 N 
ATOM     38  H22 MOL d   1     110.568 -21.327 -10.979  0.00  0.00     0.274 HD
ATOM     39  H23 MOL d   1     110.977 -20.806  -9.472  0.00  0.00     0.274 HD
ATOM     40  H24 MOL d   1     110.032 -19.867 -10.439  0.00  0.00     0.274 HD
ENDBRANCH  34  37
ENDBRANCH  21  34
ENDBRANCH  14  15
ENDBRANCH   4  14
BRANCH   3  41
ATOM     41  O10 MOL d   1     109.620 -16.261  -8.716  0.00  0.00    -0.390 OA
ATOM     42  H36 MOL d   1     109.590 -15.352  -8.992  0.00  0.00     0.210 HD
ENDBRANCH   3  41
BRANCH   5  43
ATOM     43  N2  MOL d   1     110.913 -19.415  -5.302  0.00  0.00    -0.072 N 
ATOM     44  H25 MOL d   1     110.016 -19.871  -5.362  0.00  0.00     0.274 HD
ATOM     45  H26 MOL d   1     111.299 -19.552  -4.381  0.00  0.00     0.274 HD
ATOM     46  H27 MOL d   1     111.537 -19.808  -5.989  0.00  0.00     0.274 HD
ENDBRANCH   5  43
BRANCH   2  47
ATOM     47  O11 MOL d   1     111.195 -14.265  -7.513  0.00  0.00    -0.349 OA
BRANCH  47  48
ATOM     48  C13 MOL d   1     112.107 -13.674  -8.386  0.00  0.00     0.159 C 
ATOM     49  C14 MOL d   1     112.215 -12.204  -7.997  0.00  0.00     0.112 C 
ATOM     50  C15 MOL d   1     110.894 -11.508  -8.156  0.00  0.00     0.155 C 
ATOM     51  H16 MOL d   1     112.966 -11.703  -8.626  0.00  0.00     0.093 H 
ATOM     52  C16 MOL d   1     110.430 -11.666  -9.564  0.00  0.00     0.092 C 
ATOM     53  H17 MOL d   1     110.161 -11.975  -7.481  0.00  0.00     0.092 H 
ATOM     54  C17 MOL d   1     110.323 -13.141  -9.942  0.00  0.00     0.088 C 
ATOM     55  H18 MOL d   1     111.150 -11.168 -10.230  0.00  0.00     0.090 H 
ATOM     56  O12 MOL d   1     111.647 -13.787  -9.762  0.00  0.00    -0.349 OA
ATOM     57  H19 MOL d   1     109.605 -13.611  -9.254  0.00  0.00     0.090 H 
ATOM     58  H15 MOL d   1     113.088 -14.162  -8.289  0.00  0.00     0.133 H 
BRANCH  49  59
ATOM     59  O13 MOL d   1     112.620 -12.178  -6.647  0.00  0.00    -0.388 OA
ATOM     60  H37 MOL d   1     112.707 -11.276  -6.361  0.00  0.00     0.210 HD
ENDBRANCH  49  59
BRANCH  50  61
ATOM     61  N4  MOL d   1     111.008 -10.047  -7.808  0.00  0.00    -0.070 N 
ATOM     62  H31 MOL d   1     111.322  -9.952  -6.855  0.00  0.00     0.274 HD
ATOM     63  H32 MOL d   1     110.107  -9.606  -7.910  0.00  0.00     0.274 HD
ATOM     64  H33 MOL d   1     111.671  -9.605  -8.426  0.00  0.00     0.274 HD
ENDBRANCH  50  61
BRANCH  52  65
ATOM     65  O14 MOL d   1     109.127 -11.085  -9.747  0.00  0.00    -0.391 OA
ATOM     66  H38 MOL d   1     108.502 -11.530  -9.187  0.00  0.00     0.210 HD
ENDBRANCH  52  65
BRANCH  54  67
ATOM     67  C18 MOL d   1     109.846 -13.387 -11.329  0.00  0.00     0.043 C 
ATOM     68  H20 MOL d   1     108.822 -13.000 -11.432  0.00  0.00     0.078 H 
ATOM     69  H21 MOL d   1     109.851 -14.469 -11.525  0.00  0.00     0.078 H 
BRANCH  67  70
ATOM     70  O15 MOL d   1     110.661 -12.758 -12.245  0.00  0.00    -0.398 OA
ATOM     71  H39 MOL d   1     110.657 -11.822 -12.081  0.00  0.00     0.209 HD
ENDBRANCH  67  70
ENDBRANCH  54  67
ENDBRANCH  47  48
ENDBRANCH   2  47
BRANCH   1  72
ATOM     72  N3  MOL d   1     113.194 -15.079  -5.663  0.00  0.00    -0.072 N 
ATOM     73  H28 MOL d   1     113.068 -14.103  -5.882  0.00  0.00     0.274 HD
ATOM     74  H29 MOL d   1     113.867 -15.481  -6.296  0.00  0.00     0.274 HD
ATOM     75  H30 MOL d   1     113.527 -15.170  -4.716  0.00  0.00     0.274 HD
ENDBRANCH   1  72
TORSDOF 17
