REMARK  20 active torsions:
REMARK  status: ('A' for Active; 'I' for Inactive)
REMARK    1  A    between atoms: C_1  and  CH3_3 
REMARK       I    between atoms: C_1  and  N_4 
REMARK    2  A    between atoms: N_4  and  CA_5 
REMARK    3  A    between atoms: CA_5  and  C_6 
REMARK    4  A    between atoms: CA_5  and  CB_8 
REMARK       I    between atoms: C_6  and  N_12 
REMARK    5  A    between atoms: CB_8  and  CG_9 
REMARK    6  A    between atoms: CG_9  and  CD1_10 
REMARK    7  A    between atoms: CG_9  and  CD2_11 
REMARK    8  A    between atoms: N_12  and  CA_13 
REMARK    9  A    between atoms: CA_13  and  C_14 
REMARK   10  A    between atoms: CA_13  and  CB_16 
REMARK       I    between atoms: C_14  and  N_26 
REMARK   11  A    between atoms: CB_16  and  CG_17 
REMARK   12  A    between atoms: N_26  and  CA_27 
REMARK   13  A    between atoms: CA_27  and  C_28 
REMARK   14  A    between atoms: CA_27  and  CB_30 
REMARK       I    between atoms: C_28  and  N_40 
REMARK   15  A    between atoms: CB_30  and  CG_31 
REMARK   16  A    between atoms: CA_41  and  C_42 
REMARK       I    between atoms: C_42  and  N_47 
REMARK   17  A    between atoms: N_47  and  CA_48 
REMARK   18  A    between atoms: CA_48  and  C_49 
REMARK   19  A    between atoms: CA_48  and  CB_51 
REMARK   20  A    between atoms: CB_51  and  CG_52 
ROOT
ATOM      1  C   ACE d   1      -7.549   8.225   2.102  0.00  0.00     0.241 C 
ATOM      2  O   ACE d   1      -8.734   8.343   1.779  0.00  0.00    -0.271 OA
ATOM      3  N   ACE d   1      -7.180   7.516   3.149  0.00  0.00    -0.346 N 
ATOM      4  H25 ACE d   1      -6.213   7.489   3.403  0.00  0.00     0.163 HD
ENDROOT
BRANCH   3   5
ATOM      5  CA  ACE d   1      -8.136   6.777   3.940  0.00  0.00     0.093 C 
ATOM      6  H26 ACE d   1      -9.158   7.081   3.669  0.00  0.00     0.088 H 
BRANCH   5   7
ATOM      7  C   ACE d   1      -7.878   7.080   5.404  0.00  0.00     0.243 C 
ATOM      8  O   ACE d   1      -6.760   7.449   5.777  0.00  0.00    -0.271 OA
ATOM      9  N   ACE d   1      -8.898   6.970   6.248  0.00  0.00    -0.337 N 
ATOM     10  CA  ACE d   1      -8.680   7.202   7.672  0.00  0.00     0.091 C 
ATOM     11  CD  ACE d   1     -10.321   6.702   5.959  0.00  0.00    -0.001 C 
ATOM     12  CB  ACE d   1     -10.097   7.164   8.265  0.00  0.00    -0.036 C 
ATOM     13  H35 ACE d   1      -8.214   8.184   7.840  0.00  0.00     0.087 H 
ATOM     14  CG  ACE d   1     -10.888   6.387   7.313  0.00  0.00    -0.048 C 
ATOM     15  H36 ACE d   1     -10.502   8.182   8.363  0.00  0.00     0.036 H 
ATOM     16  H37 ACE d   1     -10.090   6.676   9.251  0.00  0.00     0.036 H 
ATOM     17  H38 ACE d   1     -11.947   6.682   7.363  0.00  0.00     0.035 H 
ATOM     18  H39 ACE d   1     -10.796   5.312   7.526  0.00  0.00     0.035 H 
ATOM     19  H40 ACE d   1     -10.431   5.847   5.276  0.00  0.00     0.064 H 
ATOM     20  H41 ACE d   1     -10.809   7.586   5.522  0.00  0.00     0.064 H 
BRANCH  10  21
ATOM     21  C   ACE d   1      -7.798   6.120   8.278  0.00  0.00     0.241 C 
ATOM     22  O   ACE d   1      -7.655   5.022   7.738  0.00  0.00    -0.271 OA
ATOM     23  N   ACE d   1      -7.203   6.452   9.429  0.00  0.00    -0.344 N 
ATOM     24  H42 ACE d   1      -7.286   7.391   9.764  0.00  0.00     0.163 HD
BRANCH  23  25
ATOM     25  CA  ACE d   1      -6.433   5.484  10.216  0.00  0.00     0.105 C 
ATOM     26  H43 ACE d   1      -6.135   4.653   9.560  0.00  0.00     0.090 H 
BRANCH  25  27
ATOM     27  C   ACE d   1      -7.260   4.939  11.379  0.00  0.00     0.197 C 
ATOM     28  O   ACE d   1      -6.823   4.015  12.052  0.00  0.00    -0.646 OA
ATOM     29  OXT ACE d   1      -8.362   5.401  11.700  0.00  0.00    -0.646 OA
ENDBRANCH  25  27
BRANCH  25  30
ATOM     30  CB  ACE d   1      -5.186   6.138  10.806  0.00  0.00     0.044 C 
ATOM     31  H44 ACE d   1      -4.628   5.380  11.374  0.00  0.00     0.053 H 
ATOM     32  H45 ACE d   1      -5.501   6.946  11.483  0.00  0.00     0.053 H 
BRANCH  30  33
ATOM     33  CG  ACE d   1      -4.279   6.716   9.762  0.00  0.00     0.175 C 
ATOM     34  OD1 ACE d   1      -4.026   6.031   8.742  0.00  0.00    -0.648 OA
ATOM     35  OD2 ACE d   1      -3.836   7.865   9.954  0.00  0.00    -0.648 OA
ENDBRANCH  30  33
ENDBRANCH  25  30
ENDBRANCH  23  25
ENDBRANCH  10  21
ENDBRANCH   5   7
BRANCH   5  36
ATOM     36  CB  ACE d   1      -7.965   5.278   3.694  0.00  0.00    -0.012 C 
ATOM     37  H27 ACE d   1      -8.590   4.731   4.415  0.00  0.00     0.044 H 
ATOM     38  H28 ACE d   1      -6.909   5.016   3.852  0.00  0.00     0.044 H 
BRANCH  36  39
ATOM     39  CG  ACE d   1      -8.352   4.867   2.331  0.00  0.00    -0.028 A 
ATOM     40  CD1 ACE d   1      -7.518   4.648   1.281  0.00  0.00    -0.015 A 
ATOM     41  NE1 ACE d   1      -8.242   4.291   0.169  0.00  0.00    -0.365 N 
ATOM     42  H29 ACE d   1      -6.434   4.742   1.316  0.00  0.00     0.112 H 
ATOM     43  CE2 ACE d   1      -9.573   4.276   0.492  0.00  0.00     0.042 A 
ATOM     44  H30 ACE d   1      -7.848   4.071  -0.757  0.00  0.00     0.165 HD
ATOM     45  CD2 ACE d   1      -9.680   4.639   1.851  0.00  0.00    -0.002 A 
ATOM     46  CZ2 ACE d   1     -10.685   3.978  -0.289  0.00  0.00    -0.056 A 
ATOM     47  CE3 ACE d   1     -10.947   4.701   2.435  0.00  0.00    -0.070 A 
ATOM     48  CZ3 ACE d   1     -12.051   4.407   1.656  0.00  0.00    -0.082 A 
ATOM     49  H31 ACE d   1     -11.063   4.974   3.478  0.00  0.00     0.084 H 
ATOM     50  CH2 ACE d   1     -11.913   4.048   0.309  0.00  0.00    -0.081 A 
ATOM     51  H33 ACE d   1     -13.041   4.455   2.095  0.00  0.00     0.083 H 
ATOM     52  H34 ACE d   1     -12.799   3.821  -0.272  0.00  0.00     0.083 H 
ATOM     53  H32 ACE d   1     -10.582   3.701  -1.332  0.00  0.00     0.086 H 
ENDBRANCH  36  39
ENDBRANCH   5  36
ENDBRANCH   3   5
BRANCH   1  54
ATOM     54  CA  ACE d   1      -6.449   8.949   1.334  0.00  0.00     0.093 C 
ATOM     55  H16 ACE d   1      -6.412   9.980   1.716  0.00  0.00     0.088 H 
BRANCH  54  56
ATOM     56  N   ACE d   1      -5.136   8.350   1.542  0.00  0.00    -0.346 N 
ATOM     57  C   ACE d   1      -4.335   8.654   2.408  0.00  0.00     0.241 C 
ATOM     58  O   ACE d   1      -4.632   9.476   3.210  0.00  0.00    -0.271 OA
ATOM     59  H15 ACE d   1      -4.867   7.620   0.914  0.00  0.00     0.163 HD
BRANCH  57  60
ATOM     60  CA  ACE d   1      -2.931   8.104   2.408  0.00  0.00     0.089 C 
ATOM     61  H5  ACE d   1      -2.498   8.204   3.414  0.00  0.00     0.087 H 
BRANCH  60  62
ATOM     62  N   ACE d   1      -2.942   6.711   2.060  0.00  0.00    -0.348 N 
ATOM     63  C   ACE d   1      -3.525   5.815   2.810  0.00  0.00     0.214 C 
ATOM     64  O   ACE d   1      -4.068   6.114   3.830  0.00  0.00    -0.274 OA
ATOM     65  H4  ACE d   1      -2.490   6.418   1.218  0.00  0.00     0.163 HD
BRANCH  63  66
ATOM     66  CH3 ACE d   1      -3.293   4.373   2.494  0.00  0.00    -0.003 C 
ATOM     67  H1  ACE d   1      -2.785   4.288   1.522  0.00  0.00     0.040 H 
ATOM     68  H2  ACE d   1      -4.258   3.847   2.451  0.00  0.00     0.040 H 
ATOM     69  H3  ACE d   1      -2.665   3.922   3.277  0.00  0.00     0.040 H 
ENDBRANCH  63  66
ENDBRANCH  60  62
BRANCH  60  70
ATOM     70  CB  ACE d   1      -2.114   8.961   1.426  0.00  0.00    -0.035 C 
ATOM     71  H6  ACE d   1      -2.770   9.803   1.161  0.00  0.00     0.037 H 
ATOM     72  H7  ACE d   1      -1.960   8.323   0.543  0.00  0.00     0.037 H 
BRANCH  70  73
ATOM     73  CG  ACE d   1      -0.762   9.582   1.711  0.00  0.00    -0.059 C 
ATOM     74  H8  ACE d   1      -0.017   8.773   1.679  0.00  0.00     0.038 H 
BRANCH  73  75
ATOM     75  CD1 ACE d   1      -0.422  10.605   0.626  0.00  0.00    -0.073 C 
ATOM     76  H9  ACE d   1       0.560  11.052   0.839  0.00  0.00     0.028 H 
ATOM     77  H10 ACE d   1      -1.189  11.394   0.613  0.00  0.00     0.028 H 
ATOM     78  H11 ACE d   1      -0.393  10.105  -0.353  0.00  0.00     0.028 H 
ENDBRANCH  73  75
BRANCH  73  79
ATOM     79  CD2 ACE d   1      -0.640  10.262   3.048  0.00  0.00    -0.073 C 
ATOM     80  H12 ACE d   1      -0.880   9.545   3.847  0.00  0.00     0.028 H 
ATOM     81  H13 ACE d   1      -1.339  11.110   3.093  0.00  0.00     0.028 H 
ATOM     82  H14 ACE d   1       0.389  10.628   3.181  0.00  0.00     0.028 H 
ENDBRANCH  73  79
ENDBRANCH  70  73
ENDBRANCH  60  70
ENDBRANCH  57  60
ENDBRANCH  54  56
BRANCH  54  83
ATOM     83  CB  ACE d   1      -6.736   9.018  -0.169  0.00  0.00    -0.012 C 
ATOM     84  H17 ACE d   1      -7.804   9.242  -0.310  0.00  0.00     0.044 H 
ATOM     85  H18 ACE d   1      -6.505   8.039  -0.613  0.00  0.00     0.044 H 
BRANCH  83  86
ATOM     86  CG  ACE d   1      -5.924  10.077  -0.892  0.00  0.00    -0.028 A 
ATOM     87  CD1 ACE d   1      -4.828   9.890  -1.695  0.00  0.00    -0.015 A 
ATOM     88  NE1 ACE d   1      -4.380  11.099  -2.176  0.00  0.00    -0.365 N 
ATOM     89  H19 ACE d   1      -4.377   8.924  -1.919  0.00  0.00     0.112 H 
ATOM     90  CE2 ACE d   1      -5.180  12.094  -1.683  0.00  0.00     0.042 A 
ATOM     91  H20 ACE d   1      -3.575  11.233  -2.804  0.00  0.00     0.165 HD
ATOM     92  CD2 ACE d   1      -6.160  11.489  -0.870  0.00  0.00    -0.002 A 
ATOM     93  CZ2 ACE d   1      -5.127  13.468  -1.891  0.00  0.00    -0.056 A 
ATOM     94  CE3 ACE d   1      -7.107  12.299  -0.248  0.00  0.00    -0.070 A 
ATOM     95  CZ3 ACE d   1      -7.053  13.666  -0.461  0.00  0.00    -0.082 A 
ATOM     96  H21 ACE d   1      -7.870  11.868   0.390  0.00  0.00     0.084 H 
ATOM     97  CH2 ACE d   1      -6.078  14.233  -1.270  0.00  0.00    -0.081 A 
ATOM     98  H23 ACE d   1      -7.787  14.307   0.014  0.00  0.00     0.083 H 
ATOM     99  H24 ACE d   1      -6.069  15.307  -1.414  0.00  0.00     0.083 H 
ATOM    100  H22 ACE d   1      -4.364  13.915  -2.519  0.00  0.00     0.086 H 
ENDBRANCH  83  86
ENDBRANCH  54  83
ENDBRANCH   1  54
TORSDOF 20
