REMARK  4 active torsions:
REMARK  status: ('A' for Active; 'I' for Inactive)
REMARK    1  A    between atoms: N_1  and  CA_2 
REMARK    2  A    between atoms: CA_2  and  C_3 
REMARK    3  A    between atoms: CA_2  and  CB_5 
REMARK    4  A    between atoms: CB_5  and  SG_6 
ROOT
ATOM      1  CA  CYS d   1      60.242 -35.573  46.418  0.00  0.00     0.190 C 
ATOM      2  H4  CYS d   1      60.227 -34.546  46.025  0.00  0.00     0.102 H 
ENDROOT
BRANCH   1   3
ATOM      3  N   CYS d   1      59.318 -35.650  47.544  0.00  0.00    -0.065 N 
ATOM      4  H1  CYS d   1      59.620 -35.020  48.270  0.00  0.00     0.275 HD
ATOM      5  H2  CYS d   1      59.302 -36.592  47.901  0.00  0.00     0.275 HD
ATOM      6  H3  CYS d   1      58.393 -35.391  47.238  0.00  0.00     0.275 HD
ENDBRANCH   1   3
BRANCH   1   7
ATOM      7  C   CYS d   1      59.796 -36.523  45.308  0.00  0.00     0.205 C 
ATOM      8  O   CYS d   1      60.287 -36.456  44.178  0.00  0.00    -0.646 OA
ATOM      9  OXT CYS d   1      58.924 -37.373  45.517  0.00  0.00    -0.646 OA
ENDBRANCH   1   7
BRANCH   1  10
ATOM     10  CB  CYS d   1      61.673 -35.898  46.864  0.00  0.00     0.010 C 
ATOM     11  H5  CYS d   1      61.961 -35.175  47.641  0.00  0.00     0.052 H 
ATOM     12  H6  CYS d   1      62.336 -35.785  45.994  0.00  0.00     0.052 H 
BRANCH  10  13
ATOM     13  SG  CYS d   1      61.905 -37.577  47.538  0.00  0.00    -0.180 SA
ATOM     14  H7  CYS d   1      61.315 -37.698  48.346  0.00  0.00     0.101 HD
ENDBRANCH  10  13
ENDBRANCH   1  10
TORSDOF 4
