REMARK  4 active torsions:
REMARK  status: ('A' for Active; 'I' for Inactive)
REMARK    1  A    between atoms: N_1  and  CA_2 
REMARK    2  A    between atoms: CA_2  and  C_3 
REMARK    3  A    between atoms: CA_2  and  CB_5 
REMARK    4  A    between atoms: CB_5  and  SG_6 
ROOT
ATOM      1  CA  CYS d   1      25.053  -4.523  43.229  0.00  0.00     0.190 C 
ATOM      2  H4  CYS d   1      24.984  -4.872  42.188  0.00  0.00     0.102 H 
ENDROOT
BRANCH   1   3
ATOM      3  N   CYS d   1      25.189  -5.689  44.096  0.00  0.00    -0.065 N 
ATOM      4  H1  CYS d   1      24.374  -6.275  44.001  0.00  0.00     0.275 HD
ATOM      5  H2  CYS d   1      25.276  -5.387  45.054  0.00  0.00     0.275 HD
ATOM      6  H3  CYS d   1      26.010  -6.210  43.832  0.00  0.00     0.275 HD
ENDBRANCH   1   3
BRANCH   1   7
ATOM      7  C   CYS d   1      26.281  -3.611  43.352  0.00  0.00     0.205 C 
ATOM      8  O   CYS d   1      26.416  -2.594  42.647  0.00  0.00    -0.646 OA
ATOM      9  OXT CYS d   1      27.194  -3.906  44.144  0.00  0.00    -0.646 OA
ENDBRANCH   1   7
BRANCH   1  10
ATOM     10  CB  CYS d   1      23.776  -3.755  43.564  0.00  0.00     0.010 C 
ATOM     11  H5  CYS d   1      22.913  -4.412  43.383  0.00  0.00     0.052 H 
ATOM     12  H6  CYS d   1      23.712  -2.875  42.907  0.00  0.00     0.052 H 
BRANCH  10  13
ATOM     13  SG  CYS d   1      23.726  -3.195  45.288  0.00  0.00    -0.180 SA
ATOM     14  H7  CYS d   1      23.776  -3.994  45.901  0.00  0.00     0.101 HD
ENDBRANCH  10  13
ENDBRANCH   1  10
TORSDOF 4
