REMARK  17 active torsions:
REMARK  status: ('A' for Active; 'I' for Inactive)
REMARK    1  A    between atoms: C15_1  and  C17_2 
REMARK    2  A    between atoms: C14_22  and  C15_1 
REMARK    3  A    between atoms: C15_1  and  C16_23 
REMARK    4  A    between atoms: C06_14  and  C04_12 
REMARK    5  A    between atoms: N07_15  and  C06_14 
REMARK    6  A    between atoms: C08_16  and  N07_15 
REMARK    7  A    between atoms: C08_16  and  C09_17 
REMARK    8  A    between atoms: C12_20  and  C08_16 
REMARK    9  A    between atoms: C09_17  and  O10_18 
REMARK   10  A    between atoms: C09_17  and  C11_19 
REMARK       I    between atoms: N13_21  and  C12_20 
REMARK   11  A    between atoms: N13_21  and  C14_22 
REMARK   12  A    between atoms: C33_33  and  N34_34 
REMARK   13  A    between atoms: N34_34  and  C35_35 
REMARK   14  A    between atoms: N34_34  and  S38_38 
REMARK   15  A    between atoms: C35_35  and  C36_36 
REMARK   16  A    between atoms: C36_36  and  C37_37 
REMARK   17  A    between atoms: S38_38  and  C40_40 
ROOT
ATOM      1  C20 L3J d   1      -0.138 -17.571  31.767  0.00  0.00    -0.061 A 
ATOM      2  C21 L3J d   1       0.870 -17.345  30.811  0.00  0.00    -0.055 A 
ATOM      3  C22 L3J d   1       0.657 -16.302  29.704  0.00  0.00    -0.041 C 
ATOM      4  C24 L3J d   1      -1.827 -15.638  29.248  0.00  0.00    -0.061 C 
ATOM      5  C26 L3J d   1      -3.197 -15.007  31.336  0.00  0.00    -0.058 A 
ATOM      6  C28 L3J d   1      -2.915 -14.114  33.581  0.00  0.00    -0.082 A 
ATOM      7  O01 L3J d   1      -0.681 -18.974  34.949  0.00  0.00    -0.268 OA
ATOM      8  C02 L3J d   1      -1.070 -18.695  33.767  0.00  0.00     0.252 C 
ATOM      9  N03 L3J d   1      -2.426 -18.566  33.575  0.00  0.00    -0.350 N 
ATOM     10  C04 L3J d   1      -3.566 -18.616  34.531  0.00  0.00     0.039 C 
ATOM     11  C05 L3J d   1      -4.598 -17.594  33.928  0.00  0.00    -0.021 C 
ATOM     12  C19 L3J d   1       0.045 -18.541  32.780  0.00  0.00     0.034 A 
ATOM     13  C23 L3J d   1      -0.443 -15.243  29.784  0.00  0.00    -0.061 C 
ATOM     14  C25 L3J d   1      -3.048 -14.925  29.812  0.00  0.00    -0.041 C 
ATOM     15  C27 L3J d   1      -2.758 -13.989  32.193  0.00  0.00    -0.077 A 
ATOM     16  C29 L3J d   1      -3.499 -15.253  34.145  0.00  0.00    -0.077 A 
ATOM     17  C30 L3J d   1      -3.956 -16.312  33.336  0.00  0.00    -0.056 A 
ATOM     18  C31 L3J d   1      -3.770 -16.130  31.951  0.00  0.00    -0.071 A 
ATOM     19  C32 L3J d   1       2.054 -18.095  30.921  0.00  0.00    -0.050 A 
ATOM     20  C33 L3J d   1       2.279 -19.055  31.929  0.00  0.00     0.046 A 
ATOM     21  C42 L3J d   1       1.243 -19.239  32.850  0.00  0.00    -0.041 A 
ATOM     22  H5  L3J d   1      -1.058 -16.999  31.727  0.00  0.00     0.085 H 
ATOM     23  H6  L3J d   1       0.471 -16.869  28.780  0.00  0.00     0.040 H 
ATOM     24  H7  L3J d   1       1.606 -15.753  29.613  0.00  0.00     0.040 H 
ATOM     25  H8  L3J d   1      -1.958 -16.712  29.444  0.00  0.00     0.033 H 
ATOM     26  H9  L3J d   1      -1.819 -15.461  28.162  0.00  0.00     0.033 H 
ATOM     27  H10 L3J d   1      -2.578 -13.313  34.229  0.00  0.00     0.083 H 
ATOM     28  H11 L3J d   1      -2.694 -18.411  32.624  0.00  0.00     0.163 HD
ATOM     29  H12 L3J d   1      -3.206 -18.221  35.492  0.00  0.00     0.075 H 
ATOM     30  H13 L3J d   1      -5.293 -17.294  34.727  0.00  0.00     0.043 H 
ATOM     31  H14 L3J d   1      -5.157 -18.101  33.127  0.00  0.00     0.043 H 
ATOM     32  H31 L3J d   1      -0.103 -14.367  29.213  0.00  0.00     0.033 H 
ATOM     33  H32 L3J d   1      -0.563 -14.967  30.842  0.00  0.00     0.033 H 
ATOM     34  H33 L3J d   1      -3.945 -15.371  29.357  0.00  0.00     0.040 H 
ATOM     35  H34 L3J d   1      -2.983 -13.863  29.532  0.00  0.00     0.040 H 
ATOM     36  H35 L3J d   1      -2.295 -13.100  31.781  0.00  0.00     0.084 H 
ATOM     37  H36 L3J d   1      -3.602 -15.322  35.222  0.00  0.00     0.084 H 
ATOM     38  H37 L3J d   1      -4.100 -16.932  31.301  0.00  0.00     0.085 H 
ATOM     39  H38 L3J d   1       2.837 -17.926  30.191  0.00  0.00     0.087 H 
ATOM     40  H49 L3J d   1       1.381 -19.956  33.651  0.00  0.00     0.088 H 
ENDROOT
BRANCH  10  41
ATOM     41  C06 L3J d   1      -4.220 -20.056  34.872  0.00  0.00     0.101 C 
ATOM     42  H15 L3J d   1      -4.900 -20.313  34.046  0.00  0.00     0.079 H 
ATOM     43  H16 L3J d   1      -4.798 -19.944  35.801  0.00  0.00     0.079 H 
BRANCH  41  44
ATOM     44  N07 L3J d   1      -3.304 -21.189  35.057  0.00  0.00    -0.058 N 
ATOM     45  H17 L3J d   1      -2.624 -21.148  34.314  0.00  0.00     0.278 HD
ATOM     46  H18 L3J d   1      -3.850 -22.032  34.967  0.00  0.00     0.278 HD
BRANCH  44  47
ATOM     47  C08 L3J d   1      -2.554 -21.285  36.333  0.00  0.00     0.201 C 
ATOM     48  H19 L3J d   1      -1.661 -20.674  36.133  0.00  0.00     0.103 H 
BRANCH  47  49
ATOM     49  C09 L3J d   1      -1.977 -22.709  36.604  0.00  0.00     0.068 C 
ATOM     50  H20 L3J d   1      -2.266 -23.384  35.785  0.00  0.00     0.086 H 
BRANCH  49  51
ATOM     51  O10 L3J d   1      -0.598 -22.536  36.616  0.00  0.00    -0.393 OA
ATOM     52  H21 L3J d   1      -0.363 -21.923  37.303  0.00  0.00     0.210 HD
ENDBRANCH  49  51
BRANCH  49  53
ATOM     53  C11 L3J d   1      -2.462 -23.326  37.938  0.00  0.00    -0.050 C 
ATOM     54  H22 L3J d   1      -2.018 -24.325  38.063  0.00  0.00     0.031 H 
ATOM     55  H23 L3J d   1      -3.559 -23.411  37.925  0.00  0.00     0.031 H 
ATOM     56  H24 L3J d   1      -2.154 -22.681  38.774  0.00  0.00     0.031 H 
ENDBRANCH  49  53
ENDBRANCH  47  49
BRANCH  47  57
ATOM     57  C12 L3J d   1      -3.156 -20.604  37.632  0.00  0.00     0.251 C 
ATOM     58  N13 L3J d   1      -4.341 -20.877  38.304  0.00  0.00    -0.359 N 
ATOM     59  H25 L3J d   1      -4.925 -21.609  37.952  0.00  0.00     0.162 HD
ATOM     60  O18 L3J d   1      -2.429 -19.689  38.103  0.00  0.00    -0.271 OA
BRANCH  58  61
ATOM     61  C14 L3J d   1      -4.801 -20.128  39.543  0.00  0.00    -0.002 C 
ATOM     62  H26 L3J d   1      -4.056 -19.347  39.754  0.00  0.00     0.064 H 
ATOM     63  H27 L3J d   1      -5.767 -19.659  39.307  0.00  0.00     0.064 H 
BRANCH  61  64
ATOM     64  C15 L3J d   1      -4.991 -20.970  40.857  0.00  0.00    -0.046 C 
ATOM     65  H1  L3J d   1      -4.126 -21.645  40.935  0.00  0.00     0.041 H 
BRANCH  64  66
ATOM     66  C17 L3J d   1      -5.016 -20.087  42.140  0.00  0.00    -0.072 C 
ATOM     67  H2  L3J d   1      -5.151 -20.728  43.024  0.00  0.00     0.028 H 
ATOM     68  H3  L3J d   1      -5.848 -19.371  42.076  0.00  0.00     0.028 H 
ATOM     69  H4  L3J d   1      -4.066 -19.539  42.226  0.00  0.00     0.028 H 
ENDBRANCH  64  66
BRANCH  64  70
ATOM     70  C16 L3J d   1      -6.253 -21.835  40.811  0.00  0.00    -0.072 C 
ATOM     71  H28 L3J d   1      -6.342 -22.403  41.749  0.00  0.00     0.028 H 
ATOM     72  H29 L3J d   1      -6.188 -22.534  39.964  0.00  0.00     0.028 H 
ATOM     73  H30 L3J d   1      -7.135 -21.190  40.688  0.00  0.00     0.028 H 
ENDBRANCH  64  70
ENDBRANCH  61  64
ENDBRANCH  58  61
ENDBRANCH  47  57
ENDBRANCH  44  47
ENDBRANCH  41  44
ENDBRANCH  10  41
BRANCH  20  74
ATOM     74  N34 L3J d   1       3.519 -19.787  31.999  0.00  0.00    -0.276 N 
BRANCH  74  75
ATOM     75  C35 L3J d   1       4.152 -19.969  33.370  0.00  0.00     0.010 C 
ATOM     76  H39 L3J d   1       5.073 -20.557  33.245  0.00  0.00     0.066 H 
ATOM     77  H40 L3J d   1       3.444 -20.527  34.001  0.00  0.00     0.066 H 
BRANCH  75  78
ATOM     78  C36 L3J d   1       4.521 -18.642  34.113  0.00  0.00    -0.052 C 
ATOM     79  H41 L3J d   1       5.167 -18.904  34.964  0.00  0.00     0.034 H 
ATOM     80  H42 L3J d   1       3.587 -18.197  34.486  0.00  0.00     0.034 H 
BRANCH  78  81
ATOM     81  C37 L3J d   1       5.241 -17.584  33.296  0.00  0.00    -0.075 C 
ATOM     82  H43 L3J d   1       5.442 -16.707  33.928  0.00  0.00     0.027 H 
ATOM     83  H44 L3J d   1       4.611 -17.286  32.445  0.00  0.00     0.027 H 
ATOM     84  H45 L3J d   1       6.191 -17.993  32.923  0.00  0.00     0.027 H 
ENDBRANCH  78  81
ENDBRANCH  75  78
ENDBRANCH  74  75
BRANCH  74  85
ATOM     85  S38 L3J d   1       4.292 -20.405  30.634  0.00  0.00     0.229 S 
ATOM     86  O39 L3J d   1       3.304 -20.570  29.643  0.00  0.00    -0.206 OA
ATOM     87  O41 L3J d   1       5.037 -21.565  30.966  0.00  0.00    -0.206 OA
BRANCH  85  88
ATOM     88  C40 L3J d   1       5.438 -19.228  30.102  0.00  0.00     0.033 C 
ATOM     89  H46 L3J d   1       5.961 -19.603  29.210  0.00  0.00     0.051 H 
ATOM     90  H47 L3J d   1       6.168 -19.039  30.903  0.00  0.00     0.051 H 
ATOM     91  H48 L3J d   1       4.915 -18.293  29.855  0.00  0.00     0.051 H 
ENDBRANCH  85  88
ENDBRANCH  74  85
ENDBRANCH  20  74
TORSDOF 17
