REMARK  19 active torsions:
REMARK  status: ('A' for Active; 'I' for Inactive)
REMARK    1  A    between atoms: C16_16  and  C17_17 
REMARK    2  A    between atoms: C17_17  and  N18_18 
REMARK    3  A    between atoms: N18_18  and  C19_19 
REMARK    4  A    between atoms: C19_19  and  C20_20 
REMARK    5  A    between atoms: C19_19  and  C27_27 
REMARK       I    between atoms: C20_20  and  N21_21 
REMARK    6  A    between atoms: N21_21  and  C22_22 
REMARK    7  A    between atoms: C22_22  and  C23_23 
REMARK    8  A    between atoms: C23_23  and  C24_24 
REMARK    9  A    between atoms: C23_23  and  C25_25 
REMARK   10  A    between atoms: C27_27  and  O28_28 
REMARK   11  A    between atoms: C27_27  and  C29_29 
REMARK   12  A    between atoms: C29_29  and  C30_30 
REMARK   13  A    between atoms: C30_30  and  C31_31 
REMARK   14  A    between atoms: C35_35  and  N36_36 
REMARK   15  A    between atoms: N36_36  and  C37_37 
REMARK   16  A    between atoms: N36_36  and  S40_40 
REMARK   17  A    between atoms: C37_37  and  C38_38 
REMARK   18  A    between atoms: C38_38  and  C39_39 
REMARK   19  A    between atoms: S40_40  and  C42_42 
ROOT
ATOM      1  O01 L3M d   1      -0.375 -19.101  34.773  0.00  0.00    -0.268 OA
ATOM      2  C02 L3M d   1      -0.735 -18.855  33.597  0.00  0.00     0.252 C 
ATOM      3  C03 L3M d   1       0.283 -18.686  32.598  0.00  0.00     0.034 A 
ATOM      4  C04 L3M d   1       0.097 -17.733  31.570  0.00  0.00    -0.061 A 
ATOM      5  C05 L3M d   1       1.093 -17.519  30.576  0.00  0.00    -0.055 A 
ATOM      6  C06 L3M d   1       0.911 -16.501  29.422  0.00  0.00    -0.041 C 
ATOM      7  C07 L3M d   1      -0.264 -15.528  29.496  0.00  0.00    -0.061 C 
ATOM      8  C08 L3M d   1      -1.640 -15.948  29.022  0.00  0.00    -0.061 C 
ATOM      9  C09 L3M d   1      -2.764 -15.052  29.617  0.00  0.00    -0.041 C 
ATOM     10  C10 L3M d   1      -2.918 -15.177  31.141  0.00  0.00    -0.058 A 
ATOM     11  C11 L3M d   1      -2.447 -14.191  31.997  0.00  0.00    -0.077 A 
ATOM     12  C12 L3M d   1      -2.577 -14.333  33.398  0.00  0.00    -0.082 A 
ATOM     13  C13 L3M d   1      -3.169 -15.494  33.956  0.00  0.00    -0.077 A 
ATOM     14  C14 L3M d   1      -3.674 -16.512  33.109  0.00  0.00    -0.056 A 
ATOM     15  C15 L3M d   1      -4.287 -17.783  33.674  0.00  0.00    -0.021 C 
ATOM     16  C16 L3M d   1      -3.228 -18.744  34.292  0.00  0.00     0.039 C 
ATOM     17  N32 L3M d   1      -2.092 -18.718  33.351  0.00  0.00    -0.350 N 
ATOM     18  C33 L3M d   1      -3.492 -16.318  31.728  0.00  0.00    -0.071 A 
ATOM     19  C34 L3M d   1       2.276 -18.270  30.681  0.00  0.00    -0.050 A 
ATOM     20  C35 L3M d   1       2.489 -19.201  31.703  0.00  0.00     0.046 A 
ATOM     21  C44 L3M d   1       1.490 -19.372  32.634  0.00  0.00    -0.041 A 
ATOM     22  H1  L3M d   1      -0.820 -17.155  31.538  0.00  0.00     0.085 H 
ATOM     23  H2  L3M d   1       0.798 -17.078  28.493  0.00  0.00     0.040 H 
ATOM     24  H3  L3M d   1       1.830 -15.899  29.370  0.00  0.00     0.040 H 
ATOM     25  H4  L3M d   1       0.019 -14.646  28.902  0.00  0.00     0.033 H 
ATOM     26  H5  L3M d   1      -0.369 -15.240  30.552  0.00  0.00     0.033 H 
ATOM     27  H6  L3M d   1      -1.818 -16.989  29.328  0.00  0.00     0.033 H 
ATOM     28  H7  L3M d   1      -1.674 -15.877  27.925  0.00  0.00     0.033 H 
ATOM     29  H8  L3M d   1      -3.718 -15.335  29.148  0.00  0.00     0.040 H 
ATOM     30  H9  L3M d   1      -2.535 -14.003  29.377  0.00  0.00     0.040 H 
ATOM     31  H10 L3M d   1      -1.976 -13.305  31.588  0.00  0.00     0.084 H 
ATOM     32  H11 L3M d   1      -2.220 -13.546  34.052  0.00  0.00     0.083 H 
ATOM     33  H12 L3M d   1      -3.236 -15.603  35.032  0.00  0.00     0.084 H 
ATOM     34  H13 L3M d   1      -4.809 -18.311  32.863  0.00  0.00     0.043 H 
ATOM     35  H14 L3M d   1      -5.009 -17.507  34.456  0.00  0.00     0.043 H 
ATOM     36  H15 L3M d   1      -2.902 -18.317  35.252  0.00  0.00     0.075 H 
ATOM     37  H40 L3M d   1      -2.338 -18.581  32.392  0.00  0.00     0.163 HD
ATOM     38  H41 L3M d   1      -3.820 -17.110  31.065  0.00  0.00     0.085 H 
ATOM     39  H42 L3M d   1       3.054 -18.122  29.941  0.00  0.00     0.087 H 
ATOM     40  H53 L3M d   1       1.654 -20.080  33.438  0.00  0.00     0.088 H 
ENDROOT
BRANCH  16  41
ATOM     41  C17 L3M d   1      -3.717 -20.206  34.594  0.00  0.00     0.101 C 
ATOM     42  H16 L3M d   1      -4.147 -20.643  33.681  0.00  0.00     0.079 H 
ATOM     43  H17 L3M d   1      -4.482 -20.180  35.384  0.00  0.00     0.079 H 
BRANCH  41  44
ATOM     44  N18 L3M d   1      -2.579 -21.030  35.042  0.00  0.00    -0.058 N 
ATOM     45  H18 L3M d   1      -1.808 -20.421  35.268  0.00  0.00     0.278 HD
ATOM     46  H19 L3M d   1      -2.311 -21.646  34.291  0.00  0.00     0.278 HD
BRANCH  44  47
ATOM     47  C19 L3M d   1      -2.903 -21.849  36.235  0.00  0.00     0.202 C 
ATOM     48  H20 L3M d   1      -3.864 -22.365  36.092  0.00  0.00     0.103 H 
BRANCH  47  49
ATOM     49  C20 L3M d   1      -2.979 -20.980  37.466  0.00  0.00     0.251 C 
ATOM     50  N21 L3M d   1      -3.953 -21.067  38.407  0.00  0.00    -0.359 N 
ATOM     51  H21 L3M d   1      -4.683 -21.733  38.251  0.00  0.00     0.162 HD
ATOM     52  O26 L3M d   1      -2.068 -20.113  37.604  0.00  0.00    -0.271 OA
BRANCH  50  53
ATOM     53  C22 L3M d   1      -4.025 -20.272  39.626  0.00  0.00    -0.002 C 
ATOM     54  H22 L3M d   1      -4.038 -19.213  39.329  0.00  0.00     0.064 H 
ATOM     55  H23 L3M d   1      -3.115 -20.478  40.209  0.00  0.00     0.064 H 
BRANCH  53  56
ATOM     56  C23 L3M d   1      -5.253 -20.510  40.572  0.00  0.00    -0.046 C 
ATOM     57  H24 L3M d   1      -6.067 -19.846  40.244  0.00  0.00     0.041 H 
BRANCH  56  58
ATOM     58  C24 L3M d   1      -4.850 -20.154  42.001  0.00  0.00    -0.072 C 
ATOM     59  H25 L3M d   1      -5.704 -20.317  42.674  0.00  0.00     0.028 H 
ATOM     60  H26 L3M d   1      -4.546 -19.098  42.044  0.00  0.00     0.028 H 
ATOM     61  H27 L3M d   1      -4.010 -20.791  42.314  0.00  0.00     0.028 H 
ENDBRANCH  56  58
BRANCH  56  62
ATOM     62  C25 L3M d   1      -5.772 -21.907  40.596  0.00  0.00    -0.072 C 
ATOM     63  H28 L3M d   1      -6.074 -22.203  39.581  0.00  0.00     0.028 H 
ATOM     64  H29 L3M d   1      -6.641 -21.964  41.269  0.00  0.00     0.028 H 
ATOM     65  H30 L3M d   1      -4.984 -22.585  40.956  0.00  0.00     0.028 H 
ENDBRANCH  56  62
ENDBRANCH  53  56
ENDBRANCH  50  53
ENDBRANCH  47  49
BRANCH  47  66
ATOM     66  C27 L3M d   1      -1.759 -22.879  36.378  0.00  0.00     0.071 C 
ATOM     67  H31 L3M d   1      -1.853 -23.649  35.598  0.00  0.00     0.086 H 
BRANCH  66  68
ATOM     68  O28 L3M d   1      -0.556 -22.122  36.215  0.00  0.00    -0.393 OA
ATOM     69  H32 L3M d   1      -0.511 -21.452  36.887  0.00  0.00     0.210 HD
ENDBRANCH  66  68
BRANCH  66  70
ATOM     70  C29 L3M d   1      -1.687 -23.561  37.762  0.00  0.00    -0.039 C 
ATOM     71  H33 L3M d   1      -2.628 -24.099  37.949  0.00  0.00     0.036 H 
ATOM     72  H34 L3M d   1      -1.544 -22.793  38.536  0.00  0.00     0.036 H 
BRANCH  70  73
ATOM     73  C30 L3M d   1      -0.514 -24.558  37.815  0.00  0.00    -0.066 C 
ATOM     74  H35 L3M d   1       0.425 -23.985  37.839  0.00  0.00     0.032 H 
ATOM     75  H36 L3M d   1      -0.544 -25.175  36.905  0.00  0.00     0.032 H 
BRANCH  73  76
ATOM     76  C31 L3M d   1      -0.538 -25.494  39.031  0.00  0.00    -0.076 C 
ATOM     77  H37 L3M d   1       0.330 -26.169  38.991  0.00  0.00     0.027 H 
ATOM     78  H38 L3M d   1      -1.465 -26.087  39.019  0.00  0.00     0.027 H 
ATOM     79  H39 L3M d   1      -0.496 -24.897  39.954  0.00  0.00     0.027 H 
ENDBRANCH  73  76
ENDBRANCH  70  73
ENDBRANCH  66  70
ENDBRANCH  47  66
ENDBRANCH  44  47
ENDBRANCH  41  44
ENDBRANCH  16  41
BRANCH  20  80
ATOM     80  N36 L3M d   1       3.697 -19.917  31.769  0.00  0.00    -0.276 N 
BRANCH  80  81
ATOM     81  C37 L3M d   1       4.313 -20.205  33.161  0.00  0.00     0.010 C 
ATOM     82  H43 L3M d   1       5.189 -20.856  33.020  0.00  0.00     0.066 H 
ATOM     83  H44 L3M d   1       3.560 -20.730  33.766  0.00  0.00     0.066 H 
BRANCH  81  84
ATOM     84  C38 L3M d   1       4.764 -18.960  33.936  0.00  0.00    -0.052 C 
ATOM     85  H45 L3M d   1       5.448 -19.285  34.734  0.00  0.00     0.034 H 
ATOM     86  H46 L3M d   1       3.872 -18.497  34.384  0.00  0.00     0.034 H 
BRANCH  84  87
ATOM     87  C39 L3M d   1       5.466 -17.919  33.121  0.00  0.00    -0.075 C 
ATOM     88  H47 L3M d   1       5.745 -17.074  33.767  0.00  0.00     0.027 H 
ATOM     89  H48 L3M d   1       4.796 -17.565  32.323  0.00  0.00     0.027 H 
ATOM     90  H49 L3M d   1       6.372 -18.353  32.673  0.00  0.00     0.027 H 
ENDBRANCH  84  87
ENDBRANCH  81  84
ENDBRANCH  80  81
BRANCH  80  91
ATOM     91  S40 L3M d   1       4.456 -20.462  30.360  0.00  0.00     0.229 S 
ATOM     92  O41 L3M d   1       3.470 -20.695  29.364  0.00  0.00    -0.206 OA
ATOM     93  O43 L3M d   1       5.436 -19.499  29.937  0.00  0.00    -0.206 OA
BRANCH  91  94
ATOM     94  C42 L3M d   1       5.228 -21.770  30.741  0.00  0.00     0.033 C 
ATOM     95  H50 L3M d   1       5.741 -22.165  29.852  0.00  0.00     0.051 H 
ATOM     96  H51 L3M d   1       4.516 -22.520  31.117  0.00  0.00     0.051 H 
ATOM     97  H52 L3M d   1       5.969 -21.544  31.522  0.00  0.00     0.051 H 
ENDBRANCH  91  94
ENDBRANCH  80  91
ENDBRANCH  20  80
TORSDOF 19
