REMARK  18 active torsions:
REMARK  status: ('A' for Active; 'I' for Inactive)
REMARK    1  A    between atoms: C16_16  and  C17_17 
REMARK    2  A    between atoms: C17_17  and  N18_18 
REMARK    3  A    between atoms: N18_18  and  C19_19 
REMARK    4  A    between atoms: C19_19  and  C20_20 
REMARK    5  A    between atoms: C19_19  and  C27_27 
REMARK       I    between atoms: C20_20  and  N21_21 
REMARK    6  A    between atoms: N21_21  and  C22_22 
REMARK    7  A    between atoms: C22_22  and  C23_23 
REMARK    8  A    between atoms: C23_23  and  C24_24 
REMARK    9  A    between atoms: C23_23  and  C25_25 
REMARK   10  A    between atoms: C27_27  and  C28_28 
REMARK   11  A    between atoms: C28_28  and  C29_29 
REMARK   12  A    between atoms: C29_29  and  C30_30 
REMARK   13  A    between atoms: C34_34  and  N35_35 
REMARK   14  A    between atoms: N35_35  and  C36_36 
REMARK   15  A    between atoms: N35_35  and  S39_39 
REMARK   16  A    between atoms: C36_36  and  C37_37 
REMARK   17  A    between atoms: C37_37  and  C38_38 
REMARK   18  A    between atoms: S39_39  and  C41_41 
ROOT
ATOM      1  C10 L4J d   1      -3.870 -13.956  29.264  0.00  0.00    -0.058 A 
ATOM      2  C11 L4J d   1      -3.497 -12.872  30.057  0.00  0.00    -0.077 A 
ATOM      3  C12 L4J d   1      -3.663 -12.926  31.441  0.00  0.00    -0.082 A 
ATOM      4  C13 L4J d   1      -4.201 -14.053  32.055  0.00  0.00    -0.077 A 
ATOM      5  C14 L4J d   1      -4.599 -15.147  31.279  0.00  0.00    -0.056 A 
ATOM      6  O01 L4J d   1      -1.294 -17.715  33.045  0.00  0.00    -0.268 OA
ATOM      7  C02 L4J d   1      -1.580 -17.407  31.891  0.00  0.00     0.252 C 
ATOM      8  C03 L4J d   1      -0.473 -17.212  30.880  0.00  0.00     0.034 A 
ATOM      9  C04 L4J d   1      -0.683 -16.382  29.778  0.00  0.00    -0.061 A 
ATOM     10  C05 L4J d   1       0.325 -16.164  28.837  0.00  0.00    -0.055 A 
ATOM     11  C06 L4J d   1       0.031 -15.268  27.657  0.00  0.00    -0.041 C 
ATOM     12  C07 L4J d   1      -1.135 -14.287  27.861  0.00  0.00    -0.061 C 
ATOM     13  C08 L4J d   1      -2.479 -14.685  27.202  0.00  0.00    -0.061 C 
ATOM     14  C09 L4J d   1      -3.697 -13.913  27.761  0.00  0.00    -0.041 C 
ATOM     15  C15 L4J d   1      -5.170 -16.383  31.936  0.00  0.00    -0.021 C 
ATOM     16  C16 L4J d   1      -4.072 -17.328  32.467  0.00  0.00     0.039 C 
ATOM     17  N31 L4J d   1      -2.916 -17.225  31.556  0.00  0.00    -0.350 N 
ATOM     18  C32 L4J d   1      -4.417 -15.090  29.887  0.00  0.00    -0.071 A 
ATOM     19  C33 L4J d   1       1.571 -16.777  28.996  0.00  0.00    -0.050 A 
ATOM     20  C34 L4J d   1       1.822 -17.610  30.098  0.00  0.00     0.046 A 
ATOM     21  C43 L4J d   1       0.784 -17.811  31.031  0.00  0.00    -0.041 A 
ATOM     22  H1  L4J d   1      -3.077 -11.985  29.597  0.00  0.00     0.084 H 
ATOM     23  H2  L4J d   1      -3.368 -12.077  32.047  0.00  0.00     0.083 H 
ATOM     24  H3  L4J d   1      -4.311 -14.083  33.133  0.00  0.00     0.084 H 
ATOM     25  H4  L4J d   1      -1.645 -15.899  29.651  0.00  0.00     0.085 H 
ATOM     26  H5  L4J d   1      -0.208 -15.907  26.794  0.00  0.00     0.040 H 
ATOM     27  H6  L4J d   1       0.936 -14.682  27.440  0.00  0.00     0.040 H 
ATOM     28  H7  L4J d   1      -0.833 -13.314  27.448  0.00  0.00     0.033 H 
ATOM     29  H8  L4J d   1      -1.307 -14.188  28.943  0.00  0.00     0.033 H 
ATOM     30  H9  L4J d   1      -2.643 -15.760  27.369  0.00  0.00     0.033 H 
ATOM     31  H10 L4J d   1      -2.408 -14.488  26.122  0.00  0.00     0.033 H 
ATOM     32  H11 L4J d   1      -3.595 -12.859  27.463  0.00  0.00     0.040 H 
ATOM     33  H12 L4J d   1      -4.604 -14.337  27.305  0.00  0.00     0.040 H 
ATOM     34  H13 L4J d   1      -5.777 -16.927  31.198  0.00  0.00     0.043 H 
ATOM     35  H14 L4J d   1      -5.807 -16.073  32.778  0.00  0.00     0.043 H 
ATOM     36  H15 L4J d   1      -3.756 -16.942  33.447  0.00  0.00     0.075 H 
ATOM     37  H40 L4J d   1      -3.114 -17.002  30.602  0.00  0.00     0.163 HD
ATOM     38  H41 L4J d   1      -4.705 -15.941  29.280  0.00  0.00     0.085 H 
ATOM     39  H42 L4J d   1       2.350 -16.608  28.262  0.00  0.00     0.087 H 
ATOM     40  H53 L4J d   1       0.964 -18.447  31.890  0.00  0.00     0.088 H 
ENDROOT
BRANCH  16  41
ATOM     41  C17 L4J d   1      -4.543 -18.810  32.713  0.00  0.00     0.101 C 
ATOM     42  H16 L4J d   1      -4.797 -19.281  31.752  0.00  0.00     0.079 H 
ATOM     43  H17 L4J d   1      -5.427 -18.813  33.368  0.00  0.00     0.079 H 
BRANCH  41  44
ATOM     44  N18 L4J d   1      -3.431 -19.570  33.367  0.00  0.00    -0.060 N 
ATOM     45  H18 L4J d   1      -2.678 -18.919  33.527  0.00  0.00     0.278 HD
ATOM     46  H19 L4J d   1      -3.130 -20.278  32.716  0.00  0.00     0.278 HD
BRANCH  44  47
ATOM     47  C19 L4J d   1      -3.707 -20.246  34.653  0.00  0.00     0.178 C 
ATOM     48  H20 L4J d   1      -4.656 -20.789  34.535  0.00  0.00     0.099 H 
BRANCH  47  49
ATOM     49  C20 L4J d   1      -3.895 -19.240  35.810  0.00  0.00     0.248 C 
ATOM     50  N21 L4J d   1      -5.058 -19.349  36.554  0.00  0.00    -0.359 N 
ATOM     51  H21 L4J d   1      -5.720 -20.061  36.319  0.00  0.00     0.162 HD
ATOM     52  O26 L4J d   1      -3.050 -18.380  36.058  0.00  0.00    -0.271 OA
BRANCH  50  53
ATOM     53  C22 L4J d   1      -5.346 -18.449  37.678  0.00  0.00    -0.002 C 
ATOM     54  H22 L4J d   1      -6.237 -17.851  37.436  0.00  0.00     0.064 H 
ATOM     55  H23 L4J d   1      -4.485 -17.781  37.829  0.00  0.00     0.064 H 
BRANCH  53  56
ATOM     56  C23 L4J d   1      -5.607 -19.227  38.981  0.00  0.00    -0.046 C 
ATOM     57  H24 L4J d   1      -4.760 -19.914  39.123  0.00  0.00     0.041 H 
BRANCH  56  58
ATOM     58  C24 L4J d   1      -5.674 -18.318  40.210  0.00  0.00    -0.072 C 
ATOM     59  H25 L4J d   1      -5.862 -18.927  41.107  0.00  0.00     0.028 H 
ATOM     60  H26 L4J d   1      -6.489 -17.590  40.084  0.00  0.00     0.028 H 
ATOM     61  H27 L4J d   1      -4.719 -17.783  40.323  0.00  0.00     0.028 H 
ENDBRANCH  56  58
BRANCH  56  62
ATOM     62  C25 L4J d   1      -6.878 -20.068  38.891  0.00  0.00    -0.072 C 
ATOM     63  H28 L4J d   1      -6.825 -20.719  38.006  0.00  0.00     0.028 H 
ATOM     64  H29 L4J d   1      -7.751 -19.405  38.806  0.00  0.00     0.028 H 
ATOM     65  H30 L4J d   1      -6.974 -20.686  39.796  0.00  0.00     0.028 H 
ENDBRANCH  56  62
ENDBRANCH  53  56
ENDBRANCH  50  53
ENDBRANCH  47  49
BRANCH  47  66
ATOM     66  C27 L4J d   1      -2.615 -21.295  35.005  0.00  0.00    -0.030 C 
ATOM     67  H31 L4J d   1      -1.643 -20.781  35.014  0.00  0.00     0.036 H 
ATOM     68  H32 L4J d   1      -2.617 -22.063  34.217  0.00  0.00     0.036 H 
BRANCH  66  69
ATOM     69  C28 L4J d   1      -2.785 -22.000  36.348  0.00  0.00    -0.063 C 
ATOM     70  H33 L4J d   1      -3.747 -22.534  36.340  0.00  0.00     0.033 H 
ATOM     71  H34 L4J d   1      -2.795 -21.238  37.141  0.00  0.00     0.033 H 
BRANCH  69  72
ATOM     72  C29 L4J d   1      -1.675 -23.008  36.661  0.00  0.00    -0.068 C 
ATOM     73  H35 L4J d   1      -0.708 -22.483  36.655  0.00  0.00     0.032 H 
ATOM     74  H36 L4J d   1      -1.675 -23.787  35.884  0.00  0.00     0.032 H 
BRANCH  72  75
ATOM     75  C30 L4J d   1      -1.864 -23.669  38.016  0.00  0.00    -0.077 C 
ATOM     76  H37 L4J d   1      -1.045 -24.381  38.194  0.00  0.00     0.027 H 
ATOM     77  H38 L4J d   1      -2.825 -24.204  38.032  0.00  0.00     0.027 H 
ATOM     78  H39 L4J d   1      -1.859 -22.900  38.803  0.00  0.00     0.027 H 
ENDBRANCH  72  75
ENDBRANCH  69  72
ENDBRANCH  66  69
ENDBRANCH  47  66
ENDBRANCH  44  47
ENDBRANCH  41  44
ENDBRANCH  16  41
BRANCH  20  79
ATOM     79  N35 L4J d   1       3.116 -18.245  30.262  0.00  0.00    -0.276 N 
BRANCH  79  80
ATOM     80  C36 L4J d   1       3.848 -18.204  31.568  0.00  0.00     0.010 C 
ATOM     81  H43 L4J d   1       4.832 -18.672  31.417  0.00  0.00     0.066 H 
ATOM     82  H44 L4J d   1       3.270 -18.791  32.297  0.00  0.00     0.066 H 
BRANCH  80  83
ATOM     83  C37 L4J d   1       4.082 -16.787  32.176  0.00  0.00    -0.052 C 
ATOM     84  H45 L4J d   1       4.912 -16.858  32.895  0.00  0.00     0.034 H 
ATOM     85  H46 L4J d   1       3.164 -16.487  32.703  0.00  0.00     0.034 H 
BRANCH  83  86
ATOM     86  C38 L4J d   1       4.425 -15.693  31.162  0.00  0.00    -0.075 C 
ATOM     87  H47 L4J d   1       4.570 -14.738  31.688  0.00  0.00     0.027 H 
ATOM     88  H48 L4J d   1       3.602 -15.592  30.439  0.00  0.00     0.027 H 
ATOM     89  H49 L4J d   1       5.349 -15.963  30.630  0.00  0.00     0.027 H 
ENDBRANCH  83  86
ENDBRANCH  80  83
ENDBRANCH  79  80
BRANCH  79  90
ATOM     90  S39 L4J d   1       3.809 -19.055  28.984  0.00  0.00     0.229 S 
ATOM     91  O40 L4J d   1       4.613 -20.071  29.548  0.00  0.00    -0.206 OA
ATOM     92  O42 L4J d   1       2.782 -19.366  28.057  0.00  0.00    -0.206 OA
BRANCH  90  93
ATOM     93  C41 L4J d   1       4.838 -17.980  28.180  0.00  0.00     0.033 C 
ATOM     94  H50 L4J d   1       5.310 -18.492  27.328  0.00  0.00     0.051 H 
ATOM     95  H51 L4J d   1       5.616 -17.629  28.874  0.00  0.00     0.051 H 
ATOM     96  H52 L4J d   1       4.257 -17.120  27.815  0.00  0.00     0.051 H 
ENDBRANCH  90  93
ENDBRANCH  79  90
ENDBRANCH  20  79
TORSDOF 18
