REMARK  8 active torsions:
REMARK  status: ('A' for Active; 'I' for Inactive)
REMARK    1  A    between atoms: C10_10  and  C19_19 
REMARK    2  A    between atoms: C11_11  and  O2_25 
REMARK    3  A    between atoms: C13_13  and  C18_18 
REMARK    4  A    between atoms: C16_16  and  C22_22 
REMARK    5  A    between atoms: C17_17  and  C20_20 
REMARK    6  A    between atoms: C17_17  and  O3_26 
REMARK    7  A    between atoms: C20_20  and  C21_21 
REMARK    8  A    between atoms: C21_21  and  O5_28 
ROOT
ATOM      1  C1  DEX d   1      70.621 126.067  11.678  0.00  0.00    -0.084 C 
ATOM      2  C2  DEX d   1      71.586 125.664  12.482  0.00  0.00    -0.037 C 
ATOM      3  C3  DEX d   1      71.735 124.280  12.879  0.00  0.00     0.172 C 
ATOM      4  C4  DEX d   1      70.975 123.323  12.101  0.00  0.00    -0.031 C 
ATOM      5  C5  DEX d   1      70.056 123.709  11.210  0.00  0.00    -0.061 C 
ATOM      6  C6  DEX d   1      69.194 122.689  10.528  0.00  0.00    -0.043 C 
ATOM      7  C7  DEX d   1      67.700 123.055  10.732  0.00  0.00    -0.055 C 
ATOM      8  C8  DEX d   1      67.433 124.417  10.264  0.00  0.00    -0.011 C 
ATOM      9  C9  DEX d   1      68.303 125.427  11.076  0.00  0.00     0.147 C 
ATOM     10  C10 DEX d   1      69.825 125.126  10.846  0.00  0.00     0.036 C 
ATOM     11  C11 DEX d   1      67.954 126.956  10.857  0.00  0.00     0.072 C 
ATOM     12  C12 DEX d   1      66.433 127.205  10.992  0.00  0.00    -0.028 C 
ATOM     13  C13 DEX d   1      65.611 126.281  10.093  0.00  0.00     0.001 C 
ATOM     14  C14 DEX d   1      65.958 124.815  10.506  0.00  0.00    -0.037 C 
ATOM     15  C15 DEX d   1      64.887 123.990   9.810  0.00  0.00    -0.054 C 
ATOM     16  C16 DEX d   1      63.607 124.898   9.851  0.00  0.00    -0.020 C 
ATOM     17  C17 DEX d   1      64.040 126.281  10.359  0.00  0.00     0.131 C 
ATOM     18  F1  DEX d   1      68.081 125.220  12.405  0.00  0.00    -0.238 F 
ATOM     19  O1  DEX d   1      72.433 123.945  13.816  0.00  0.00    -0.289 OA
ATOM     20  H1  DEX d   1      70.398 127.132  11.621  0.00  0.00     0.078 H 
ATOM     21  H2  DEX d   1      72.296 126.398  12.860  0.00  0.00     0.089 H 
ATOM     22  H3  DEX d   1      71.157 122.259  12.246  0.00  0.00     0.090 H 
ATOM     23  H4  DEX d   1      69.390 121.696  10.959  0.00  0.00     0.039 H 
ATOM     24  H5  DEX d   1      69.424 122.674   9.453  0.00  0.00     0.039 H 
ATOM     25  H6  DEX d   1      67.454 122.986  11.802  0.00  0.00     0.034 H 
ATOM     26  H7  DEX d   1      67.075 122.349  10.166  0.00  0.00     0.034 H 
ATOM     27  H8  DEX d   1      67.669 124.486   9.192  0.00  0.00     0.045 H 
ATOM     28  H9  DEX d   1      68.451 127.520  11.660  0.00  0.00     0.088 H 
ATOM     29  H10 DEX d   1      66.220 128.248  10.716  0.00  0.00     0.038 H 
ATOM     30  H11 DEX d   1      66.138 127.035  12.038  0.00  0.00     0.038 H 
ATOM     31  H12 DEX d   1      65.801 124.717  11.590  0.00  0.00     0.042 H 
ATOM     32  H13 DEX d   1      64.712 123.046  10.347  0.00  0.00     0.034 H 
ATOM     33  H14 DEX d   1      65.177 123.772   8.771  0.00  0.00     0.034 H 
ATOM     34  H15 DEX d   1      63.175 124.992   8.844  0.00  0.00     0.044 H 
ENDROOT
BRANCH  17  35
ATOM     35  C20 DEX d   1      63.355 127.457   9.636  0.00  0.00     0.185 C 
ATOM     36  O4  DEX d   1      62.927 127.361   8.508  0.00  0.00    -0.292 OA
BRANCH  35  37
ATOM     37  C21 DEX d   1      63.242 128.790  10.398  0.00  0.00     0.074 C 
ATOM     38  H22 DEX d   1      64.118 128.938  11.047  0.00  0.00     0.086 H 
ATOM     39  H23 DEX d   1      62.326 128.809  11.007  0.00  0.00     0.086 H 
BRANCH  37  40
ATOM     40  O5  DEX d   1      63.193 129.777   9.412  0.00  0.00    -0.393 OA
ATOM     41  H29 DEX d   1      62.438 129.629   8.855  0.00  0.00     0.209 HD
ENDBRANCH  37  40
ENDBRANCH  35  37
ENDBRANCH  17  35
BRANCH  17  42
ATOM     42  O3  DEX d   1      63.829 126.395  11.719  0.00  0.00    -0.381 OA
ATOM     43  H28 DEX d   1      64.104 127.257  12.010  0.00  0.00     0.211 HD
ENDBRANCH  17  42
BRANCH  13  44
ATOM     44  C18 DEX d   1      65.849 126.586   8.620  0.00  0.00    -0.065 C 
ATOM     45  H16 DEX d   1      66.930 126.590   8.416  0.00  0.00     0.028 H 
ATOM     46  H17 DEX d   1      65.426 127.572   8.377  0.00  0.00     0.028 H 
ATOM     47  H18 DEX d   1      65.363 125.816   8.003  0.00  0.00     0.028 H 
ENDBRANCH  13  44
BRANCH  16  48
ATOM     48  C22 DEX d   1      62.602 124.265  10.769  0.00  0.00    -0.070 C 
ATOM     49  H24 DEX d   1      62.316 123.279  10.375  0.00  0.00     0.028 H 
ATOM     50  H25 DEX d   1      61.711 124.906  10.835  0.00  0.00     0.028 H 
ATOM     51  H26 DEX d   1      63.043 124.146  11.770  0.00  0.00     0.028 H 
ENDBRANCH  16  48
BRANCH  11  52
ATOM     52  O2  DEX d   1      68.449 127.450   9.637  0.00  0.00    -0.392 OA
ATOM     53  H27 DEX d   1      68.291 128.385   9.588  0.00  0.00     0.210 HD
ENDBRANCH  11  52
BRANCH  10  54
ATOM     54  C19 DEX d   1      70.236 125.285   9.426  0.00  0.00    -0.059 C 
ATOM     55  H19 DEX d   1      71.309 125.062   9.328  0.00  0.00     0.029 H 
ATOM     56  H20 DEX d   1      70.046 126.319   9.103  0.00  0.00     0.029 H 
ATOM     57  H21 DEX d   1      69.658 124.592   8.797  0.00  0.00     0.029 H 
ENDBRANCH  10  54
TORSDOF 8
