REMARK  7 active torsions:
REMARK  status: ('A' for Active; 'I' for Inactive)
REMARK    1  A    between atoms: C10_10  and  C19_19 
REMARK    2  A    between atoms: C11_12  and  O2_23 
REMARK    3  A    between atoms: C13_13  and  C18_18 
REMARK    4  A    between atoms: C17_17  and  C20_20 
REMARK    5  A    between atoms: C17_17  and  O3_24 
REMARK    6  A    between atoms: C20_20  and  C21_21 
REMARK    7  A    between atoms: C21_21  and  O5_26 
ROOT
ATOM      1  C1  HCY d   1       0.933 -29.556  12.041  0.00  0.00    -0.048 C 
ATOM      2  C2  HCY d   1      -0.395 -29.010  12.513  0.00  0.00    -0.005 C 
ATOM      3  C3  HCY d   1      -0.221 -27.617  13.041  0.00  0.00     0.149 C 
ATOM      4  C4  HCY d   1       0.721 -26.756  12.338  0.00  0.00    -0.036 C 
ATOM      5  C5  HCY d   1       1.601 -27.223  11.444  0.00  0.00    -0.068 C 
ATOM      6  C6  HCY d   1       2.505 -26.278  10.724  0.00  0.00    -0.043 C 
ATOM      7  C7  HCY d   1       3.984 -26.689  10.823  0.00  0.00    -0.057 C 
ATOM      8  C8  HCY d   1       4.155 -28.101  10.343  0.00  0.00    -0.043 C 
ATOM      9  C9  HCY d   1       3.260 -29.038  11.172  0.00  0.00    -0.015 C 
ATOM     10  C10 HCY d   1       1.740 -28.656  11.088  0.00  0.00    -0.014 C 
ATOM     11  C12 HCY d   1       5.013 -30.925  10.931  0.00  0.00    -0.030 C 
ATOM     12  C11 HCY d   1       3.515 -30.555  10.892  0.00  0.00     0.041 C 
ATOM     13  C13 HCY d   1       5.839 -30.027  10.027  0.00  0.00     0.001 C 
ATOM     14  C14 HCY d   1       5.619 -28.559  10.478  0.00  0.00    -0.040 C 
ATOM     15  C15 HCY d   1       6.664 -27.809   9.642  0.00  0.00    -0.058 C 
ATOM     16  C16 HCY d   1       7.909 -28.760   9.673  0.00  0.00    -0.028 C 
ATOM     17  C17 HCY d   1       7.401 -30.161  10.170  0.00  0.00     0.128 C 
ATOM     18  O1  HCY d   1      -0.848 -27.224  14.016  0.00  0.00    -0.293 OA
ATOM     19  H1  HCY d   1       0.739 -30.506  11.521  0.00  0.00     0.035 H 
ATOM     20  H2  HCY d   1       1.553 -29.744  12.930  0.00  0.00     0.035 H 
ATOM     21  H3  HCY d   1      -0.790 -29.655  13.312  0.00  0.00     0.044 H 
ATOM     22  H4  HCY d   1      -1.102 -28.994  11.671  0.00  0.00     0.044 H 
ATOM     23  H5  HCY d   1       0.709 -25.688  12.549  0.00  0.00     0.089 H 
ATOM     24  H6  HCY d   1       2.387 -25.275  11.161  0.00  0.00     0.039 H 
ATOM     25  H7  HCY d   1       2.216 -26.252   9.663  0.00  0.00     0.039 H 
ATOM     26  H8  HCY d   1       4.313 -26.617  11.870  0.00  0.00     0.034 H 
ATOM     27  H9  HCY d   1       4.592 -26.016  10.201  0.00  0.00     0.034 H 
ATOM     28  H10 HCY d   1       3.858 -28.156   9.285  0.00  0.00     0.041 H 
ATOM     29  H11 HCY d   1       3.552 -28.877  12.220  0.00  0.00     0.046 H 
ATOM     30  H12 HCY d   1       5.131 -31.968  10.601  0.00  0.00     0.038 H 
ATOM     31  H13 HCY d   1       5.378 -30.823  11.964  0.00  0.00     0.038 H 
ATOM     32  H14 HCY d   1       3.038 -31.112  11.712  0.00  0.00     0.083 H 
ATOM     33  H15 HCY d   1       5.882 -28.459  11.541  0.00  0.00     0.042 H 
ATOM     34  H16 HCY d   1       6.902 -26.834  10.093  0.00  0.00     0.033 H 
ATOM     35  H17 HCY d   1       6.309 -27.659   8.612  0.00  0.00     0.033 H 
ATOM     36  H18 HCY d   1       8.669 -28.366  10.364  0.00  0.00     0.038 H 
ATOM     37  H19 HCY d   1       8.341 -28.850   8.666  0.00  0.00     0.038 H 
ENDROOT
BRANCH  17  38
ATOM     38  C20 HCY d   1       7.952 -31.352   9.372  0.00  0.00     0.184 C 
ATOM     39  O4  HCY d   1       8.363 -31.254   8.232  0.00  0.00    -0.292 OA
BRANCH  38  40
ATOM     40  C21 HCY d   1       7.984 -32.700  10.092  0.00  0.00     0.074 C 
ATOM     41  H26 HCY d   1       7.078 -32.830  10.702  0.00  0.00     0.086 H 
ATOM     42  H27 HCY d   1       8.873 -32.769  10.737  0.00  0.00     0.086 H 
BRANCH  40  43
ATOM     43  O5  HCY d   1       8.036 -33.659   9.096  0.00  0.00    -0.393 OA
ATOM     44  H30 HCY d   1       8.818 -33.529   8.573  0.00  0.00     0.209 HD
ENDBRANCH  40  43
ENDBRANCH  38  40
ENDBRANCH  17  38
BRANCH  17  45
ATOM     45  O3  HCY d   1       7.689 -30.349  11.522  0.00  0.00    -0.381 OA
ATOM     46  H29 HCY d   1       8.629 -30.302  11.654  0.00  0.00     0.211 HD
ENDBRANCH  17  45
BRANCH  13  47
ATOM     47  C18 HCY d   1       5.474 -30.254   8.561  0.00  0.00    -0.065 C 
ATOM     48  H20 HCY d   1       4.385 -30.165   8.436  0.00  0.00     0.028 H 
ATOM     49  H21 HCY d   1       5.797 -31.260   8.254  0.00  0.00     0.028 H 
ATOM     50  H22 HCY d   1       5.977 -29.501   7.937  0.00  0.00     0.028 H 
ENDBRANCH  13  47
BRANCH  12  51
ATOM     51  O2  HCY d   1       2.874 -30.965   9.696  0.00  0.00    -0.395 OA
ATOM     52  H28 HCY d   1       2.941 -31.909   9.610  0.00  0.00     0.210 HD
ENDBRANCH  12  51
BRANCH  10  53
ATOM     53  C19 HCY d   1       1.138 -28.785   9.666  0.00  0.00    -0.065 C 
ATOM     54  H23 HCY d   1       0.075 -28.501   9.691  0.00  0.00     0.028 H 
ATOM     55  H24 HCY d   1       1.232 -29.825   9.321  0.00  0.00     0.028 H 
ATOM     56  H25 HCY d   1       1.679 -28.120   8.977  0.00  0.00     0.028 H 
ENDBRANCH  10  53
TORSDOF 7
