REMARK  7 active torsions:
REMARK  status: ('A' for Active; 'I' for Inactive)
REMARK    1  A    between atoms: O19_3  and  C18_1 
REMARK    2  A    between atoms: C21_5  and  C23_2 
REMARK    3  A    between atoms: C23_2  and  O24_7 
REMARK    4  A    between atoms: C20_4  and  O19_3 
REMARK    5  A    between atoms: C20_4  and  C21_5 
REMARK    6  A    between atoms: C21_5  and  O22_6 
REMARK    7  A    between atoms: O24_7  and  C25_8 
ROOT
ATOM      1  C21 LBA d   1       0.596   0.077   2.882  0.00  0.00     0.076 C 
ATOM      2  H8  LBA d   1       0.433  -0.648   2.071  0.00  0.00     0.089 H 
ENDROOT
BRANCH   1   3
ATOM      3  C23 LBA d   1      -0.544   0.040   3.895  0.00  0.00     0.045 C 
ATOM      4  H4  LBA d   1      -0.572   0.998   4.434  0.00  0.00     0.078 H 
ATOM      5  H5  LBA d   1      -0.360  -0.777   4.608  0.00  0.00     0.078 H 
BRANCH   3   6
ATOM      6  O24 LBA d   1      -1.817  -0.174   3.260  0.00  0.00    -0.393 OA
BRANCH   6   7
ATOM      7  C25 LBA d   1      -2.759   0.803   3.357  0.00  0.00     0.004 C 
ATOM      8  H10 LBA d   1      -3.668   0.490   2.823  0.00  0.00     0.066 H 
ATOM      9  H11 LBA d   1      -2.373   1.731   2.910  0.00  0.00     0.066 H 
ATOM     10  H12 LBA d   1      -2.998   0.978   4.416  0.00  0.00     0.066 H 
ENDBRANCH   6   7
ENDBRANCH   3   6
ENDBRANCH   1   3
BRANCH   1  11
ATOM     11  C20 LBA d   1       1.824  -0.335   3.700  0.00  0.00     0.045 C 
ATOM     12  H6  LBA d   1       1.829   0.237   4.639  0.00  0.00     0.078 H 
ATOM     13  H7  LBA d   1       1.753  -1.409   3.925  0.00  0.00     0.078 H 
BRANCH  11  14
ATOM     14  O19 LBA d   1       3.047  -0.094   3.013  0.00  0.00    -0.393 OA
BRANCH  14  15
ATOM     15  C18 LBA d   1       3.892  -1.182   2.797  0.00  0.00     0.004 C 
ATOM     16  H1  LBA d   1       4.791  -0.847   2.259  0.00  0.00     0.066 H 
ATOM     17  H2  LBA d   1       3.368  -1.940   2.197  0.00  0.00     0.066 H 
ATOM     18  H3  LBA d   1       4.184  -1.617   3.764  0.00  0.00     0.066 H 
ENDBRANCH  14  15
ENDBRANCH  11  14
ENDBRANCH   1  11
BRANCH   1  19
ATOM     19  O22 LBA d   1       0.635   1.416   2.314  0.00  0.00    -0.391 OA
ATOM     20  H9  LBA d   1       1.381   1.490   1.730  0.00  0.00     0.210 HD
ENDBRANCH   1  19
TORSDOF 7
