REMARK  15 active torsions:
REMARK  status: ('A' for Active; 'I' for Inactive)
REMARK    1  A    between atoms: C06_5  and  C04_3 
REMARK    2  A    between atoms: C05_4  and  C57_39 
REMARK       I    between atoms: N08_44  and  C06_5 
REMARK    3  A    between atoms: C10_7  and  C09_6 
REMARK    4  A    between atoms: C09_6  and  N08_44 
REMARK       I    between atoms: N11_45  and  C10_7 
REMARK    5  A    between atoms: C13_8  and  C56_38 
REMARK    6  A    between atoms: S12_58  and  C13_8 
REMARK    7  A    between atoms: C17_9  and  C47_32 
REMARK    8  A    between atoms: C25_15  and  C49_33 
REMARK    9  A    between atoms: C39_24  and  O54_57 
REMARK   10  A    between atoms: C49_33  and  C50_34 
REMARK   11  A    between atoms: C49_33  and  C51_35 
REMARK   12  A    between atoms: C49_33  and  C53_36 
REMARK   13  A    between atoms: O54_57  and  C55_37 
REMARK   14  A    between atoms: C57_39  and  C58_40 
REMARK   15  A    between atoms: N11_45  and  S12_58 
ROOT
ATOM      1  C01 L9J d   1     -14.137  12.215 -12.998  0.00  0.00     0.068 C 
ATOM      2  C02 L9J d   1     -15.368  11.316 -12.780  0.00  0.00     0.024 C 
ATOM      3  C04 L9J d   1     -13.774  10.223 -14.223  0.00  0.00     0.097 C 
ATOM      4  C05 L9J d   1     -13.057  11.160 -13.247  0.00  0.00     0.001 C 
ATOM      5  C22 L9J d   1     -13.562  14.116 -14.395  0.00  0.00     0.190 A 
ATOM      6  C23 L9J d   1     -16.166   9.445 -14.295  0.00  0.00     0.244 C 
ATOM      7  C25 L9J d   1     -17.600   9.584 -13.718  0.00  0.00     0.098 C 
ATOM      8  C27 L9J d   1     -18.937  10.837 -15.271  0.00  0.00     0.361 C 
ATOM      9  C30 L9J d   1     -20.308  11.889 -16.879  0.00  0.00     0.053 A 
ATOM     10  C31 L9J d   1     -19.522  12.467 -18.032  0.00  0.00    -0.026 A 
ATOM     11  C32 L9J d   1     -19.472  13.962 -18.204  0.00  0.00    -0.059 C 
ATOM     12  C34 L9J d   1     -12.025  15.675 -13.701  0.00  0.00     0.091 A 
ATOM     13  C35 L9J d   1     -12.186  16.367 -14.920  0.00  0.00     0.086 A 
ATOM     14  C37 L9J d   1     -13.737  14.790 -15.583  0.00  0.00     0.088 A 
ATOM     15  C38 L9J d   1     -11.134  16.157 -12.749  0.00  0.00    -0.021 A 
ATOM     16  C39 L9J d   1     -10.407  17.333 -13.018  0.00  0.00     0.070 A 
ATOM     17  C40 L9J d   1     -10.572  18.016 -14.214  0.00  0.00    -0.048 A 
ATOM     18  C41 L9J d   1     -11.466  17.538 -15.173  0.00  0.00    -0.050 A 
ATOM     19  C42 L9J d   1     -14.685  14.309 -16.650  0.00  0.00    -0.021 C 
ATOM     20  C43 L9J d   1     -16.129  14.740 -16.367  0.00  0.00    -0.060 C 
ATOM     21  C44 L9J d   1     -17.073  14.255 -17.477  0.00  0.00    -0.065 C 
ATOM     22  C45 L9J d   1     -18.526  14.576 -17.163  0.00  0.00    -0.065 C 
ATOM     23  C46 L9J d   1     -20.800  11.710 -18.288  0.00  0.00    -0.034 A 
ATOM     24  N03 L9J d   1     -15.192  10.267 -13.782  0.00  0.00    -0.334 N 
ATOM     25  N26 L9J d   1     -18.513   9.621 -14.842  0.00  0.00    -0.323 N 
ATOM     26  N33 L9J d   1     -12.710  14.529 -13.434  0.00  0.00    -0.221 NA
ATOM     27  N36 L9J d   1     -13.050  15.929 -15.857  0.00  0.00    -0.247 NA
ATOM     28  O21 L9J d   1     -14.311  12.973 -14.214  0.00  0.00    -0.325 OA
ATOM     29  O24 L9J d   1     -15.928   8.589 -15.160  0.00  0.00    -0.271 OA
ATOM     30  O28 L9J d   1     -18.627  11.917 -14.783  0.00  0.00    -0.238 OA
ATOM     31  O29 L9J d   1     -19.767  10.680 -16.326  0.00  0.00    -0.298 OA
ATOM     32  H1  L9J d   1     -13.921  12.868 -12.140  0.00  0.00     0.087 H 
ATOM     33  H2  L9J d   1     -16.300  11.874 -12.952  0.00  0.00     0.068 H 
ATOM     34  H3  L9J d   1     -15.375  10.895 -11.764  0.00  0.00     0.068 H 
ATOM     35  H4  L9J d   1     -13.656  10.608 -15.247  0.00  0.00     0.088 H 
ATOM     36  H5  L9J d   1     -12.157  11.599 -13.702  0.00  0.00     0.048 H 
ATOM     37  H13 L9J d   1     -17.676  10.536 -13.172  0.00  0.00     0.088 H 
ATOM     38  H14 L9J d   1     -20.819  12.517 -16.134  0.00  0.00     0.084 H 
ATOM     39  H15 L9J d   1     -18.556  12.028 -18.323  0.00  0.00     0.044 H 
ATOM     40  H16 L9J d   1     -20.481  14.379 -18.070  0.00  0.00     0.033 H 
ATOM     41  H17 L9J d   1     -19.108  14.201 -19.214  0.00  0.00     0.033 H 
ATOM     42  H18 L9J d   1     -11.000  15.633 -11.809  0.00  0.00     0.091 H 
ATOM     43  H19 L9J d   1     -10.007  18.921 -14.404  0.00  0.00     0.087 H 
ATOM     44  H20 L9J d   1     -11.601  18.071 -16.107  0.00  0.00     0.087 H 
ATOM     45  H21 L9J d   1     -14.644  13.211 -16.694  0.00  0.00     0.042 H 
ATOM     46  H22 L9J d   1     -14.372  14.727 -17.618  0.00  0.00     0.042 H 
ATOM     47  H23 L9J d   1     -16.173  15.838 -16.311  0.00  0.00     0.033 H 
ATOM     48  H24 L9J d   1     -16.451  14.311 -15.407  0.00  0.00     0.033 H 
ATOM     49  H25 L9J d   1     -16.965  13.166 -17.586  0.00  0.00     0.033 H 
ATOM     50  H26 L9J d   1     -16.796  14.747 -18.421  0.00  0.00     0.033 H 
ATOM     51  H27 L9J d   1     -18.775  14.172 -16.171  0.00  0.00     0.033 H 
ATOM     52  H28 L9J d   1     -18.659  15.668 -17.159  0.00  0.00     0.033 H 
ATOM     53  H29 L9J d   1     -21.698  12.247 -18.629  0.00  0.00     0.037 H 
ATOM     54  H30 L9J d   1     -20.765  10.717 -18.760  0.00  0.00     0.037 H 
ATOM     55  H54 L9J d   1     -18.820   8.780 -15.287  0.00  0.00     0.165 HD
ENDROOT
BRANCH   3  56
ATOM     56  C06 L9J d   1     -13.370   8.734 -14.201  0.00  0.00     0.242 C 
ATOM     57  N08 L9J d   1     -12.727   8.325 -15.345  0.00  0.00    -0.341 N 
ATOM     58  H52 L9J d   1     -12.531   9.018 -16.039  0.00  0.00     0.163 HD
ATOM     59  O07 L9J d   1     -13.618   7.966 -13.270  0.00  0.00    -0.271 OA
BRANCH  57  60
ATOM     60  C09 L9J d   1     -12.317   6.980 -15.617  0.00  0.00     0.124 A 
ATOM     61  C17 L9J d   1     -13.516   6.071 -15.903  0.00  0.00     0.038 A 
ATOM     62  C18 L9J d   1     -12.643   6.547 -17.030  0.00  0.00    -0.021 A 
ATOM     63  H6  L9J d   1     -14.518   6.509 -15.784  0.00  0.00     0.053 H 
ATOM     64  H7  L9J d   1     -11.985   5.836 -17.550  0.00  0.00     0.038 H 
ATOM     65  H8  L9J d   1     -13.032   7.281 -17.751  0.00  0.00     0.038 H 
BRANCH  60  66
ATOM     66  C10 L9J d   1     -11.154   6.312 -14.996  0.00  0.00     0.260 C 
ATOM     67  N11 L9J d   1     -10.439   7.082 -14.097  0.00  0.00    -0.252 N 
ATOM     68  H53 L9J d   1     -10.661   8.032 -13.875  0.00  0.00     0.181 HD
ATOM     69  O16 L9J d   1     -10.860   5.152 -15.286  0.00  0.00    -0.270 OA
BRANCH  67  70
ATOM     70  S12 L9J d   1      -9.165   6.244 -13.426  0.00  0.00     0.241 S 
ATOM     71  O14 L9J d   1      -9.675   5.141 -12.604  0.00  0.00    -0.205 OA
ATOM     72  O15 L9J d   1      -8.159   5.859 -14.405  0.00  0.00    -0.205 OA
BRANCH  70  73
ATOM     73  C13 L9J d   1      -8.393   7.410 -12.267  0.00  0.00     0.079 A 
ATOM     74  C19 L9J d   1      -6.992   6.993 -11.990  0.00  0.00    -0.042 A 
ATOM     75  C20 L9J d   1      -7.260   8.199 -12.848  0.00  0.00    -0.042 A 
ATOM     76  H9  L9J d   1      -6.592   6.074 -12.443  0.00  0.00     0.035 H 
ATOM     77  H10 L9J d   1      -6.570   7.118 -10.982  0.00  0.00     0.035 H 
ATOM     78  H11 L9J d   1      -7.038   9.207 -12.468  0.00  0.00     0.035 H 
ATOM     79  H12 L9J d   1      -7.060   8.162 -13.929  0.00  0.00     0.035 H 
BRANCH  73  80
ATOM     80  C56 L9J d   1      -9.575   7.805 -11.361  0.00  0.00    -0.054 C 
ATOM     81  H44 L9J d   1      -9.231   8.522 -10.601  0.00  0.00     0.029 H 
ATOM     82  H45 L9J d   1      -9.972   6.907 -10.864  0.00  0.00     0.029 H 
ATOM     83  H46 L9J d   1     -10.366   8.267 -11.970  0.00  0.00     0.029 H 
ENDBRANCH  73  80
ENDBRANCH  70  73
ENDBRANCH  67  70
ENDBRANCH  60  66
BRANCH  61  84
ATOM     84  C47 L9J d   1     -13.634   4.618 -15.584  0.00  0.00     0.214 C 
ATOM     85  F48 L9J d   1     -14.742   4.152 -16.225  0.00  0.00    -0.214 F 
ATOM     86  F52 L9J d   1     -13.847   4.481 -14.237  0.00  0.00    -0.214 F 
ATOM     87  H31 L9J d   1     -12.733   4.071 -15.897  0.00  0.00     0.145 H 
ENDBRANCH  61  84
ENDBRANCH  57  60
ENDBRANCH   3  56
BRANCH   4  88
ATOM     88  C57 L9J d   1     -12.679  10.457 -11.936  0.00  0.00    -0.060 C 
ATOM     89  H47 L9J d   1     -12.043   9.587 -12.157  0.00  0.00     0.033 H 
ATOM     90  H48 L9J d   1     -13.593  10.122 -11.423  0.00  0.00     0.033 H 
BRANCH  88  91
ATOM     91  C58 L9J d   1     -11.910  11.438 -11.027  0.00  0.00    -0.076 C 
ATOM     92  H49 L9J d   1     -11.640  10.933 -10.088  0.00  0.00     0.027 H 
ATOM     93  H50 L9J d   1     -12.546  12.308 -10.806  0.00  0.00     0.027 H 
ATOM     94  H51 L9J d   1     -10.996  11.773 -11.539  0.00  0.00     0.027 H 
ENDBRANCH  88  91
ENDBRANCH   4  88
BRANCH   7  95
ATOM     95  C49 L9J d   1     -17.917   8.432 -12.719  0.00  0.00    -0.022 C 
BRANCH  95  96
ATOM     96  C50 L9J d   1     -17.815   7.036 -13.372  0.00  0.00    -0.067 C 
ATOM     97  H32 L9J d   1     -18.048   6.264 -12.624  0.00  0.00     0.028 H 
ATOM     98  H33 L9J d   1     -16.794   6.883 -13.752  0.00  0.00     0.028 H 
ATOM     99  H34 L9J d   1     -18.530   6.968 -14.205  0.00  0.00     0.028 H 
ENDBRANCH  95  96
BRANCH  95 100
ATOM    100  C51 L9J d   1     -16.893   8.469 -11.561  0.00  0.00    -0.067 C 
ATOM    101  H35 L9J d   1     -16.933   9.451 -11.067  0.00  0.00     0.028 H 
ATOM    102  H36 L9J d   1     -15.882   8.301 -11.960  0.00  0.00     0.028 H 
ATOM    103  H37 L9J d   1     -17.135   7.682 -10.832  0.00  0.00     0.028 H 
ENDBRANCH  95 100
BRANCH  95 104
ATOM    104  C53 L9J d   1     -19.331   8.565 -12.127  0.00  0.00    -0.067 C 
ATOM    105  H38 L9J d   1     -20.072   8.540 -12.939  0.00  0.00     0.028 H 
ATOM    106  H39 L9J d   1     -19.413   9.518 -11.584  0.00  0.00     0.028 H 
ATOM    107  H40 L9J d   1     -19.518   7.731 -11.434  0.00  0.00     0.028 H 
ENDBRANCH  95 104
ENDBRANCH   7  95
BRANCH  16 108
ATOM    108  O54 L9J d   1      -9.516  17.896 -12.164  0.00  0.00    -0.356 OA
BRANCH 108 109
ATOM    109  C55 L9J d   1      -9.289  17.246 -10.924  0.00  0.00     0.010 C 
ATOM    110  H41 L9J d   1      -8.548  17.814 -10.342  0.00  0.00     0.066 H 
ATOM    111  H42 L9J d   1      -8.911  16.230 -11.107  0.00  0.00     0.066 H 
ATOM    112  H43 L9J d   1     -10.232  17.190 -10.361  0.00  0.00     0.066 H 
ENDBRANCH 108 109
ENDBRANCH  16 108
TORSDOF 15
