REMARK  15 active torsions:
REMARK  status: ('A' for Active; 'I' for Inactive)
REMARK    1  A    between atoms: N_18  and  C13_3 
REMARK    2  A    between atoms: C13_3  and  C4_37 
REMARK    3  A    between atoms: C20_9  and  O6_59 
REMARK    4  A    between atoms: C24_12  and  C21_25 
REMARK       I    between atoms: N2_49  and  C24_12 
REMARK    5  A    between atoms: S_60  and  C25_13 
REMARK    6  A    between atoms: C28_15  and  N3_50 
REMARK    7  A    between atoms: C31_17  and  C32_29 
REMARK    8  A    between atoms: N3_50  and  C31_17 
REMARK    9  A    between atoms: C1_21  and  C_19 
REMARK   10  A    between atoms: C1_21  and  C44_42 
REMARK   11  A    between atoms: C18_23  and  N1_48 
REMARK   12  A    between atoms: C27_26  and  N4_51 
REMARK   13  A    between atoms: O6_59  and  C37_34 
REMARK   14  A    between atoms: C5_43  and  C7_45 
REMARK   15  A    between atoms: N2_49  and  S_60 
ROOT
ATOM      1  C19 LBM d   1     -17.374   3.104 -10.661  0.00  0.00    -0.024 A 
ATOM      2  C20 LBM d   1     -17.768   3.250  -9.353  0.00  0.00     0.094 A 
ATOM      3  C22 LBM d   1     -16.797   5.423  -9.278  0.00  0.00    -0.063 A 
ATOM      4  C23 LBM d   1     -16.412   5.288 -10.599  0.00  0.00    -0.056 A 
ATOM      5  C18 LBM d   1     -16.706   4.120 -11.318  0.00  0.00     0.033 A 
ATOM      6  C21 LBM d   1     -17.503   4.407  -8.620  0.00  0.00     0.067 A 
ATOM      7  H13 LBM d   1     -17.590   2.180 -11.185  0.00  0.00     0.091 H 
ATOM      8  H14 LBM d   1     -16.548   6.331  -8.741  0.00  0.00     0.085 H 
ATOM      9  H15 LBM d   1     -15.876   6.095 -11.085  0.00  0.00     0.086 H 
ENDROOT
BRANCH   5  10
ATOM     10  N1  LBM d   1     -16.299   3.956 -12.630  0.00  0.00    -0.378 N 
ATOM     11  C15 LBM d   1     -15.567   4.997 -13.367  0.00  0.00     0.018 C 
ATOM     12  C14 LBM d   1     -14.826   4.386 -14.562  0.00  0.00     0.098 C 
ATOM     13  H7  LBM d   1     -16.279   5.753 -13.730  0.00  0.00     0.066 H 
ATOM     14  H8  LBM d   1     -14.839   5.473 -12.694  0.00  0.00     0.066 H 
ATOM     15  N   LBM d   1     -15.744   3.650 -15.461  0.00  0.00    -0.064 N 
ATOM     16  H5  LBM d   1     -14.060   3.690 -14.188  0.00  0.00     0.078 H 
ATOM     17  H6  LBM d   1     -14.342   5.193 -15.131  0.00  0.00     0.078 H 
ATOM     18  C17 LBM d   1     -16.415   2.594 -14.667  0.00  0.00     0.098 C 
ATOM     19  H20 LBM d   1     -16.436   4.288 -15.822  0.00  0.00     0.280 HD
ATOM     20  C16 LBM d   1     -17.193   3.210 -13.518  0.00  0.00     0.018 C 
ATOM     21  H11 LBM d   1     -17.107   2.037 -15.316  0.00  0.00     0.078 H 
ATOM     22  H12 LBM d   1     -15.657   1.907 -14.264  0.00  0.00     0.078 H 
ATOM     23  H9  LBM d   1     -17.686   2.410 -12.946  0.00  0.00     0.066 H 
ATOM     24  H10 LBM d   1     -17.954   3.894 -13.922  0.00  0.00     0.066 H 
BRANCH  15  25
ATOM     25  C13 LBM d   1     -15.016   3.049 -16.596  0.00  0.00     0.104 C 
ATOM     26  H3  LBM d   1     -15.736   2.481 -17.203  0.00  0.00     0.083 H 
ATOM     27  H4  LBM d   1     -14.256   2.364 -16.192  0.00  0.00     0.083 H 
BRANCH  25  28
ATOM     28  C4  LBM d   1     -14.324   4.038 -17.495  0.00  0.00    -0.047 C 
ATOM     29  C3  LBM d   1     -15.181   5.084 -18.163  0.00  0.00    -0.042 C 
ATOM     30  C2  LBM d   1     -14.451   5.636 -19.379  0.00  0.00    -0.055 C 
ATOM     31  H26 LBM d   1     -16.132   4.631 -18.480  0.00  0.00     0.039 H 
ATOM     32  H27 LBM d   1     -15.382   5.901 -17.454  0.00  0.00     0.039 H 
ATOM     33  C1  LBM d   1     -13.032   6.096 -19.029  0.00  0.00    -0.043 C 
ATOM     34  H24 LBM d   1     -14.392   4.850 -20.146  0.00  0.00     0.034 H 
ATOM     35  H25 LBM d   1     -15.016   6.493 -19.775  0.00  0.00     0.034 H 
ATOM     36  C6  LBM d   1     -12.220   4.870 -18.604  0.00  0.00    -0.034 C 
ATOM     37  C5  LBM d   1     -12.985   3.894 -17.766  0.00  0.00    -0.043 C 
ATOM     38  H45 LBM d   1     -11.350   5.215 -18.026  0.00  0.00     0.041 H 
ATOM     39  H46 LBM d   1     -11.876   4.352 -19.511  0.00  0.00     0.041 H 
BRANCH  33  40
ATOM     40  C   LBM d   1     -12.377   6.743 -20.249  0.00  0.00    -0.069 C 
ATOM     41  H21 LBM d   1     -12.961   7.624 -20.554  0.00  0.00     0.028 H 
ATOM     42  H22 LBM d   1     -12.347   6.019 -21.076  0.00  0.00     0.028 H 
ATOM     43  H23 LBM d   1     -11.352   7.052 -19.994  0.00  0.00     0.028 H 
ENDBRANCH  33  40
BRANCH  33  44
ATOM     44  C44 LBM d   1     -13.073   7.104 -17.884  0.00  0.00    -0.069 C 
ATOM     45  H42 LBM d   1     -12.049   7.426 -17.642  0.00  0.00     0.028 H 
ATOM     46  H43 LBM d   1     -13.528   6.635 -16.999  0.00  0.00     0.028 H 
ATOM     47  H44 LBM d   1     -13.671   7.977 -18.185  0.00  0.00     0.028 H 
ENDBRANCH  33  44
BRANCH  37  48
ATOM     48  C7  LBM d   1     -12.176   2.749 -17.301  0.00  0.00    -0.029 A 
ATOM     49  C12 LBM d   1     -12.068   1.601 -18.086  0.00  0.00    -0.071 A 
ATOM     50  C11 LBM d   1     -11.257   0.563 -17.688  0.00  0.00    -0.061 A 
ATOM     51  H2  LBM d   1     -12.625   1.526 -19.013  0.00  0.00     0.084 H 
ATOM     52  C10 LBM d   1     -10.578   0.631 -16.479  0.00  0.00     0.034 A 
ATOM     53  H1  LBM d   1     -11.148  -0.311 -18.320  0.00  0.00     0.086 H 
ATOM     54  C9  LBM d   1     -10.710   1.751 -15.672  0.00  0.00    -0.061 A 
ATOM     55 CL   LBM d   1      -9.620  -0.707 -15.950  0.00  0.00    -0.084 Cl
ATOM     56  C8  LBM d   1     -11.499   2.799 -16.084  0.00  0.00    -0.071 A 
ATOM     57  H48 LBM d   1     -10.193   1.800 -14.720  0.00  0.00     0.086 H 
ATOM     58  H47 LBM d   1     -11.596   3.676 -15.454  0.00  0.00     0.084 H 
ENDBRANCH  37  48
ENDBRANCH  25  28
ENDBRANCH  15  25
ENDBRANCH   5  10
BRANCH   2  59
ATOM     59  O6  LBM d   1     -18.411   2.202  -8.721  0.00  0.00    -0.308 OA
BRANCH  59  60
ATOM     60  C37 LBM d   1     -17.698   1.241  -8.034  0.00  0.00     0.094 A 
ATOM     61  C38 LBM d   1     -18.310   0.057  -7.672  0.00  0.00     0.037 A 
ATOM     62  N5  LBM d   1     -17.678  -0.943  -7.043  0.00  0.00    -0.240 NA
ATOM     63  H38 LBM d   1     -19.360  -0.070  -7.910  0.00  0.00     0.119 H 
ATOM     64  C39 LBM d   1     -16.385  -0.706  -6.699  0.00  0.00     0.137 A 
ATOM     65  C40 LBM d   1     -15.690   0.485  -6.997  0.00  0.00     0.014 A 
ATOM     66  N6  LBM d   1     -15.525  -1.583  -6.106  0.00  0.00    -0.350 N 
ATOM     67  C41 LBM d   1     -16.360   1.475  -7.708  0.00  0.00    -0.035 A 
ATOM     68  C42 LBM d   1     -14.325   0.282  -6.522  0.00  0.00    -0.054 A 
ATOM     69  H39 LBM d   1     -15.863   2.393  -7.998  0.00  0.00     0.089 H 
ATOM     70  C43 LBM d   1     -14.280  -0.975  -6.005  0.00  0.00    -0.020 A 
ATOM     71  H40 LBM d   1     -13.504   0.996  -6.572  0.00  0.00     0.087 H 
ATOM     72  H41 LBM d   1     -13.394  -1.439  -5.573  0.00  0.00     0.111 H 
ATOM     73  H51 LBM d   1     -15.759  -2.534  -5.787  0.00  0.00     0.166 HD
ENDBRANCH  59  60
ENDBRANCH   2  59
BRANCH   6  74
ATOM     74  C24 LBM d   1     -17.906   4.594  -7.187  0.00  0.00     0.268 C 
ATOM     75  O   LBM d   1     -18.833   3.961  -6.668  0.00  0.00    -0.267 OA
ATOM     76  N2  LBM d   1     -17.170   5.496  -6.444  0.00  0.00    -0.246 N 
ATOM     77  H49 LBM d   1     -16.547   6.124  -6.911  0.00  0.00     0.182 HD
BRANCH  76  78
ATOM     78  S   LBM d   1     -17.296   5.555  -4.845  0.00  0.00     0.265 S 
ATOM     79  O1  LBM d   1     -18.660   5.865  -4.468  0.00  0.00    -0.200 OA
ATOM     80  O2  LBM d   1     -16.251   6.423  -4.400  0.00  0.00    -0.200 OA
BRANCH  78  81
ATOM     81  C25 LBM d   1     -16.930   3.891  -4.309  0.00  0.00     0.082 A 
ATOM     82  C26 LBM d   1     -15.600   3.560  -4.052  0.00  0.00    -0.026 A 
ATOM     83  C27 LBM d   1     -15.290   2.265  -3.678  0.00  0.00     0.130 A 
ATOM     84  H16 LBM d   1     -14.820   4.307  -4.144  0.00  0.00     0.089 H 
ATOM     85  C28 LBM d   1     -16.272   1.248  -3.534  0.00  0.00     0.061 A 
ATOM     86  C29 LBM d   1     -17.597   1.627  -3.827  0.00  0.00    -0.054 A 
ATOM     87  C30 LBM d   1     -17.925   2.938  -4.187  0.00  0.00    -0.058 A 
ATOM     88  H17 LBM d   1     -18.383   0.883  -3.772  0.00  0.00     0.087 H 
ATOM     89  H28 LBM d   1     -18.959   3.207  -4.370  0.00  0.00     0.086 H 
BRANCH  83  90
ATOM     90  N4  LBM d   1     -13.869   1.997  -3.491  0.00  0.00    -0.113 N 
ATOM     91  O4  LBM d   1     -13.510   0.888  -3.144  0.00  0.00    -0.532 OA
ATOM     92  O5  LBM d   1     -13.085   2.926  -3.666  0.00  0.00    -0.532 OA
ENDBRANCH  83  90
BRANCH  85  93
ATOM     93  N3  LBM d   1     -15.932  -0.024  -3.108  0.00  0.00    -0.388 N 
ATOM     94  H50 LBM d   1     -14.946  -0.201  -2.868  0.00  0.00     0.159 HD
BRANCH  93  95
ATOM     95  C31 LBM d   1     -16.871  -1.130  -2.975  0.00  0.00    -0.004 C 
ATOM     96  H18 LBM d   1     -17.803  -0.763  -2.521  0.00  0.00     0.064 H 
ATOM     97  H19 LBM d   1     -17.086  -1.546  -3.970  0.00  0.00     0.064 H 
BRANCH  95  98
ATOM     98  C32 LBM d   1     -16.274  -2.217  -2.092  0.00  0.00    -0.035 C 
ATOM     99  C33 LBM d   1     -17.056  -3.520  -2.213  0.00  0.00    -0.040 C 
ATOM    100  C34 LBM d   1     -16.414  -4.586  -1.351  0.00  0.00     0.020 C 
ATOM    101  H30 LBM d   1     -17.056  -3.850  -3.262  0.00  0.00     0.036 H 
ATOM    102  H31 LBM d   1     -18.092  -3.357  -1.880  0.00  0.00     0.036 H 
ATOM    103  O3  LBM d   1     -15.061  -4.812  -1.733  0.00  0.00    -0.391 OA
ATOM    104  H32 LBM d   1     -16.979  -5.524  -1.460  0.00  0.00     0.074 H 
ATOM    105  H33 LBM d   1     -16.441  -4.262  -0.300  0.00  0.00     0.074 H 
ATOM    106  C35 LBM d   1     -14.299  -3.618  -1.540  0.00  0.00     0.020 C 
ATOM    107  C36 LBM d   1     -14.820  -2.499  -2.411  0.00  0.00    -0.040 C 
ATOM    108  H34 LBM d   1     -14.367  -3.314  -0.485  0.00  0.00     0.074 H 
ATOM    109  H35 LBM d   1     -13.248  -3.816  -1.798  0.00  0.00     0.074 H 
ATOM    110  H36 LBM d   1     -14.226  -1.591  -2.229  0.00  0.00     0.036 H 
ATOM    111  H37 LBM d   1     -14.730  -2.790  -3.468  0.00  0.00     0.036 H 
ATOM    112  H29 LBM d   1     -16.335  -1.870  -1.050  0.00  0.00     0.042 H 
ENDBRANCH  95  98
ENDBRANCH  93  95
ENDBRANCH  85  93
ENDBRANCH  78  81
ENDBRANCH  76  78
ENDBRANCH   6  74
TORSDOF 15
