REMARK  15 active torsions:
REMARK  status: ('A' for Active; 'I' for Inactive)
REMARK    1  A    between atoms: N_18  and  C13_3 
REMARK    2  A    between atoms: C13_3  and  C4_37 
REMARK    3  A    between atoms: C20_9  and  O6_59 
REMARK    4  A    between atoms: C24_12  and  C21_25 
REMARK       I    between atoms: N2_49  and  C24_12 
REMARK    5  A    between atoms: S_60  and  C25_13 
REMARK    6  A    between atoms: C28_15  and  N3_50 
REMARK    7  A    between atoms: C31_17  and  C32_29 
REMARK    8  A    between atoms: N3_50  and  C31_17 
REMARK    9  A    between atoms: C1_21  and  C_19 
REMARK   10  A    between atoms: C1_21  and  C44_42 
REMARK   11  A    between atoms: C18_23  and  N1_48 
REMARK   12  A    between atoms: C27_26  and  N4_51 
REMARK   13  A    between atoms: O6_59  and  C37_34 
REMARK   14  A    between atoms: C5_43  and  C7_45 
REMARK   15  A    between atoms: N2_49  and  S_60 
ROOT
ATOM      1  C19 LBM d   1     -17.202   3.003 -10.470  0.00  0.00    -0.029 A 
ATOM      2  C20 LBM d   1     -17.637   3.473  -9.244  0.00  0.00     0.093 A 
ATOM      3  C22 LBM d   1     -16.750   5.635  -9.748  0.00  0.00    -0.063 A 
ATOM      4  C23 LBM d   1     -16.311   5.170 -10.972  0.00  0.00    -0.061 A 
ATOM      5  C18 LBM d   1     -16.521   3.849 -11.348  0.00  0.00     0.013 A 
ATOM      6  C21 LBM d   1     -17.409   4.797  -8.854  0.00  0.00     0.067 A 
ATOM      7  H13 LBM d   1     -17.391   1.973 -10.751  0.00  0.00     0.090 H 
ATOM      8  H14 LBM d   1     -16.578   6.671  -9.479  0.00  0.00     0.085 H 
ATOM      9  H15 LBM d   1     -15.796   5.844 -11.648  0.00  0.00     0.086 H 
ENDROOT
BRANCH   5  10
ATOM     10  N1  LBM d   1     -16.038   3.384 -12.557  0.00  0.00    -0.280 NA
ATOM     11  C15 LBM d   1     -15.178   4.347 -13.250  0.00  0.00     0.006 C 
ATOM     12  C14 LBM d   1     -14.522   3.708 -14.451  0.00  0.00     0.095 C 
ATOM     13  H7  LBM d   1     -15.787   5.201 -13.582  0.00  0.00     0.058 H 
ATOM     14  H8  LBM d   1     -14.399   4.699 -12.558  0.00  0.00     0.058 H 
ATOM     15  N   LBM d   1     -15.536   3.192 -15.367  0.00  0.00    -0.065 N 
ATOM     16  H5  LBM d   1     -13.880   2.880 -14.116  0.00  0.00     0.077 H 
ATOM     17  H6  LBM d   1     -13.910   4.459 -14.973  0.00  0.00     0.077 H 
ATOM     18  C17 LBM d   1     -16.307   2.164 -14.667  0.00  0.00     0.095 C 
ATOM     19  H20 LBM d   1     -16.156   3.945 -15.624  0.00  0.00     0.280 HD
ATOM     20  C16 LBM d   1     -17.008   2.756 -13.458  0.00  0.00     0.006 C 
ATOM     21  H11 LBM d   1     -17.059   1.746 -15.353  0.00  0.00     0.077 H 
ATOM     22  H12 LBM d   1     -15.628   1.365 -14.336  0.00  0.00     0.077 H 
ATOM     23  H9  LBM d   1     -17.537   1.956 -12.919  0.00  0.00     0.058 H 
ATOM     24  H10 LBM d   1     -17.732   3.513 -13.794  0.00  0.00     0.058 H 
BRANCH  15  25
ATOM     25  C13 LBM d   1     -14.929   2.663 -16.587  0.00  0.00     0.104 C 
ATOM     26  H3  LBM d   1     -15.695   2.179 -17.211  0.00  0.00     0.083 H 
ATOM     27  H4  LBM d   1     -14.147   1.932 -16.334  0.00  0.00     0.083 H 
BRANCH  25  28
ATOM     28  C4  LBM d   1     -14.327   3.829 -17.320  0.00  0.00    -0.047 C 
ATOM     29  C3  LBM d   1     -15.211   4.996 -17.667  0.00  0.00    -0.042 C 
ATOM     30  C2  LBM d   1     -14.540   6.119 -18.462  0.00  0.00    -0.055 C 
ATOM     31  H26 LBM d   1     -16.054   4.617 -18.263  0.00  0.00     0.039 H 
ATOM     32  H27 LBM d   1     -15.589   5.425 -16.728  0.00  0.00     0.039 H 
ATOM     33  C1  LBM d   1     -13.373   5.648 -19.340  0.00  0.00    -0.043 C 
ATOM     34  H24 LBM d   1     -15.297   6.583 -19.111  0.00  0.00     0.034 H 
ATOM     35  H25 LBM d   1     -14.159   6.867 -17.751  0.00  0.00     0.034 H 
ATOM     36  C6  LBM d   1     -12.386   4.890 -18.450  0.00  0.00    -0.034 C 
ATOM     37  C5  LBM d   1     -13.024   3.783 -17.671  0.00  0.00    -0.043 C 
ATOM     38  H45 LBM d   1     -11.936   5.601 -17.742  0.00  0.00     0.041 H 
ATOM     39  H46 LBM d   1     -11.599   4.460 -19.087  0.00  0.00     0.041 H 
BRANCH  33  40
ATOM     40  C   LBM d   1     -13.885   4.728 -20.449  0.00  0.00    -0.069 C 
ATOM     41  H21 LBM d   1     -14.594   5.279 -21.085  0.00  0.00     0.028 H 
ATOM     42  H22 LBM d   1     -14.392   3.861 -20.001  0.00  0.00     0.028 H 
ATOM     43  H23 LBM d   1     -13.037   4.382 -21.059  0.00  0.00     0.028 H 
ENDBRANCH  33  40
BRANCH  33  44
ATOM     44  C44 LBM d   1     -12.675   6.852 -19.972  0.00  0.00    -0.069 C 
ATOM     45  H42 LBM d   1     -11.841   6.505 -20.599  0.00  0.00     0.028 H 
ATOM     46  H43 LBM d   1     -12.289   7.510 -19.179  0.00  0.00     0.028 H 
ATOM     47  H44 LBM d   1     -13.393   7.408 -20.593  0.00  0.00     0.028 H 
ENDBRANCH  33  44
BRANCH  37  48
ATOM     48  C7  LBM d   1     -12.130   2.649 -17.329  0.00  0.00    -0.029 A 
ATOM     49  C12 LBM d   1     -11.971   1.591 -18.212  0.00  0.00    -0.071 A 
ATOM     50  C11 LBM d   1     -11.099   0.563 -17.907  0.00  0.00    -0.061 A 
ATOM     51  H2  LBM d   1     -12.530   1.571 -19.140  0.00  0.00     0.084 H 
ATOM     52  C10 LBM d   1     -10.386   0.585 -16.725  0.00  0.00     0.034 A 
ATOM     53  H1  LBM d   1     -10.975  -0.263 -18.598  0.00  0.00     0.086 H 
ATOM     54  C9  LBM d   1     -10.554   1.628 -15.838  0.00  0.00    -0.061 A 
ATOM     55 CL   LBM d   1      -9.257  -0.691 -16.367  0.00  0.00    -0.084 Cl
ATOM     56  C8  LBM d   1     -11.423   2.661 -16.135  0.00  0.00    -0.071 A 
ATOM     57  H48 LBM d   1     -10.003   1.637 -14.905  0.00  0.00     0.086 H 
ATOM     58  H47 LBM d   1     -11.552   3.479 -15.436  0.00  0.00     0.084 H 
ENDBRANCH  37  48
ENDBRANCH  25  28
ENDBRANCH  15  25
ENDBRANCH   5  10
BRANCH   2  59
ATOM     59  O6  LBM d   1     -18.320   2.621  -8.377  0.00  0.00    -0.308 OA
BRANCH  59  60
ATOM     60  C37 LBM d   1     -17.665   1.503  -7.852  0.00  0.00     0.094 A 
ATOM     61  C38 LBM d   1     -18.322   0.286  -7.748  0.00  0.00     0.037 A 
ATOM     62  N5  LBM d   1     -17.755  -0.813  -7.230  0.00  0.00    -0.240 NA
ATOM     63  H38 LBM d   1     -19.344   0.220  -8.103  0.00  0.00     0.119 H 
ATOM     64  C39 LBM d   1     -16.487  -0.700  -6.797  0.00  0.00     0.137 A 
ATOM     65  C40 LBM d   1     -15.725   0.499  -6.864  0.00  0.00     0.014 A 
ATOM     66  N6  LBM d   1     -15.712  -1.664  -6.223  0.00  0.00    -0.350 N 
ATOM     67  C41 LBM d   1     -16.354   1.617  -7.412  0.00  0.00    -0.035 A 
ATOM     68  C42 LBM d   1     -14.450   0.190  -6.295  0.00  0.00    -0.054 A 
ATOM     69  H39 LBM d   1     -15.827   2.561  -7.493  0.00  0.00     0.089 H 
ATOM     70  C43 LBM d   1     -14.484  -1.116  -5.924  0.00  0.00    -0.020 A 
ATOM     71  H40 LBM d   1     -13.610   0.873  -6.181  0.00  0.00     0.087 H 
ATOM     72  H41 LBM d   1     -13.659  -1.653  -5.457  0.00  0.00     0.111 H 
ATOM     73  H51 LBM d   1     -15.997  -2.637  -6.043  0.00  0.00     0.166 HD
ENDBRANCH  59  60
ENDBRANCH   2  59
BRANCH   6  74
ATOM     74  C24 LBM d   1     -17.731   5.387  -7.519  0.00  0.00     0.268 C 
ATOM     75  O   LBM d   1     -18.596   6.243  -7.365  0.00  0.00    -0.267 OA
ATOM     76  N2  LBM d   1     -16.973   4.928  -6.458  0.00  0.00    -0.246 N 
ATOM     77  H49 LBM d   1     -16.167   4.374  -6.667  0.00  0.00     0.182 HD
BRANCH  76  78
ATOM     78  S   LBM d   1     -17.305   5.229  -4.883  0.00  0.00     0.265 S 
ATOM     79  O1  LBM d   1     -18.711   5.462  -4.749  0.00  0.00    -0.200 OA
ATOM     80  O2  LBM d   1     -16.377   6.228  -4.446  0.00  0.00    -0.200 OA
BRANCH  78  81
ATOM     81  C25 LBM d   1     -16.916   3.720  -4.074  0.00  0.00     0.082 A 
ATOM     82  C26 LBM d   1     -15.585   3.422  -3.838  0.00  0.00    -0.026 A 
ATOM     83  C27 LBM d   1     -15.243   2.136  -3.487  0.00  0.00     0.130 A 
ATOM     84  H16 LBM d   1     -14.824   4.189  -3.928  0.00  0.00     0.089 H 
ATOM     85  C28 LBM d   1     -16.219   1.116  -3.327  0.00  0.00     0.061 A 
ATOM     86  C29 LBM d   1     -17.549   1.487  -3.516  0.00  0.00    -0.054 A 
ATOM     87  C30 LBM d   1     -17.904   2.772  -3.881  0.00  0.00    -0.058 A 
ATOM     88  H17 LBM d   1     -18.328   0.747  -3.373  0.00  0.00     0.087 H 
ATOM     89  H28 LBM d   1     -18.947   3.034  -4.015  0.00  0.00     0.086 H 
BRANCH  83  90
ATOM     90  N4  LBM d   1     -13.813   1.875  -3.342  0.00  0.00    -0.113 N 
ATOM     91  O4  LBM d   1     -13.458   0.775  -2.948  0.00  0.00    -0.532 OA
ATOM     92  O5  LBM d   1     -13.031   2.769  -3.633  0.00  0.00    -0.532 OA
ENDBRANCH  83  90
BRANCH  85  93
ATOM     93  N3  LBM d   1     -15.895  -0.174  -3.035  0.00  0.00    -0.388 N 
ATOM     94  H50 LBM d   1     -14.905  -0.432  -2.911  0.00  0.00     0.159 HD
BRANCH  93  95
ATOM     95  C31 LBM d   1     -16.921  -1.193  -2.896  0.00  0.00    -0.004 C 
ATOM     96  H18 LBM d   1     -17.832  -0.740  -2.478  0.00  0.00     0.064 H 
ATOM     97  H19 LBM d   1     -17.145  -1.624  -3.883  0.00  0.00     0.064 H 
BRANCH  95  98
ATOM     98  C32 LBM d   1     -16.430  -2.286  -1.969  0.00  0.00    -0.035 C 
ATOM     99  C33 LBM d   1     -17.315  -3.520  -2.084  0.00  0.00    -0.040 C 
ATOM    100  C34 LBM d   1     -16.742  -4.639  -1.252  0.00  0.00     0.020 C 
ATOM    101  H30 LBM d   1     -17.366  -3.836  -3.136  0.00  0.00     0.036 H 
ATOM    102  H31 LBM d   1     -18.326  -3.279  -1.725  0.00  0.00     0.036 H 
ATOM    103  O3  LBM d   1     -15.416  -4.957  -1.660  0.00  0.00    -0.391 OA
ATOM    104  H32 LBM d   1     -17.376  -5.531  -1.365  0.00  0.00     0.074 H 
ATOM    105  H33 LBM d   1     -16.728  -4.330  -0.196  0.00  0.00     0.074 H 
ATOM    106  C35 LBM d   1     -14.562  -3.835  -1.465  0.00  0.00     0.020 C 
ATOM    107  C36 LBM d   1     -14.996  -2.667  -2.311  0.00  0.00    -0.040 C 
ATOM    108  H34 LBM d   1     -14.592  -3.541  -0.405  0.00  0.00     0.074 H 
ATOM    109  H35 LBM d   1     -13.534  -4.114  -1.739  0.00  0.00     0.074 H 
ATOM    110  H36 LBM d   1     -14.334  -1.810  -2.117  0.00  0.00     0.036 H 
ATOM    111  H37 LBM d   1     -14.935  -2.944  -3.374  0.00  0.00     0.036 H 
ATOM    112  H29 LBM d   1     -16.465  -1.915  -0.934  0.00  0.00     0.042 H 
ENDBRANCH  95  98
ENDBRANCH  93  95
ENDBRANCH  85  93
ENDBRANCH  78  81
ENDBRANCH  76  78
ENDBRANCH   6  74
TORSDOF 15
