REMARK  8 active torsions:
REMARK  status: ('A' for Active; 'I' for Inactive)
REMARK    1  A    between atoms: C7_7  and  C13_13 
REMARK    2  A    between atoms: C9_9  and  C10_10 
REMARK       I    between atoms: C10_10  and  N12_12 
REMARK    3  A    between atoms: N12_12  and  C41_41 
REMARK    4  A    between atoms: N12_12  and  C42_42 
REMARK    5  A    between atoms: C15_15  and  C21_21 
REMARK       I    between atoms: C21_21  and  N22_22 
REMARK    6  A    between atoms: C24_24  and  C33_33 
REMARK    7  A    between atoms: C33_33  and  N35_35 
REMARK    8  A    between atoms: C45_45  and  O53_53 
ROOT
ATOM      1  C13 F3Q d   1       6.497  -3.671   0.138  0.00  0.00     0.009 A 
ATOM      2  C14 F3Q d   1       7.294  -2.630  -0.350  0.00  0.00    -0.035 A 
ATOM      3  C15 F3Q d   1       5.135  -3.446   0.424  0.00  0.00     0.047 A 
ATOM      4  C16 F3Q d   1       5.390  -1.173  -0.245  0.00  0.00     0.106 A 
ATOM      5  C17 F3Q d   1       6.713  -1.395  -0.531  0.00  0.00     0.105 A 
ATOM      6  O18 F3Q d   1       7.297  -0.238  -0.994  0.00  0.00    -0.323 OA
ATOM      7  C19 F3Q d   1       6.263   0.748  -0.981  0.00  0.00     0.115 A 
ATOM      8  O20 F3Q d   1       5.062   0.138  -0.505  0.00  0.00    -0.323 OA
ATOM      9  C34 F3Q d   1       4.577  -2.177   0.233  0.00  0.00    -0.032 A 
ATOM     10  H10 F3Q d   1       8.341  -2.791  -0.580  0.00  0.00     0.089 H 
ATOM     11  H11 F3Q d   1       6.105   1.134  -1.999  0.00  0.00     0.118 H 
ATOM     12  H12 F3Q d   1       6.548   1.576  -0.315  0.00  0.00     0.118 H 
ATOM     13  H24 F3Q d   1       3.533  -1.989   0.455  0.00  0.00     0.089 H 
ENDROOT
BRANCH   1  14
ATOM     14  C7  F3Q d   1       7.104  -5.000   0.356  0.00  0.00     0.047 A 
ATOM     15  N6  F3Q d   1       7.521  -5.824  -0.683  0.00  0.00    -0.349 N 
ATOM     16  C3  F3Q d   1       7.439  -5.521  -2.123  0.00  0.00     0.000 C 
ATOM     17  C5  F3Q d   1       8.030  -7.001  -0.161  0.00  0.00     0.028 A 
ATOM     18  C4  F3Q d   1       7.598  -6.781  -2.940  0.00  0.00    -0.049 C 
ATOM     19  H5  F3Q d   1       6.461  -5.069  -2.342  0.00  0.00     0.064 H 
ATOM     20  H6  F3Q d   1       8.238  -4.814  -2.390  0.00  0.00     0.064 H 
ATOM     21  C2  F3Q d   1       8.780  -7.598  -2.457  0.00  0.00    -0.059 C 
ATOM     22  H7  F3Q d   1       6.683  -7.385  -2.851  0.00  0.00     0.035 H 
ATOM     23  H8  F3Q d   1       7.756  -6.508  -3.994  0.00  0.00     0.035 H 
ATOM     24  C1  F3Q d   1       8.571  -8.089  -1.033  0.00  0.00    -0.025 C 
ATOM     25  H3  F3Q d   1       8.909  -8.466  -3.120  0.00  0.00     0.033 H 
ATOM     26  H4  F3Q d   1       9.685  -6.973  -2.491  0.00  0.00     0.033 H 
ATOM     27  H1  F3Q d   1       9.534  -8.430  -0.626  0.00  0.00     0.042 H 
ATOM     28  H2  F3Q d   1       7.860  -8.928  -1.043  0.00  0.00     0.042 H 
ATOM     29  C9  F3Q d   1       7.930  -6.933   1.222  0.00  0.00     0.057 A 
ATOM     30  C8  F3Q d   1       7.350  -5.666   1.533  0.00  0.00    -0.039 A 
ATOM     31  H9  F3Q d   1       7.138  -5.291   2.533  0.00  0.00     0.088 H 
BRANCH  29  32
ATOM     32  C10 F3Q d   1       8.338  -8.042   2.143  0.00  0.00     0.265 C 
ATOM     33  O11 F3Q d   1       8.061  -9.199   1.852  0.00  0.00    -0.267 OA
ATOM     34  N12 F3Q d   1       9.036  -7.781   3.348  0.00  0.00    -0.279 N 
BRANCH  34  35
ATOM     35  C41 F3Q d   1       9.527  -6.470   3.685  0.00  0.00     0.043 A 
ATOM     36  C43 F3Q d   1       9.025  -5.802   4.793  0.00  0.00    -0.054 A 
ATOM     37  C44 F3Q d   1       9.491  -4.541   5.117  0.00  0.00    -0.049 A 
ATOM     38  H34 F3Q d   1       8.264  -6.271   5.407  0.00  0.00     0.087 H 
ATOM     39  C45 F3Q d   1      10.463  -3.936   4.329  0.00  0.00     0.065 A 
ATOM     40  H35 F3Q d   1       9.098  -4.024   5.985  0.00  0.00     0.087 H 
ATOM     41  C46 F3Q d   1      10.970  -4.604   3.223  0.00  0.00    -0.049 A 
ATOM     42  C47 F3Q d   1      10.504  -5.867   2.904  0.00  0.00    -0.054 A 
ATOM     43  H36 F3Q d   1      11.731  -4.136   2.609  0.00  0.00     0.087 H 
ATOM     44  H37 F3Q d   1      10.903  -6.388   2.041  0.00  0.00     0.087 H 
BRANCH  39  45
ATOM     45  O53 F3Q d   1      10.906  -2.679   4.634  0.00  0.00    -0.361 OA
ATOM     46  H43 F3Q d   1      11.843  -2.704   4.791  0.00  0.00     0.217 HD
ENDBRANCH  39  45
ENDBRANCH  34  35
BRANCH  34  47
ATOM     47  C42 F3Q d   1       9.280  -8.839   4.294  0.00  0.00     0.043 A 
ATOM     48  C48 F3Q d   1      10.584  -9.200   4.611  0.00  0.00    -0.057 A 
ATOM     49  C49 F3Q d   1      10.811 -10.226   5.514  0.00  0.00    -0.081 A 
ATOM     50  H38 F3Q d   1      11.419  -8.682   4.154  0.00  0.00     0.086 H 
ATOM     51  C50 F3Q d   1       9.750 -10.891   6.097  0.00  0.00    -0.083 A 
ATOM     52  H39 F3Q d   1      11.827 -10.508   5.764  0.00  0.00     0.083 H 
ATOM     53  C51 F3Q d   1       8.455 -10.531   5.782  0.00  0.00    -0.081 A 
ATOM     54  H40 F3Q d   1       9.934 -11.694   6.801  0.00  0.00     0.083 H 
ATOM     55  C52 F3Q d   1       8.212  -9.505   4.884  0.00  0.00    -0.057 A 
ATOM     56  H41 F3Q d   1       7.624 -11.054   6.240  0.00  0.00     0.083 H 
ATOM     57  H42 F3Q d   1       7.194  -9.223   4.642  0.00  0.00     0.086 H 
ENDBRANCH  34  47
ENDBRANCH  29  32
ENDBRANCH   1  14
BRANCH   3  58
ATOM     58  C21 F3Q d   1       4.242  -4.560   0.890  0.00  0.00     0.255 C 
ATOM     59  N22 F3Q d   1       4.044  -4.719   2.214  0.00  0.00    -0.337 N 
ATOM     60  C24 F3Q d   1       3.172  -5.787   2.715  0.00  0.00     0.042 C 
ATOM     61  C26 F3Q d   1       4.666  -3.869   3.234  0.00  0.00     0.023 C 
ATOM     62  C25 F3Q d   1       3.968  -6.721   3.617  0.00  0.00    -0.020 C 
ATOM     63  H13 F3Q d   1       2.837  -6.377   1.849  0.00  0.00     0.075 H 
ATOM     64  C28 F3Q d   1       4.700  -5.959   4.692  0.00  0.00    -0.048 A 
ATOM     65  H14 F3Q d   1       4.700  -7.270   3.006  0.00  0.00     0.043 H 
ATOM     66  H15 F3Q d   1       3.278  -7.434   4.091  0.00  0.00     0.043 H 
ATOM     67  C27 F3Q d   1       5.017  -4.604   4.509  0.00  0.00    -0.034 A 
ATOM     68  C29 F3Q d   1       5.058  -6.584   5.884  0.00  0.00    -0.076 A 
ATOM     69  C32 F3Q d   1       5.675  -3.919   5.528  0.00  0.00    -0.075 A 
ATOM     70  C31 F3Q d   1       6.019  -4.558   6.706  0.00  0.00    -0.082 A 
ATOM     71  H21 F3Q d   1       5.921  -2.872   5.396  0.00  0.00     0.084 H 
ATOM     72  C30 F3Q d   1       5.713  -5.886   6.883  0.00  0.00    -0.082 A 
ATOM     73  H20 F3Q d   1       6.530  -4.011   7.490  0.00  0.00     0.083 H 
ATOM     74  H19 F3Q d   1       5.985  -6.387   7.805  0.00  0.00     0.083 H 
ATOM     75  H18 F3Q d   1       4.820  -7.631   6.031  0.00  0.00     0.084 H 
ATOM     76  H16 F3Q d   1       3.967  -3.057   3.483  0.00  0.00     0.071 H 
ATOM     77  H17 F3Q d   1       5.589  -3.442   2.814  0.00  0.00     0.071 H 
ATOM     78  O23 F3Q d   1       3.728  -5.304   0.075  0.00  0.00    -0.267 OA
BRANCH  60  79
ATOM     79  C33 F3Q d   1       1.913  -5.218   3.380  0.00  0.00     0.102 C 
ATOM     80  H22 F3Q d   1       1.954  -4.121   3.308  0.00  0.00     0.079 H 
ATOM     81  H23 F3Q d   1       1.920  -5.516   4.439  0.00  0.00     0.079 H 
BRANCH  79  82
ATOM     82  N35 F3Q d   1       0.647  -5.669   2.786  0.00  0.00    -0.065 N 
ATOM     83  C36 F3Q d   1       0.825  -6.771   1.830  0.00  0.00     0.103 C 
ATOM     84  C37 F3Q d   1      -0.279  -6.756   0.801  0.00  0.00     0.042 C 
ATOM     85  H26 F3Q d   1       0.803  -7.728   2.372  0.00  0.00     0.079 H 
ATOM     86  H27 F3Q d   1       1.795  -6.659   1.323  0.00  0.00     0.079 H 
ATOM     87  O38 F3Q d   1      -0.196  -5.609  -0.048  0.00  0.00    -0.388 OA
ATOM     88  H28 F3Q d   1      -1.249  -6.746   1.319  0.00  0.00     0.076 H 
ATOM     89  H29 F3Q d   1      -0.203  -7.663   0.183  0.00  0.00     0.076 H 
ATOM     90  C39 F3Q d   1       0.303  -4.485   0.677  0.00  0.00     0.042 C 
ATOM     91  C40 F3Q d   1      -0.058  -4.555   2.139  0.00  0.00     0.103 C 
ATOM     92  H30 F3Q d   1      -0.125  -3.567   0.248  0.00  0.00     0.076 H 
ATOM     93  H31 F3Q d   1       1.399  -4.458   0.582  0.00  0.00     0.076 H 
ATOM     94  H32 F3Q d   1       0.227  -3.612   2.628  0.00  0.00     0.079 H 
ATOM     95  H33 F3Q d   1      -1.143  -4.706   2.238  0.00  0.00     0.079 H 
ATOM     96  H25 F3Q d   1       0.067  -6.009   3.537  0.00  0.00     0.280 HD
ENDBRANCH  79  82
ENDBRANCH  60  79
ENDBRANCH   3  58
TORSDOF 8
