REMARK  15 active torsions:
REMARK  status: ('A' for Active; 'I' for Inactive)
REMARK    1  A    between atoms: N_18  and  C13_3 
REMARK    2  A    between atoms: C13_3  and  C4_37 
REMARK    3  A    between atoms: C20_9  and  O6_59 
REMARK    4  A    between atoms: C24_12  and  C21_25 
REMARK       I    between atoms: N2_49  and  C24_12 
REMARK    5  A    between atoms: S_60  and  C25_13 
REMARK    6  A    between atoms: C28_15  and  N3_50 
REMARK    7  A    between atoms: C31_17  and  C32_29 
REMARK    8  A    between atoms: N3_50  and  C31_17 
REMARK    9  A    between atoms: C1_21  and  C_19 
REMARK   10  A    between atoms: C1_21  and  C44_42 
REMARK   11  A    between atoms: C18_23  and  N1_48 
REMARK   12  A    between atoms: C27_26  and  N4_51 
REMARK   13  A    between atoms: O6_59  and  C37_34 
REMARK   14  A    between atoms: C5_43  and  C7_45 
REMARK   15  A    between atoms: N2_49  and  S_60 
ROOT
ATOM      1  C19 LBM d   1     -17.731   3.088 -10.527  0.00  0.00    -0.024 A 
ATOM      2  C20 LBM d   1     -18.142   3.279  -9.225  0.00  0.00     0.094 A 
ATOM      3  C22 LBM d   1     -17.198   5.468  -9.228  0.00  0.00    -0.063 A 
ATOM      4  C23 LBM d   1     -16.776   5.282 -10.535  0.00  0.00    -0.056 A 
ATOM      5  C18 LBM d   1     -17.034   4.087 -11.204  0.00  0.00     0.033 A 
ATOM      6  C21 LBM d   1     -17.889   4.468  -8.544  0.00  0.00     0.067 A 
ATOM      7  H13 LBM d   1     -17.952   2.153 -11.028  0.00  0.00     0.091 H 
ATOM      8  H14 LBM d   1     -16.987   6.407  -8.729  0.00  0.00     0.085 H 
ATOM      9  H15 LBM d   1     -16.239   6.075 -11.043  0.00  0.00     0.086 H 
ENDROOT
BRANCH   5  10
ATOM     10  N1  LBM d   1     -16.596   3.883 -12.509  0.00  0.00    -0.378 N 
ATOM     11  C15 LBM d   1     -15.858   4.926 -13.224  0.00  0.00     0.018 C 
ATOM     12  C14 LBM d   1     -15.098   4.325 -14.396  0.00  0.00     0.098 C 
ATOM     13  H7  LBM d   1     -16.566   5.680 -13.599  0.00  0.00     0.066 H 
ATOM     14  H8  LBM d   1     -15.145   5.403 -12.535  0.00  0.00     0.066 H 
ATOM     15  N   LBM d   1     -16.015   3.626 -15.308  0.00  0.00    -0.064 N 
ATOM     16  H5  LBM d   1     -14.354   3.610 -14.015  0.00  0.00     0.078 H 
ATOM     17  H6  LBM d   1     -14.587   5.129 -14.945  0.00  0.00     0.078 H 
ATOM     18  C17 LBM d   1     -16.707   2.567 -14.564  0.00  0.00     0.098 C 
ATOM     19  H20 LBM d   1     -16.697   4.285 -15.649  0.00  0.00     0.280 HD
ATOM     20  C16 LBM d   1     -17.490   3.149 -13.407  0.00  0.00     0.018 C 
ATOM     21  H11 LBM d   1     -17.398   2.043 -15.241  0.00  0.00     0.078 H 
ATOM     22  H12 LBM d   1     -15.964   1.855 -14.175  0.00  0.00     0.078 H 
ATOM     23  H9  LBM d   1     -17.975   2.334 -12.850  0.00  0.00     0.066 H 
ATOM     24  H10 LBM d   1     -18.257   3.835 -13.796  0.00  0.00     0.066 H 
BRANCH  15  25
ATOM     25  C13 LBM d   1     -15.300   3.065 -16.455  0.00  0.00     0.104 C 
ATOM     26  H3  LBM d   1     -16.012   2.510 -17.084  0.00  0.00     0.083 H 
ATOM     27  H4  LBM d   1     -14.521   2.380 -16.090  0.00  0.00     0.083 H 
BRANCH  25  28
ATOM     28  C4  LBM d   1     -14.656   4.142 -17.281  0.00  0.00    -0.047 C 
ATOM     29  C3  LBM d   1     -15.495   5.296 -17.758  0.00  0.00    -0.042 C 
ATOM     30  C2  LBM d   1     -14.881   5.860 -19.037  0.00  0.00    -0.055 C 
ATOM     31  H26 LBM d   1     -16.518   4.949 -17.962  0.00  0.00     0.039 H 
ATOM     32  H27 LBM d   1     -15.521   6.078 -16.985  0.00  0.00     0.039 H 
ATOM     33  C1  LBM d   1     -13.408   6.251 -18.881  0.00  0.00    -0.043 C 
ATOM     34  H24 LBM d   1     -14.958   5.098 -19.827  0.00  0.00     0.034 H 
ATOM     35  H25 LBM d   1     -15.450   6.754 -19.333  0.00  0.00     0.034 H 
ATOM     36  C6  LBM d   1     -12.622   5.005 -18.462  0.00  0.00    -0.034 C 
ATOM     37  C5  LBM d   1     -13.352   4.013 -17.614  0.00  0.00    -0.043 C 
ATOM     38  H45 LBM d   1     -11.738   5.340 -17.899  0.00  0.00     0.041 H 
ATOM     39  H46 LBM d   1     -12.299   4.489 -19.378  0.00  0.00     0.041 H 
BRANCH  33  40
ATOM     40  C   LBM d   1     -12.864   6.781 -20.208  0.00  0.00    -0.069 C 
ATOM     41  H21 LBM d   1     -13.431   7.676 -20.506  0.00  0.00     0.028 H 
ATOM     42  H22 LBM d   1     -12.968   6.007 -20.982  0.00  0.00     0.028 H 
ATOM     43  H23 LBM d   1     -11.802   7.042 -20.091  0.00  0.00     0.028 H 
ENDBRANCH  33  40
BRANCH  33  44
ATOM     44  C44 LBM d   1     -13.266   7.335 -17.813  0.00  0.00    -0.069 C 
ATOM     45  H42 LBM d   1     -12.206   7.609 -17.708  0.00  0.00     0.028 H 
ATOM     46  H43 LBM d   1     -13.643   6.955 -16.852  0.00  0.00     0.028 H 
ATOM     47  H44 LBM d   1     -13.846   8.221 -18.110  0.00  0.00     0.028 H 
ENDBRANCH  33  44
BRANCH  37  48
ATOM     48  C7  LBM d   1     -12.549   2.834 -17.195  0.00  0.00    -0.029 A 
ATOM     49  C12 LBM d   1     -12.524   1.691 -17.980  0.00  0.00    -0.071 A 
ATOM     50  C11 LBM d   1     -11.760   0.605 -17.592  0.00  0.00    -0.061 A 
ATOM     51  H2  LBM d   1     -13.102   1.649 -18.896  0.00  0.00     0.084 H 
ATOM     52  C10 LBM d   1     -11.021   0.656 -16.427  0.00  0.00     0.034 A 
ATOM     53  H1  LBM d   1     -11.742  -0.289 -18.205  0.00  0.00     0.086 H 
ATOM     54  C9  LBM d   1     -11.047   1.792 -15.643  0.00  0.00    -0.061 A 
ATOM     55 CL   LBM d   1     -10.054  -0.711 -15.949  0.00  0.00    -0.084 Cl
ATOM     56  C8  LBM d   1     -11.808   2.882 -16.022  0.00  0.00    -0.071 A 
ATOM     57  H48 LBM d   1     -10.469   1.829 -14.727  0.00  0.00     0.086 H 
ATOM     58  H47 LBM d   1     -11.826   3.773 -15.404  0.00  0.00     0.084 H 
ENDBRANCH  37  48
ENDBRANCH  25  28
ENDBRANCH  15  25
ENDBRANCH   5  10
BRANCH   2  59
ATOM     59  O6  LBM d   1     -18.823   2.274  -8.549  0.00  0.00    -0.308 OA
BRANCH  59  60
ATOM     60  C37 LBM d   1     -18.094   1.317  -7.843  0.00  0.00     0.094 A 
ATOM     61  C38 LBM d   1     -18.712   0.146  -7.434  0.00  0.00     0.037 A 
ATOM     62  N5  LBM d   1     -18.071  -0.830  -6.777  0.00  0.00    -0.240 NA
ATOM     63  H38 LBM d   1     -19.765   0.013  -7.656  0.00  0.00     0.119 H 
ATOM     64  C39 LBM d   1     -16.768  -0.635  -6.514  0.00  0.00     0.137 A 
ATOM     65  C40 LBM d   1     -16.046   0.533  -6.879  0.00  0.00     0.014 A 
ATOM     66  N6  LBM d   1     -15.907  -1.486  -5.885  0.00  0.00    -0.350 N 
ATOM     67  C41 LBM d   1     -16.752   1.524  -7.564  0.00  0.00    -0.035 A 
ATOM     68  C42 LBM d   1     -14.704   0.329  -6.430  0.00  0.00    -0.054 A 
ATOM     69  H39 LBM d   1     -16.259   2.439  -7.872  0.00  0.00     0.089 H 
ATOM     70  C43 LBM d   1     -14.664  -0.896  -5.841  0.00  0.00    -0.020 A 
ATOM     71  H40 LBM d   1     -13.872   1.023  -6.539  0.00  0.00     0.087 H 
ATOM     72  H41 LBM d   1     -13.776  -1.346  -5.398  0.00  0.00     0.111 H 
ATOM     73  H51 LBM d   1     -16.147  -2.414  -5.507  0.00  0.00     0.166 HD
ENDBRANCH  59  60
ENDBRANCH   2  59
BRANCH   6  74
ATOM     74  C24 LBM d   1     -18.312   4.712  -7.130  0.00  0.00     0.268 C 
ATOM     75  O   LBM d   1     -19.330   4.208  -6.665  0.00  0.00    -0.267 OA
ATOM     76  N2  LBM d   1     -17.464   5.463  -6.336  0.00  0.00    -0.246 N 
ATOM     77  H49 LBM d   1     -16.740   5.994  -6.777  0.00  0.00     0.182 HD
BRANCH  76  78
ATOM     78  S   LBM d   1     -17.594   5.521  -4.702  0.00  0.00     0.265 S 
ATOM     79  O1  LBM d   1     -18.968   5.781  -4.394  0.00  0.00    -0.200 OA
ATOM     80  O2  LBM d   1     -16.583   6.420  -4.236  0.00  0.00    -0.200 OA
BRANCH  78  81
ATOM     81  C25 LBM d   1     -17.198   3.900  -4.137  0.00  0.00     0.082 A 
ATOM     82  C26 LBM d   1     -15.875   3.589  -3.871  0.00  0.00    -0.026 A 
ATOM     83  C27 LBM d   1     -15.555   2.310  -3.475  0.00  0.00     0.130 A 
ATOM     84  H16 LBM d   1     -15.102   4.342  -3.973  0.00  0.00     0.089 H 
ATOM     85  C28 LBM d   1     -16.544   1.299  -3.321  0.00  0.00     0.061 A 
ATOM     86  C29 LBM d   1     -17.861   1.668  -3.597  0.00  0.00    -0.054 A 
ATOM     87  C30 LBM d   1     -18.194   2.949  -3.998  0.00  0.00    -0.058 A 
ATOM     88  H17 LBM d   1     -18.647   0.928  -3.494  0.00  0.00     0.087 H 
ATOM     89  H28 LBM d   1     -19.227   3.206  -4.202  0.00  0.00     0.086 H 
BRANCH  83  90
ATOM     90  N4  LBM d   1     -14.137   2.054  -3.238  0.00  0.00    -0.113 N 
ATOM     91  O4  LBM d   1     -13.804   0.948  -2.842  0.00  0.00    -0.532 OA
ATOM     92  O5  LBM d   1     -13.344   2.961  -3.447  0.00  0.00    -0.532 OA
ENDBRANCH  83  90
BRANCH  85  93
ATOM     93  N3  LBM d   1     -16.239   0.024  -2.919  0.00  0.00    -0.388 N 
ATOM     94  H50 LBM d   1     -15.252  -0.197  -2.724  0.00  0.00     0.159 HD
BRANCH  93  95
ATOM     95  C31 LBM d   1     -17.219  -1.036  -2.751  0.00  0.00    -0.004 C 
ATOM     96  H18 LBM d   1     -18.145  -0.618  -2.330  0.00  0.00     0.064 H 
ATOM     97  H19 LBM d   1     -17.434  -1.497  -3.726  0.00  0.00     0.064 H 
BRANCH  95  98
ATOM     98  C32 LBM d   1     -16.657  -2.083  -1.806  0.00  0.00    -0.035 C 
ATOM     99  C33 LBM d   1     -17.633  -3.232  -1.588  0.00  0.00    -0.040 C 
ATOM    100  C34 LBM d   1     -16.997  -4.282  -0.712  0.00  0.00     0.020 C 
ATOM    101  H30 LBM d   1     -17.896  -3.677  -2.559  0.00  0.00     0.036 H 
ATOM    102  H31 LBM d   1     -18.543  -2.851  -1.100  0.00  0.00     0.036 H 
ATOM    103  O3  LBM d   1     -15.793  -4.774  -1.290  0.00  0.00    -0.391 OA
ATOM    104  H32 LBM d   1     -17.701  -5.117  -0.584  0.00  0.00     0.074 H 
ATOM    105  H33 LBM d   1     -16.770  -3.841   0.270  0.00  0.00     0.074 H 
ATOM    106  C35 LBM d   1     -14.842  -3.722  -1.411  0.00  0.00     0.020 C 
ATOM    107  C36 LBM d   1     -15.343  -2.641  -2.333  0.00  0.00    -0.040 C 
ATOM    108  H34 LBM d   1     -14.657  -3.289  -0.417  0.00  0.00     0.074 H 
ATOM    109  H35 LBM d   1     -13.903  -4.131  -1.813  0.00  0.00     0.074 H 
ATOM    110  H36 LBM d   1     -14.598  -1.833  -2.387  0.00  0.00     0.036 H 
ATOM    111  H37 LBM d   1     -15.501  -3.062  -3.337  0.00  0.00     0.036 H 
ATOM    112  H29 LBM d   1     -16.468  -1.599  -0.836  0.00  0.00     0.042 H 
ENDBRANCH  95  98
ENDBRANCH  93  95
ENDBRANCH  85  93
ENDBRANCH  78  81
ENDBRANCH  76  78
ENDBRANCH   6  74
TORSDOF 15
