REMARK WARNING: 32 MAX_TORS EXCEEDED!!!
REMARK  36 active torsions:
REMARK  status: ('A' for Active; 'I' for Inactive)
REMARK    1  A    between atoms: N_1  and  CA_2 
REMARK    2  A    between atoms: CA_2  and  C_3 
REMARK    3  A    between atoms: CA_2  and  CB_5 
REMARK       I    between atoms: C_3  and  N1_12 
REMARK    4  A    between atoms: CB_5  and  CG_6 
REMARK    5  A    between atoms: CG_6  and  CD_7 
REMARK    6  A    between atoms: CD_7  and  NE_8 
REMARK       I    between atoms: NE_8  and  CZ_9 
REMARK       I    between atoms: CZ_9  and  NH1_10 
REMARK    7  A    between atoms: N1_12  and  CA1_13 
REMARK    8  A    between atoms: CA1_13  and  C1_14 
REMARK    9  A    between atoms: CA1_13  and  CB1_16 
REMARK       I    between atoms: C1_14  and  N2_19 
REMARK   10  A    between atoms: CB1_16  and  CG1_17 
REMARK   11  A    between atoms: CB1_16  and  CG2_18 
REMARK   12  A    between atoms: N2_19  and  CA2_20 
REMARK   13  A    between atoms: CA2_20  and  C2_21 
REMARK   14  A    between atoms: CA2_20  and  CB2_22 
REMARK   15  A    between atoms: C2_21  and  N3_26 
REMARK   16  A    between atoms: CB2_22  and  CG3_23 
REMARK   17  A    between atoms: CG3_23  and  CD1_24 
REMARK   18  A    between atoms: CG3_23  and  CD2_25 
REMARK   19  A    between atoms: N3_26  and  CA3_27 
REMARK   20  A    between atoms: CA3_27  and  C3_28 
REMARK   21  A    between atoms: CA3_27  and  CB3_30 
REMARK       I    between atoms: C3_28  and  N4_37 
REMARK   22  A    between atoms: CB3_30  and  CG4_31 
REMARK   23  A    between atoms: N4_37  and  CA4_38 
REMARK   24  A    between atoms: CA4_38  and  C4_39 
REMARK   25  A    between atoms: CA4_38  and  CB4_41 
REMARK       I    between atoms: C4_39  and  N5_46 
REMARK   26  A    between atoms: CB4_41  and  CG5_42 
REMARK   27  A    between atoms: CG5_42  and  CD3_43 
REMARK   28  A    between atoms: N5_46  and  CA5_47 
REMARK   29  A    between atoms: CA5_47  and  C5_48 
REMARK   30  A    between atoms: CA5_47  and  CB5_50 
REMARK       I    between atoms: C5_48  and  N6_51 
REMARK   31  A    between atoms: N6_51  and  CA6_52 
REMARK   32  A    between atoms: CA6_52  and  C6_53 
REMARK   33  A    between atoms: CA6_52  and  CB6_55 
REMARK       I    between atoms: C6_53  and  N7_59 
REMARK   34  A    between atoms: CB6_55  and  CG6_56 
REMARK   35  A    between atoms: CG6_56  and  CD4_57 
REMARK   36  A    between atoms: CD4_57  and  CE_58 
ROOT
ATOM      1  N3  MOL d   1      15.846  23.554  17.359  0.00  0.00    -0.060 N 
ATOM      2  H38 MOL d   1      16.606  23.055  16.924  0.00  0.00     0.278 HD
ATOM      3  H39 MOL d   1      15.795  24.486  16.979  0.00  0.00     0.278 HD
ENDROOT
BRANCH   1   4
ATOM      4  C2  MOL d   1      16.147  23.672  18.752  0.00  0.00     0.101 C 
ATOM      5  H27 MOL d   1      15.656  24.567  19.161  0.00  0.00     0.078 H 
ATOM      6  H28 MOL d   1      15.785  22.780  19.285  0.00  0.00     0.078 H 
BRANCH   4   7
ATOM      7  CA2 MOL d   1      17.660  23.793  18.924  0.00  0.00     0.035 C 
ATOM      8  H26 MOL d   1      18.110  22.878  18.512  0.00  0.00     0.075 H 
BRANCH   7   9
ATOM      9  N2  MOL d   1      18.218  24.905  18.179  0.00  0.00    -0.353 N 
ATOM     10  C1  MOL d   1      19.050  24.666  17.177  0.00  0.00     0.241 C 
ATOM     11  O1  MOL d   1      19.290  23.516  16.788  0.00  0.00    -0.271 OA
ATOM     12  H25 MOL d   1      17.976  25.845  18.420  0.00  0.00     0.163 HD
BRANCH  10  13
ATOM     13  CA1 MOL d   1      19.733  25.852  16.507  0.00  0.00     0.092 C 
ATOM     14  H17 MOL d   1      19.254  26.783  16.844  0.00  0.00     0.088 H 
BRANCH  13  15
ATOM     15  N1  MOL d   1      21.126  25.844  16.918  0.00  0.00    -0.346 N 
ATOM     16  C   MOL d   1      21.711  26.876  17.477  0.00  0.00     0.249 C 
ATOM     17  O   MOL d   1      21.083  27.885  17.767  0.00  0.00    -0.271 OA
ATOM     18  H16 MOL d   1      21.663  25.014  16.768  0.00  0.00     0.163 HD
BRANCH  16  19
ATOM     19  CA  MOL d   1      23.196  26.741  17.751  0.00  0.00     0.176 C 
ATOM     20  H4  MOL d   1      23.573  25.874  17.189  0.00  0.00     0.099 H 
BRANCH  19  21
ATOM     21  N   MOL d   1      23.927  27.919  17.320  0.00  0.00    -0.067 N 
ATOM     22  H1  MOL d   1      24.908  27.796  17.516  0.00  0.00     0.275 HD
ATOM     23  H2  MOL d   1      23.584  28.727  17.815  0.00  0.00     0.275 HD
ATOM     24  H3  MOL d   1      23.797  28.052  16.329  0.00  0.00     0.275 HD
ENDBRANCH  19  21
BRANCH  19  25
ATOM     25  CB  MOL d   1      23.437  26.497  19.247  0.00  0.00    -0.029 C 
ATOM     26  H5  MOL d   1      22.710  25.751  19.600  0.00  0.00     0.036 H 
ATOM     27  H6  MOL d   1      23.281  27.444  19.785  0.00  0.00     0.036 H 
BRANCH  25  28
ATOM     28  CG  MOL d   1      24.848  25.987  19.560  0.00  0.00    -0.047 C 
ATOM     29  H7  MOL d   1      25.430  26.785  20.044  0.00  0.00     0.035 H 
ATOM     30  H8  MOL d   1      25.346  25.685  18.627  0.00  0.00     0.035 H 
BRANCH  28  31
ATOM     31  CD  MOL d   1      24.747  24.793  20.493  0.00  0.00     0.009 C 
ATOM     32  H9  MOL d   1      23.948  24.143  20.107  0.00  0.00     0.064 H 
ATOM     33  H10 MOL d   1      24.462  25.176  21.484  0.00  0.00     0.064 H 
BRANCH  31  34
ATOM     34  NE  MOL d   1      25.912  23.976  20.670  0.00  0.00    -0.227 N 
ATOM     35  CZ  MOL d   1      26.976  23.740  19.915  0.00  0.00     0.665 C 
ATOM     36  NH1 MOL d   1      27.168  24.298  18.722  0.00  0.00    -0.235 N 
ATOM     37  NH2 MOL d   1      27.911  22.905  20.385  0.00  0.00    -0.235 N 
ATOM     38  H12 MOL d   1      28.015  24.076  18.180  0.00  0.00     0.174 HD
ATOM     39  H13 MOL d   1      26.469  24.952  18.341  0.00  0.00     0.174 HD
ATOM     40  H14 MOL d   1      27.788  22.459  21.305  0.00  0.00     0.174 HD
ATOM     41  H15 MOL d   1      28.754  22.708  19.826  0.00  0.00     0.174 HD
ATOM     42  H11 MOL d   1      25.925  23.469  21.567  0.00  0.00     0.177 HD
ENDBRANCH  31  34
ENDBRANCH  28  31
ENDBRANCH  25  28
ENDBRANCH  19  25
ENDBRANCH  16  19
ENDBRANCH  13  15
BRANCH  13  43
ATOM     43  CB1 MOL d   1      19.640  25.776  14.975  0.00  0.00    -0.033 C 
ATOM     44  H18 MOL d   1      20.127  24.843  14.654  0.00  0.00     0.042 H 
BRANCH  43  45
ATOM     45  CG1 MOL d   1      18.203  25.744  14.479  0.00  0.00    -0.071 C 
ATOM     46  H19 MOL d   1      18.195  25.690  13.380  0.00  0.00     0.028 H 
ATOM     47  H20 MOL d   1      17.682  26.657  14.805  0.00  0.00     0.028 H 
ATOM     48  H21 MOL d   1      17.692  24.863  14.893  0.00  0.00     0.028 H 
ENDBRANCH  43  45
BRANCH  43  49
ATOM     49  CG2 MOL d   1      20.387  26.944  14.347  0.00  0.00    -0.071 C 
ATOM     50  H22 MOL d   1      21.424  26.956  14.714  0.00  0.00     0.028 H 
ATOM     51  H23 MOL d   1      19.891  27.887  14.621  0.00  0.00     0.028 H 
ATOM     52  H24 MOL d   1      20.386  26.834  13.252  0.00  0.00     0.028 H 
ENDBRANCH  43  49
ENDBRANCH  13  43
ENDBRANCH  10  13
ENDBRANCH   7   9
BRANCH   7  53
ATOM     53  CB2 MOL d   1      18.014  23.844  20.413  0.00  0.00    -0.042 C 
ATOM     54  H29 MOL d   1      17.462  23.062  20.955  0.00  0.00     0.036 H 
ATOM     55  H30 MOL d   1      17.752  24.830  20.825  0.00  0.00     0.036 H 
BRANCH  53  56
ATOM     56  CG3 MOL d   1      19.543  23.603  20.554  0.00  0.00    -0.059 C 
ATOM     57  H31 MOL d   1      19.994  23.583  19.551  0.00  0.00     0.038 H 
BRANCH  56  58
ATOM     58  CD1 MOL d   1      20.129  24.783  21.287  0.00  0.00    -0.073 C 
ATOM     59  H32 MOL d   1      21.214  24.641  21.402  0.00  0.00     0.028 H 
ATOM     60  H33 MOL d   1      19.662  24.867  22.280  0.00  0.00     0.028 H 
ATOM     61  H34 MOL d   1      19.939  25.702  20.714  0.00  0.00     0.028 H 
ENDBRANCH  56  58
BRANCH  56  62
ATOM     62  CD2 MOL d   1      19.771  22.244  21.171  0.00  0.00    -0.073 C 
ATOM     63  H35 MOL d   1      19.297  21.473  20.545  0.00  0.00     0.028 H 
ATOM     64  H36 MOL d   1      19.330  22.220  22.178  0.00  0.00     0.028 H 
ATOM     65  H37 MOL d   1      20.851  22.049  21.239  0.00  0.00     0.028 H 
ENDBRANCH  56  62
ENDBRANCH  53  56
ENDBRANCH   7  53
ENDBRANCH   4   7
ENDBRANCH   1   4
BRANCH   1  66
ATOM     66  CA3 MOL d   1      14.614  22.869  17.008  0.00  0.00     0.181 C 
ATOM     67  H40 MOL d   1      13.775  23.359  17.524  0.00  0.00     0.100 H 
BRANCH  66  68
ATOM     68  C3  MOL d   1      14.640  21.419  17.473  0.00  0.00     0.249 C 
ATOM     69  O2  MOL d   1      15.620  20.635  17.522  0.00  0.00    -0.271 OA
ATOM     70  N4  MOL d   1      13.454  20.974  17.869  0.00  0.00    -0.346 N 
ATOM     71  H48 MOL d   1      12.662  21.585  17.869  0.00  0.00     0.163 HD
BRANCH  70  72
ATOM     72  CA4 MOL d   1      13.312  19.588  18.305  0.00  0.00     0.090 C 
ATOM     73  H49 MOL d   1      14.011  18.966  17.726  0.00  0.00     0.087 H 
BRANCH  72  74
ATOM     74  C4  MOL d   1      11.893  19.091  18.045  0.00  0.00     0.241 C 
ATOM     75  O3  MOL d   1      10.899  19.749  18.339  0.00  0.00    -0.271 OA
ATOM     76  N5  MOL d   1      11.807  17.829  17.617  0.00  0.00    -0.346 N 
ATOM     77  H54 MOL d   1      12.642  17.337  17.372  0.00  0.00     0.163 HD
BRANCH  76  78
ATOM     78  CA5 MOL d   1      10.506  17.148  17.499  0.00  0.00     0.086 C 
ATOM     79  H55 MOL d   1       9.876  17.436  18.353  0.00  0.00     0.086 H 
BRANCH  78  80
ATOM     80  C5  MOL d   1      10.642  15.633  17.504  0.00  0.00     0.240 C 
ATOM     81  O4  MOL d   1      11.631  15.023  17.087  0.00  0.00    -0.271 OA
ATOM     82  N6  MOL d   1       9.618  14.918  17.989  0.00  0.00    -0.346 N 
ATOM     83  H59 MOL d   1       8.826  15.383  18.384  0.00  0.00     0.163 HD
BRANCH  82  84
ATOM     84  CA6 MOL d   1       9.661  13.459  17.939  0.00  0.00     0.089 C 
ATOM     85  H60 MOL d   1      10.542  13.124  18.506  0.00  0.00     0.087 H 
BRANCH  84  86
ATOM     86  C6  MOL d   1       9.782  13.009  16.479  0.00  0.00     0.238 C 
ATOM     87  O5  MOL d   1       9.175  13.665  15.617  0.00  0.00    -0.271 OA
ATOM     88  N7  MOL d   1      10.593  11.839  16.167  0.00  0.00    -0.368 N 
ATOM     89  H70 MOL d   1      10.683  11.531  15.220  0.00  0.00     0.159 HD
ATOM     90  H71 MOL d   1      11.059  11.344  16.900  0.00  0.00     0.159 HD
ENDBRANCH  84  86
BRANCH  84  91
ATOM     91  CB6 MOL d   1       8.430  12.761  18.497  0.00  0.00    -0.038 C 
ATOM     92  H61 MOL d   1       7.545  13.352  18.217  0.00  0.00     0.036 H 
ATOM     93  H62 MOL d   1       8.520  12.732  19.593  0.00  0.00     0.036 H 
BRANCH  91  94
ATOM     94  CG6 MOL d   1       8.224  11.333  18.000  0.00  0.00    -0.063 C 
ATOM     95  H63 MOL d   1       9.153  11.014  17.505  0.00  0.00     0.033 H 
ATOM     96  H64 MOL d   1       7.405  11.349  17.266  0.00  0.00     0.033 H 
BRANCH  94  97
ATOM     97  CD4 MOL d   1       7.882  10.298  19.049  0.00  0.00    -0.068 C 
ATOM     98  H65 MOL d   1       7.370  10.809  19.878  0.00  0.00     0.032 H 
ATOM     99  H66 MOL d   1       8.822   9.859  19.414  0.00  0.00     0.032 H 
BRANCH  97 100
ATOM    100  CE  MOL d   1       6.987   9.164  18.570  0.00  0.00    -0.077 C 
ATOM    101  H67 MOL d   1       6.798   8.469  19.402  0.00  0.00     0.027 H 
ATOM    102  H68 MOL d   1       7.484   8.626  17.749  0.00  0.00     0.027 H 
ATOM    103  H69 MOL d   1       6.032   9.576  18.213  0.00  0.00     0.027 H 
ENDBRANCH  97 100
ENDBRANCH  94  97
ENDBRANCH  91  94
ENDBRANCH  84  91
ENDBRANCH  82  84
ENDBRANCH  78  80
BRANCH  78 104
ATOM    104  CB5 MOL d   1       9.859  17.634  16.221  0.00  0.00    -0.049 C 
ATOM    105  H56 MOL d   1       8.881  17.146  16.097  0.00  0.00     0.030 H 
ATOM    106  H57 MOL d   1      10.504  17.385  15.366  0.00  0.00     0.030 H 
ATOM    107  H58 MOL d   1       9.721  18.724  16.271  0.00  0.00     0.030 H 
ENDBRANCH  78 104
ENDBRANCH  76  78
ENDBRANCH  72  74
BRANCH  72 108
ATOM    108  CB4 MOL d   1      13.661  19.457  19.793  0.00  0.00    -0.029 C 
ATOM    109  H50 MOL d   1      12.945  20.076  20.354  0.00  0.00     0.037 H 
ATOM    110  H51 MOL d   1      14.677  19.857  19.929  0.00  0.00     0.037 H 
BRANCH 108 111
ATOM    111  CG5 MOL d   1      13.636  18.057  20.409  0.00  0.00     0.018 C 
ATOM    112  H52 MOL d   1      14.309  18.060  21.279  0.00  0.00     0.049 H 
ATOM    113  H53 MOL d   1      14.014  17.351  19.655  0.00  0.00     0.049 H 
BRANCH 111 114
ATOM    114  CD3 MOL d   1      12.278  17.555  20.875  0.00  0.00     0.172 C 
ATOM    115  OE1 MOL d   1      11.430  18.471  21.023  0.00  0.00    -0.648 OA
ATOM    116  OE2 MOL d   1      11.952  16.355  20.998  0.00  0.00    -0.648 OA
ENDBRANCH 111 114
ENDBRANCH 108 111
ENDBRANCH  72 108
ENDBRANCH  70  72
ENDBRANCH  66  68
BRANCH  66 117
ATOM    117  CB3 MOL d   1      14.424  23.069  15.499  0.00  0.00    -0.006 C 
ATOM    118  H41 MOL d   1      15.415  23.077  15.021  0.00  0.00     0.043 H 
ATOM    119  H42 MOL d   1      13.930  24.038  15.335  0.00  0.00     0.043 H 
BRANCH 117 120
ATOM    120  CG4 MOL d   1      13.589  21.990  14.852  0.00  0.00    -0.056 A 
ATOM    121  CD1 MOL d   1      12.222  22.033  15.029  0.00  0.00    -0.077 A 
ATOM    122  CE1 MOL d   1      11.389  21.079  14.485  0.00  0.00    -0.082 A 
ATOM    123  H43 MOL d   1      11.791  22.839  15.612  0.00  0.00     0.084 H 
ATOM    124  CZ1 MOL d   1      11.972  20.057  13.740  0.00  0.00    -0.083 A 
ATOM    125  H45 MOL d   1      10.316  21.123  14.632  0.00  0.00     0.083 H 
ATOM    126  CE2 MOL d   1      13.349  20.032  13.561  0.00  0.00    -0.082 A 
ATOM    127  H47 MOL d   1      11.353  19.283  13.301  0.00  0.00     0.083 H 
ATOM    128  CD2 MOL d   1      14.171  20.986  14.110  0.00  0.00    -0.077 A 
ATOM    129  H46 MOL d   1      13.788  19.236  12.970  0.00  0.00     0.083 H 
ATOM    130  H44 MOL d   1      15.245  20.950  13.964  0.00  0.00     0.084 H 
ENDBRANCH 117 120
ENDBRANCH  66 117
ENDBRANCH   1  66
TORSDOF 36
