REMARK WARNING: 32 MAX_TORS EXCEEDED!!!
REMARK  36 active torsions:
REMARK  status: ('A' for Active; 'I' for Inactive)
REMARK    1  A    between atoms: C_1  and  CH3_3 
REMARK       I    between atoms: C_1  and  N_4 
REMARK    2  A    between atoms: N_4  and  CA_5 
REMARK    3  A    between atoms: CA_5  and  C1_6 
REMARK    4  A    between atoms: CA_5  and  CB_8 
REMARK       I    between atoms: C1_6  and  N1_11 
REMARK    5  A    between atoms: CB_8  and  OG1_9 
REMARK    6  A    between atoms: CB_8  and  CG2_10 
REMARK    7  A    between atoms: N1_11  and  CA1_12 
REMARK    8  A    between atoms: CA1_12  and  C2_13 
REMARK    9  A    between atoms: CA1_12  and  CB1_15 
REMARK       I    between atoms: C2_13  and  N2_19 
REMARK   10  A    between atoms: CB1_15  and  CG1_16 
REMARK   11  A    between atoms: CB1_15  and  CG21_17 
REMARK   12  A    between atoms: CG1_16  and  CD1_18 
REMARK   13  A    between atoms: N2_19  and  CA2_20 
REMARK   14  A    between atoms: CA2_20  and  C3_21 
REMARK   15  A    between atoms: CA2_20  and  CB2_22 
REMARK   16  A    between atoms: C3_21  and  N3_26 
REMARK   17  A    between atoms: CB2_22  and  CG_23 
REMARK   18  A    between atoms: CG_23  and  CD_24 
REMARK   19  A    between atoms: CD_24  and  CE_25 
REMARK   20  A    between atoms: N3_26  and  CA3_27 
REMARK   21  A    between atoms: CA3_27  and  C4_28 
REMARK   22  A    between atoms: CA3_27  and  CB3_30 
REMARK       I    between atoms: C4_28  and  N4_34 
REMARK   23  A    between atoms: CB3_30  and  CG3_31 
REMARK   24  A    between atoms: CG3_31  and  CD2_32 
REMARK   25  A    between atoms: CD2_32  and  CE1_33 
REMARK   26  A    between atoms: N4_34  and  CA4_35 
REMARK   27  A    between atoms: CA4_35  and  C5_36 
REMARK   28  A    between atoms: CA4_35  and  CB4_38 
REMARK       I    between atoms: C5_36  and  N5_43 
REMARK   29  A    between atoms: CB4_38  and  CG4_39 
REMARK   30  A    between atoms: CG4_39  and  CD3_40 
REMARK       I    between atoms: CD3_40  and  NE2_42 
REMARK   31  A    between atoms: N5_43  and  CA5_44 
REMARK   32  A    between atoms: CA5_44  and  C6_45 
REMARK   33  A    between atoms: CA5_44  and  CB5_47 
REMARK       I    between atoms: C6_45  and  N6_54 
REMARK   34  A    between atoms: CB5_47  and  CG5_48 
REMARK   35  A    between atoms: CG5_48  and  CD4_49 
REMARK   36  A    between atoms: CD4_49  and  NE_50 
REMARK       I    between atoms: NE_50  and  CZ_51 
REMARK       I    between atoms: CZ_51  and  NH1_52 
ROOT
ATOM      1  N3  MOL d   1      20.489   0.675   2.767  0.00  0.00    -0.060 N 
ATOM      2  H35 MOL d   1      19.650   0.721   2.210  0.00  0.00     0.278 HD
ATOM      3  H36 MOL d   1      21.289   0.876   2.188  0.00  0.00     0.278 HD
ENDROOT
BRANCH   1   4
ATOM      4  C3  MOL d   1      20.624  -0.694   3.213  0.00  0.00     0.101 C 
ATOM      5  H24 MOL d   1      21.694  -0.917   3.336  0.00  0.00     0.078 H 
ATOM      6  H25 MOL d   1      20.114  -0.797   4.182  0.00  0.00     0.078 H 
BRANCH   4   7
ATOM      7  CA2 MOL d   1      20.026  -1.709   2.240  0.00  0.00     0.035 C 
ATOM      8  H23 MOL d   1      18.934  -1.671   2.365  0.00  0.00     0.075 H 
BRANCH   7   9
ATOM      9  N2  MOL d   1      20.228  -1.718   0.804  0.00  0.00    -0.353 N 
ATOM     10  C2  MOL d   1      19.254  -1.352   0.189  0.00  0.00     0.241 C 
ATOM     11  O2  MOL d   1      18.374  -0.950   0.968  0.00  0.00    -0.271 OA
ATOM     12  H22 MOL d   1      21.084  -1.998   0.368  0.00  0.00     0.163 HD
BRANCH  10  13
ATOM     13  CA1 MOL d   1      19.446  -1.406  -1.300  0.00  0.00     0.092 C 
ATOM     14  H12 MOL d   1      20.524  -1.584  -1.429  0.00  0.00     0.088 H 
BRANCH  13  15
ATOM     15  N1  MOL d   1      18.819  -2.469  -1.924  0.00  0.00    -0.346 N 
ATOM     16  C1  MOL d   1      19.496  -3.248  -2.619  0.00  0.00     0.243 C 
ATOM     17  O1  MOL d   1      20.766  -3.234  -2.696  0.00  0.00    -0.271 OA
ATOM     18  H11 MOL d   1      17.835  -2.610  -1.818  0.00  0.00     0.163 HD
BRANCH  16  19
ATOM     19  CA  MOL d   1      18.622  -4.328  -3.200  0.00  0.00     0.113 C 
ATOM     20  H5  MOL d   1      17.572  -4.103  -2.960  0.00  0.00     0.091 H 
BRANCH  19  21
ATOM     21  N   MOL d   1      18.778  -4.514  -4.523  0.00  0.00    -0.346 N 
ATOM     22  C   MOL d   1      17.839  -4.014  -5.334  0.00  0.00     0.214 C 
ATOM     23  O   MOL d   1      16.793  -3.536  -4.918  0.00  0.00    -0.274 OA
ATOM     24  H4  MOL d   1      19.567  -5.008  -4.887  0.00  0.00     0.163 HD
BRANCH  22  25
ATOM     25  CH3 MOL d   1      18.261  -4.183  -6.730  0.00  0.00    -0.003 C 
ATOM     26  H1  MOL d   1      19.258  -4.646  -6.758  0.00  0.00     0.040 H 
ATOM     27  H2  MOL d   1      18.299  -3.200  -7.223  0.00  0.00     0.040 H 
ATOM     28  H3  MOL d   1      17.542  -4.829  -7.255  0.00  0.00     0.040 H 
ENDBRANCH  22  25
ENDBRANCH  19  21
BRANCH  19  29
ATOM     29  CB  MOL d   1      19.043  -5.712  -2.658  0.00  0.00     0.060 C 
ATOM     30  H6  MOL d   1      20.091  -5.866  -2.953  0.00  0.00     0.086 H 
BRANCH  29  31
ATOM     31  OG1 MOL d   1      18.298  -6.883  -2.983  0.00  0.00    -0.393 OA
ATOM     32  H7  MOL d   1      18.698  -7.637  -2.566  0.00  0.00     0.210 HD
ENDBRANCH  29  31
BRANCH  29  33
ATOM     33  CG2 MOL d   1      18.890  -5.730  -1.173  0.00  0.00    -0.050 C 
ATOM     34  H8  MOL d   1      19.189  -6.715  -0.785  0.00  0.00     0.031 H 
ATOM     35  H9  MOL d   1      17.840  -5.537  -0.910  0.00  0.00     0.031 H 
ATOM     36  H10 MOL d   1      19.528  -4.952  -0.729  0.00  0.00     0.031 H 
ENDBRANCH  29  33
ENDBRANCH  19  29
ENDBRANCH  16  19
ENDBRANCH  13  15
BRANCH  13  37
ATOM     37  CB1 MOL d   1      19.161  -0.115  -2.057  0.00  0.00    -0.030 C 
ATOM     38  H13 MOL d   1      18.228   0.266  -1.616  0.00  0.00     0.043 H 
BRANCH  37  39
ATOM     39  CG1 MOL d   1      18.950  -0.245  -3.558  0.00  0.00    -0.063 C 
ATOM     40  H14 MOL d   1      18.538   0.695  -3.953  0.00  0.00     0.033 H 
ATOM     41  H15 MOL d   1      18.247  -1.067  -3.759  0.00  0.00     0.033 H 
BRANCH  39  42
ATOM     42  CD1 MOL d   1      20.310  -0.546  -4.250  0.00  0.00    -0.076 C 
ATOM     43  H19 MOL d   1      20.156  -0.640  -5.335  0.00  0.00     0.027 H 
ATOM     44  H20 MOL d   1      20.722  -1.486  -3.855  0.00  0.00     0.027 H 
ATOM     45  H21 MOL d   1      21.014   0.275  -4.049  0.00  0.00     0.027 H 
ENDBRANCH  39  42
ENDBRANCH  37  39
BRANCH  37  46
ATOM     46  CG2 MOL d   1      20.180   0.998  -1.991  0.00  0.00    -0.071 C 
ATOM     47  H16 MOL d   1      20.432   1.203  -0.940  0.00  0.00     0.028 H 
ATOM     48  H17 MOL d   1      19.762   1.905  -2.452  0.00  0.00     0.028 H 
ATOM     49  H18 MOL d   1      21.088   0.696  -2.533  0.00  0.00     0.028 H 
ENDBRANCH  37  46
ENDBRANCH  13  37
ENDBRANCH  10  13
ENDBRANCH   7   9
BRANCH   7  50
ATOM     50  CB2 MOL d   1      20.574  -2.947   2.885  0.00  0.00    -0.045 C 
ATOM     51  H26 MOL d   1      20.110  -3.056   3.877  0.00  0.00     0.036 H 
ATOM     52  H27 MOL d   1      21.661  -2.826   3.000  0.00  0.00     0.036 H 
BRANCH  50  53
ATOM     53  CG  MOL d   1      20.318  -4.195   2.105  0.00  0.00    -0.064 C 
ATOM     54  H28 MOL d   1      20.907  -5.024   2.525  0.00  0.00     0.033 H 
ATOM     55  H29 MOL d   1      20.600  -4.041   1.053  0.00  0.00     0.033 H 
BRANCH  53  56
ATOM     56  CD  MOL d   1      18.880  -4.510   2.195  0.00  0.00    -0.068 C 
ATOM     57  H30 MOL d   1      18.381  -4.380   1.223  0.00  0.00     0.032 H 
ATOM     58  H31 MOL d   1      18.381  -3.885   2.950  0.00  0.00     0.032 H 
BRANCH  56  59
ATOM     59  CE  MOL d   1      18.899  -5.928   2.602  0.00  0.00    -0.077 C 
ATOM     60  H32 MOL d   1      17.867  -6.293   2.707  0.00  0.00     0.027 H 
ATOM     61  H33 MOL d   1      19.422  -6.026   3.565  0.00  0.00     0.027 H 
ATOM     62  H34 MOL d   1      19.422  -6.522   1.838  0.00  0.00     0.027 H 
ENDBRANCH  56  59
ENDBRANCH  53  56
ENDBRANCH  50  53
ENDBRANCH   7  50
ENDBRANCH   4   7
ENDBRANCH   1   4
BRANCH   1  63
ATOM     63  CA3 MOL d   1      20.402   1.738   3.752  0.00  0.00     0.178 C 
ATOM     64  H37 MOL d   1      21.412   1.802   4.184  0.00  0.00     0.099 H 
BRANCH  63  65
ATOM     65  C4  MOL d   1      19.575   1.472   4.931  0.00  0.00     0.249 C 
ATOM     66  O3  MOL d   1      18.410   0.917   5.068  0.00  0.00    -0.271 OA
ATOM     67  N4  MOL d   1      20.073   1.778   6.033  0.00  0.00    -0.346 N 
ATOM     68  H47 MOL d   1      21.007   2.134   6.059  0.00  0.00     0.163 HD
BRANCH  67  69
ATOM     69  CA4 MOL d   1      19.316   1.630   7.326  0.00  0.00     0.090 C 
ATOM     70  H48 MOL d   1      18.262   1.756   7.036  0.00  0.00     0.087 H 
BRANCH  69  71
ATOM     71  C5  MOL d   1      19.570   2.828   8.333  0.00  0.00     0.241 C 
ATOM     72  O4  MOL d   1      20.711   3.236   8.772  0.00  0.00    -0.271 OA
ATOM     73  N5  MOL d   1      18.608   3.485   8.900  0.00  0.00    -0.346 N 
ATOM     74  H55 MOL d   1      17.686   3.327   8.546  0.00  0.00     0.163 HD
BRANCH  73  75
ATOM     75  CA5 MOL d   1      18.737   4.464  10.041  0.00  0.00     0.089 C 
ATOM     76  H56 MOL d   1      19.794   4.512  10.342  0.00  0.00     0.087 H 
BRANCH  75  77
ATOM     77  C6  MOL d   1      17.953   4.070  11.219  0.00  0.00     0.238 C 
ATOM     78  O5  MOL d   1      16.884   3.536  11.017  0.00  0.00    -0.271 OA
ATOM     79  N6  MOL d   1      18.358   4.224  12.503  0.00  0.00    -0.368 N 
ATOM     80  H68 MOL d   1      17.765   3.930  13.253  0.00  0.00     0.159 HD
ATOM     81  H69 MOL d   1      19.249   4.632  12.701  0.00  0.00     0.159 HD
ENDBRANCH  75  77
BRANCH  75  82
ATOM     82  CB5 MOL d   1      18.326   5.789   9.541  0.00  0.00    -0.036 C 
ATOM     83  H57 MOL d   1      18.511   6.537  10.326  0.00  0.00     0.036 H 
ATOM     84  H58 MOL d   1      17.252   5.761   9.307  0.00  0.00     0.036 H 
BRANCH  82  85
ATOM     85  CG5 MOL d   1      19.062   6.180   8.334  0.00  0.00    -0.048 C 
ATOM     86  H59 MOL d   1      18.863   5.530   7.470  0.00  0.00     0.035 H 
ATOM     87  H60 MOL d   1      20.148   6.260   8.490  0.00  0.00     0.035 H 
BRANCH  85  88
ATOM     88  CD4 MOL d   1      18.348   7.552   8.251  0.00  0.00     0.009 C 
ATOM     89  H61 MOL d   1      18.663   8.191   9.089  0.00  0.00     0.064 H 
ATOM     90  H62 MOL d   1      17.258   7.411   8.288  0.00  0.00     0.064 H 
BRANCH  88  91
ATOM     91  NE  MOL d   1      18.733   8.177   6.967  0.00  0.00    -0.227 N 
ATOM     92  CZ  MOL d   1      18.269   9.368   6.637  0.00  0.00     0.665 C 
ATOM     93  NH1 MOL d   1      17.322   9.945   7.388  0.00  0.00    -0.235 N 
ATOM     94  NH2 MOL d   1      18.796   9.989   5.602  0.00  0.00    -0.235 N 
ATOM     95  H64 MOL d   1      16.958  10.874   7.133  0.00  0.00     0.174 HD
ATOM     96  H65 MOL d   1      16.958   9.460   8.220  0.00  0.00     0.174 HD
ATOM     97  H66 MOL d   1      19.523   9.525   5.039  0.00  0.00     0.174 HD
ATOM     98  H67 MOL d   1      18.481  10.938   5.356  0.00  0.00     0.174 HD
ATOM     99  H63 MOL d   1      19.367   7.680   6.326  0.00  0.00     0.177 HD
ENDBRANCH  88  91
ENDBRANCH  85  88
ENDBRANCH  82  85
ENDBRANCH  75  82
ENDBRANCH  73  75
ENDBRANCH  69  71
BRANCH  69 100
ATOM    100  CB4 MOL d   1      19.357   0.208   7.913  0.00  0.00    -0.030 C 
ATOM    101  H49 MOL d   1      20.412  -0.076   8.041  0.00  0.00     0.037 H 
ATOM    102  H50 MOL d   1      18.879  -0.471   7.192  0.00  0.00     0.037 H 
BRANCH 100 103
ATOM    103  CG4 MOL d   1      18.698   0.047   9.176  0.00  0.00     0.011 C 
ATOM    104  H51 MOL d   1      18.492  -1.025   9.310  0.00  0.00     0.047 H 
ATOM    105  H52 MOL d   1      17.748   0.599   9.129  0.00  0.00     0.047 H 
BRANCH 103 106
ATOM    106  CD3 MOL d   1      19.389   0.490  10.308  0.00  0.00     0.215 C 
ATOM    107  OE1 MOL d   1      20.564   0.528  10.214  0.00  0.00    -0.274 OA
ATOM    108  NE2 MOL d   1      18.732   0.795  11.460  0.00  0.00    -0.370 N 
ATOM    109  H53 MOL d   1      19.244   1.110  12.259  0.00  0.00     0.159 HD
ATOM    110  H54 MOL d   1      17.737   0.704  11.508  0.00  0.00     0.159 HD
ENDBRANCH 103 106
ENDBRANCH 100 103
ENDBRANCH  69 100
ENDBRANCH  67  69
ENDBRANCH  63  65
BRANCH  63 111
ATOM    111  CB3 MOL d   1      20.244   3.028   3.003  0.00  0.00    -0.030 C 
ATOM    112  H38 MOL d   1      19.318   2.987   2.411  0.00  0.00     0.036 H 
ATOM    113  H39 MOL d   1      21.104   3.159   2.330  0.00  0.00     0.036 H 
BRANCH 111 114
ATOM    114  CG3 MOL d   1      20.174   4.188   3.928  0.00  0.00    -0.063 C 
ATOM    115  H40 MOL d   1      21.193   4.422   4.269  0.00  0.00     0.033 H 
ATOM    116  H41 MOL d   1      19.553   3.907   4.792  0.00  0.00     0.033 H 
BRANCH 114 117
ATOM    117  CD2 MOL d   1      19.597   5.401   3.313  0.00  0.00    -0.068 C 
ATOM    118  H42 MOL d   1      19.826   5.432   2.237  0.00  0.00     0.032 H 
ATOM    119  H43 MOL d   1      19.995   6.304   3.799  0.00  0.00     0.032 H 
BRANCH 117 120
ATOM    120  CE1 MOL d   1      18.128   5.299   3.529  0.00  0.00    -0.077 C 
ATOM    121  H44 MOL d   1      17.631   6.178   3.092  0.00  0.00     0.027 H 
ATOM    122  H45 MOL d   1      17.918   5.258   4.608  0.00  0.00     0.027 H 
ATOM    123  H46 MOL d   1      17.749   4.386   3.047  0.00  0.00     0.027 H 
ENDBRANCH 117 120
ENDBRANCH 114 117
ENDBRANCH 111 114
ENDBRANCH  63 111
ENDBRANCH   1  63
TORSDOF 36
