REMARK  2 active torsions:
REMARK  status: ('A' for Active; 'I' for Inactive)
REMARK    1  A    between atoms: C11_1  and  C12_2 
REMARK    2  A    between atoms: C11_1  and  C13_3 
ROOT
ATOM      1  C11 LMJ d   1       2.605  59.342 114.888  0.00  0.00     0.002 C 
ATOM      2  C14 LMJ d   1       3.719  58.667 115.800  0.00  0.00    -0.013 C 
ATOM      3  C15 LMJ d   1       3.243  58.607 117.246  0.00  0.00    -0.018 C 
ATOM      4  C16 LMJ d   1       5.160  59.272 115.722  0.00  0.00     0.066 C 
ATOM      5  C17 LMJ d   1       5.571  59.146 114.272  0.00  0.00    -0.013 C 
ATOM      6  N18 LMJ d   1       6.017  58.439 116.572  0.00  0.00    -0.347 N 
ATOM      7  C19 LMJ d   1       5.612  58.392 117.947  0.00  0.00     0.255 C 
ATOM      8  C20 LMJ d   1       4.296  59.192 118.128  0.00  0.00     0.207 C 
ATOM      9  C21 LMJ d   1       3.897  59.252 119.587  0.00  0.00    -0.023 C 
ATOM     10  C23 LMJ d   1       5.308  61.173 118.897  0.00  0.00     0.085 C 
ATOM     11  C02 LMJ d   1       5.056  62.370 110.050  0.00  0.00     0.035 A 
ATOM     12  C03 LMJ d   1       3.862  62.165 110.687  0.00  0.00    -0.038 A 
ATOM     13  C04 LMJ d   1       3.838  61.327 111.822  0.00  0.00     0.044 A 
ATOM     14  C05 LMJ d   1       5.051  60.719 112.284  0.00  0.00     0.001 A 
ATOM     15  C06 LMJ d   1       6.247  60.969 111.583  0.00  0.00    -0.048 A 
ATOM     16  C07 LMJ d   1       6.240  61.783 110.485  0.00  0.00     0.052 A 
ATOM     17  C09 LMJ d   1       4.671  59.950 113.435  0.00  0.00    -0.020 A 
ATOM     18  C10 LMJ d   1       3.335  60.048 113.703  0.00  0.00     0.025 A 
ATOM     19  C22 LMJ d   1       4.670  60.469 120.122  0.00  0.00    -0.040 C 
ATOM     20  C25 LMJ d   1       5.364  60.663 116.454  0.00  0.00     0.108 C 
ATOM     21  N24 LMJ d   1       4.584  60.616 117.733  0.00  0.00    -0.051 N 
ATOM     22  N27 LMJ d   1       2.796  60.902 112.704  0.00  0.00    -0.358 N 
ATOM     23  O26 LMJ d   1       6.227  57.812 118.764  0.00  0.00    -0.271 OA
ATOM     24 BR01 LMJ d   1       5.159  63.497 108.506  0.00  0.00    -0.049 Br
ATOM     25 CL08 LMJ d   1       7.686  62.126 109.596  0.00  0.00    -0.083 Cl
ATOM     26  H7  LMJ d   1       3.811  57.630 115.445  0.00  0.00     0.045 H 
ATOM     27  H8  LMJ d   1       3.062  57.560 117.532  0.00  0.00     0.038 H 
ATOM     28  H9  LMJ d   1       2.312  59.182 117.352  0.00  0.00     0.038 H 
ATOM     29  H10 LMJ d   1       5.512  58.091 113.965  0.00  0.00     0.044 H 
ATOM     30  H11 LMJ d   1       6.603  59.506 114.151  0.00  0.00     0.044 H 
ATOM     31  H12 LMJ d   1       6.814  57.947 116.223  0.00  0.00     0.163 HD
ATOM     32  H13 LMJ d   1       4.196  58.334 120.114  0.00  0.00     0.037 H 
ATOM     33  H14 LMJ d   1       2.812  59.399 119.692  0.00  0.00     0.037 H 
ATOM     34  H15 LMJ d   1       6.382  60.945 118.833  0.00  0.00     0.076 H 
ATOM     35  H16 LMJ d   1       5.168  62.262 118.957  0.00  0.00     0.076 H 
ATOM     36  H17 LMJ d   1       2.954  62.636 110.327  0.00  0.00     0.089 H 
ATOM     37  H18 LMJ d   1       7.174  60.515 111.915  0.00  0.00     0.087 H 
ATOM     38  H19 LMJ d   1       5.454  60.142 120.821  0.00  0.00     0.035 H 
ATOM     39  H20 LMJ d   1       3.983  61.156 120.638  0.00  0.00     0.035 H 
ATOM     40  H21 LMJ d   1       4.994  61.480 115.818  0.00  0.00     0.080 H 
ATOM     41  H22 LMJ d   1       6.431  60.821 116.670  0.00  0.00     0.080 H 
ATOM     42  H23 LMJ d   1       3.723  61.122 117.597  0.00  0.00     0.281 HD
ATOM     43  H24 LMJ d   1       1.806  61.174 112.627  0.00  0.00     0.166 HD
ENDROOT
BRANCH   1  44
ATOM     44  C12 LMJ d   1       1.710  58.167 114.392  0.00  0.00    -0.064 C 
ATOM     45  H1  LMJ d   1       1.214  57.696 115.253  0.00  0.00     0.029 H 
ATOM     46  H2  LMJ d   1       2.334  57.423 113.876  0.00  0.00     0.029 H 
ATOM     47  H3  LMJ d   1       0.950  58.553 113.697  0.00  0.00     0.029 H 
ENDBRANCH   1  44
BRANCH   1  48
ATOM     48  C13 LMJ d   1       1.694  60.241 115.799  0.00  0.00    -0.064 C 
ATOM     49  H4  LMJ d   1       2.280  61.091 116.178  0.00  0.00     0.029 H 
ATOM     50  H5  LMJ d   1       1.321  59.646 116.646  0.00  0.00     0.029 H 
ATOM     51  H6  LMJ d   1       0.843  60.615 115.211  0.00  0.00     0.029 H 
ENDBRANCH   1  48
TORSDOF 2
