REMARK  2 active torsions:
REMARK  status: ('A' for Active; 'I' for Inactive)
REMARK    1  A    between atoms: C09_7  and  C10_8 
REMARK    2  A    between atoms: C10_8  and  P11_16 
ROOT
ATOM      1  C02 L8J d   1      15.359  -1.003   9.002  0.00  0.00     0.014 A 
ATOM      2  C03 L8J d   1      16.555  -0.377   8.726  0.00  0.00    -0.048 A 
ATOM      3  C04 L8J d   1      16.554   0.981   8.470  0.00  0.00     0.025 A 
ATOM      4  C06 L8J d   1      14.200  -0.248   9.015  0.00  0.00    -0.039 A 
ATOM      5  C07 L8J d   1      14.215   1.142   8.751  0.00  0.00     0.048 A 
ATOM      6  C08 L8J d   1      15.391   1.833   8.465  0.00  0.00     0.015 A 
ATOM      7  C09 L8J d   1      15.263   3.250   8.216  0.00  0.00    -0.026 A 
ATOM      8  C15 L8J d   1      13.985   3.794   8.282  0.00  0.00    -0.010 A 
ATOM      9  C16 L8J d   1      12.875   3.023   8.574  0.00  0.00     0.246 A 
ATOM     10  N18 L8J d   1      13.011   1.737   8.799  0.00  0.00    -0.323 N 
ATOM     11  O17 L8J d   1      11.803   3.524   8.622  0.00  0.00    -0.268 OA
ATOM     12 BR01 L8J d   1      15.338  -2.906   9.368  0.00  0.00    -0.051 Br
ATOM     13 BR05 L8J d   1      18.217   1.906   8.084  0.00  0.00    -0.050 Br
ATOM     14  H1  L8J d   1      17.481  -0.940   8.710  0.00  0.00     0.087 H 
ATOM     15  H2  L8J d   1      13.256  -0.734   9.233  0.00  0.00     0.089 H 
ATOM     16  H5  L8J d   1      13.854   4.859   8.098  0.00  0.00     0.092 H 
ATOM     17  H6  L8J d   1      12.202   1.189   9.011  0.00  0.00     0.169 HD
ENDROOT
BRANCH   7  18
ATOM     18  C10 L8J d   1      16.330   4.296   7.863  0.00  0.00     0.064 C 
ATOM     19  H3  L8J d   1      17.281   4.023   8.344  0.00  0.00     0.061 H 
ATOM     20  H4  L8J d   1      16.006   5.283   8.226  0.00  0.00     0.061 H 
BRANCH  18  21
ATOM     21  P11 L8J d   1      16.571   4.366   6.010  0.00  0.00     0.263 P 
ATOM     22  O12 L8J d   1      17.348   3.159   5.540  0.00  0.00    -0.639 OA
ATOM     23  O13 L8J d   1      17.318   5.622   5.622  0.00  0.00    -0.639 OA
ATOM     24  O14 L8J d   1      15.229   4.356   5.322  0.00  0.00    -0.639 OA
ENDBRANCH  18  21
ENDBRANCH   7  18
TORSDOF 2
