REMARK  17 active torsions:
REMARK  status: ('A' for Active; 'I' for Inactive)
REMARK    1  A    between atoms: O9_27  and  C1_1 
REMARK    2  A    between atoms: C2_2  and  O6_24 
REMARK    3  A    between atoms: C3_3  and  O7_25 
REMARK    4  A    between atoms: C4_4  and  O8_26 
REMARK    5  A    between atoms: C5_5  and  C6_6 
REMARK    6  A    between atoms: C6_6  and  N1_19 
REMARK    7  A    between atoms: C7_7  and  N3_21 
REMARK    8  A    between atoms: O11_29  and  C8_8 
REMARK    9  A    between atoms: C9_9  and  O10_28 
REMARK   10  A    between atoms: C10_10  and  O9_27 
REMARK   11  A    between atoms: C11_11  and  N2_20 
REMARK   12  A    between atoms: C13_13  and  O11_29 
REMARK   13  A    between atoms: C14_14  and  O13_31 
REMARK   14  A    between atoms: C15_15  and  N4_22 
REMARK   15  A    between atoms: C16_16  and  O14_32 
REMARK   16  A    between atoms: C17_17  and  C18_18 
REMARK   17  A    between atoms: C18_18  and  O15_33 
ROOT
ATOM      1  C7  KAN d   1     112.599 -15.810  -5.775  0.00  0.00     0.129 C 
ATOM      2  C8  KAN d   1     112.104 -15.666  -7.208  0.00  0.00     0.096 C 
ATOM      3  C9  KAN d   1     110.754 -16.363  -7.288  0.00  0.00     0.089 C 
ATOM      4  C10 KAN d   1     110.824 -17.846  -6.899  0.00  0.00     0.096 C 
ATOM      5  C11 KAN d   1     111.511 -18.016  -5.537  0.00  0.00     0.129 C 
ATOM      6  C12 KAN d   1     112.843 -17.277  -5.468  0.00  0.00    -0.007 C 
ATOM      7  H8  KAN d   1     111.840 -15.413  -5.085  0.00  0.00     0.088 H 
ATOM      8  H9  KAN d   1     112.820 -16.108  -7.917  0.00  0.00     0.090 H 
ATOM      9  H10 KAN d   1     110.030 -15.851  -6.637  0.00  0.00     0.091 H 
ATOM     10  H11 KAN d   1     111.383 -18.381  -7.680  0.00  0.00     0.090 H 
ATOM     11  H12 KAN d   1     110.848 -17.628  -4.750  0.00  0.00     0.088 H 
ATOM     12  H13 KAN d   1     113.271 -17.378  -4.460  0.00  0.00     0.039 H 
ATOM     13  H14 KAN d   1     113.540 -17.699  -6.207  0.00  0.00     0.039 H 
ENDROOT
BRANCH   2  14
ATOM     14  O11 KAN d   1     111.904 -14.297  -7.488  0.00  0.00    -0.349 OA
BRANCH  14  15
ATOM     15  C13 KAN d   1     112.811 -13.724  -8.416  0.00  0.00     0.159 C 
ATOM     16  C14 KAN d   1     112.975 -12.264  -8.008  0.00  0.00     0.112 C 
ATOM     17  C15 KAN d   1     111.661 -11.500  -8.133  0.00  0.00     0.155 C 
ATOM     18  H16 KAN d   1     113.748 -11.790  -8.630  0.00  0.00     0.093 H 
ATOM     19  C16 KAN d   1     111.212 -11.653  -9.569  0.00  0.00     0.092 C 
ATOM     20  H17 KAN d   1     110.914 -11.914  -7.440  0.00  0.00     0.092 H 
ATOM     21  C17 KAN d   1     111.121 -13.118  -9.935  0.00  0.00     0.088 C 
ATOM     22  H18 KAN d   1     111.920 -11.140 -10.236  0.00  0.00     0.090 H 
ATOM     23  O12 KAN d   1     112.342 -13.809  -9.758  0.00  0.00    -0.349 OA
ATOM     24  H19 KAN d   1     110.329 -13.606  -9.348  0.00  0.00     0.090 H 
ATOM     25  H15 KAN d   1     113.779 -14.242  -8.348  0.00  0.00     0.133 H 
BRANCH  16  26
ATOM     26  O13 KAN d   1     113.334 -12.219  -6.651  0.00  0.00    -0.388 OA
ATOM     27  H38 KAN d   1     113.440 -11.314  -6.382  0.00  0.00     0.210 HD
ENDBRANCH  16  26
BRANCH  17  28
ATOM     28  N4  KAN d   1     111.841 -10.081  -7.877  0.00  0.00    -0.070 N 
ATOM     29  H31 KAN d   1     112.141  -9.947  -6.924  0.00  0.00     0.274 HD
ATOM     30  H32 KAN d   1     110.968  -9.599  -8.025  0.00  0.00     0.274 HD
ATOM     31  H33 KAN d   1     112.539  -9.712  -8.504  0.00  0.00     0.274 HD
ENDBRANCH  17  28
BRANCH  19  32
ATOM     32  O14 KAN d   1     109.913 -11.098  -9.710  0.00  0.00    -0.391 OA
ATOM     33  H39 KAN d   1     109.623 -11.199 -10.609  0.00  0.00     0.210 HD
ENDBRANCH  19  32
BRANCH  21  34
ATOM     34  C18 KAN d   1     110.803 -13.143 -11.422  0.00  0.00     0.043 C 
ATOM     35  H20 KAN d   1     111.576 -12.598 -11.985  0.00  0.00     0.078 H 
ATOM     36  H21 KAN d   1     109.821 -12.683 -11.608  0.00  0.00     0.078 H 
BRANCH  34  37
ATOM     37  O15 KAN d   1     110.786 -14.481 -11.802  0.00  0.00    -0.398 OA
ATOM     38  H40 KAN d   1     111.636 -14.869 -11.630  0.00  0.00     0.209 HD
ENDBRANCH  34  37
ENDBRANCH  21  34
ENDBRANCH  14  15
ENDBRANCH   2  14
BRANCH   1  39
ATOM     39  N3  KAN d   1     113.840 -15.067  -5.610  0.00  0.00    -0.072 N 
ATOM     40  H28 KAN d   1     113.678 -14.093  -5.814  0.00  0.00     0.274 HD
ATOM     41  H29 KAN d   1     114.536 -15.431  -6.242  0.00  0.00     0.274 HD
ATOM     42  H30 KAN d   1     114.165 -15.162  -4.661  0.00  0.00     0.274 HD
ENDBRANCH   1  39
BRANCH   3  43
ATOM     43  O10 KAN d   1     110.363 -16.270  -8.643  0.00  0.00    -0.390 OA
ATOM     44  H37 KAN d   1     111.000 -16.718  -9.187  0.00  0.00     0.210 HD
ENDBRANCH   3  43
BRANCH   4  45
ATOM     45  O9  KAN d   1     109.551 -18.465  -6.710  0.00  0.00    -0.349 OA
BRANCH  45  46
ATOM     46  C1  KAN d   1     108.673 -18.470  -7.836  0.00  0.00     0.159 C 
ATOM     47  C2  KAN d   1     107.311 -18.974  -7.368  0.00  0.00     0.110 C 
ATOM     48  C3  KAN d   1     107.480 -20.357  -6.764  0.00  0.00     0.092 C 
ATOM     49  H2  KAN d   1     106.611 -19.014  -8.216  0.00  0.00     0.094 H 
ATOM     50  C4  KAN d   1     108.082 -21.281  -7.815  0.00  0.00     0.089 C 
ATOM     51  H3  KAN d   1     108.142 -20.311  -5.887  0.00  0.00     0.091 H 
ATOM     52  C5  KAN d   1     109.344 -20.638  -8.393  0.00  0.00     0.091 C 
ATOM     53  H4  KAN d   1     107.348 -21.436  -8.620  0.00  0.00     0.091 H 
ATOM     54  O5  KAN d   1     109.118 -19.328  -8.852  0.00  0.00    -0.349 OA
ATOM     55  H5  KAN d   1     110.128 -20.623  -7.622  0.00  0.00     0.090 H 
ATOM     56  H1  KAN d   1     108.585 -17.448  -8.233  0.00  0.00     0.133 H 
BRANCH  47  57
ATOM     57  O6  KAN d   1     106.817 -18.101  -6.368  0.00  0.00    -0.388 OA
ATOM     58  H34 KAN d   1     107.434 -18.066  -5.647  0.00  0.00     0.210 HD
ENDBRANCH  47  57
BRANCH  48  59
ATOM     59  O7  KAN d   1     106.194 -20.824  -6.376  0.00  0.00    -0.390 OA
ATOM     60  H35 KAN d   1     106.272 -21.698  -6.013  0.00  0.00     0.210 HD
ENDBRANCH  48  59
BRANCH  50  61
ATOM     61  O8  KAN d   1     108.425 -22.537  -7.248  0.00  0.00    -0.390 OA
ATOM     62  H36 KAN d   1     109.065 -22.407  -6.558  0.00  0.00     0.210 HD
ENDBRANCH  50  61
BRANCH  52  63
ATOM     63  C6  KAN d   1     109.796 -21.470  -9.589  0.00  0.00     0.106 C 
ATOM     64  H6  KAN d   1     108.990 -21.510 -10.337  0.00  0.00     0.079 H 
ATOM     65  H7  KAN d   1     110.040 -22.490  -9.258  0.00  0.00     0.079 H 
BRANCH  63  66
ATOM     66  N1  KAN d   1     110.976 -20.851 -10.175  0.00  0.00    -0.077 N 
ATOM     67  H22 KAN d   1     111.282 -21.394 -10.967  0.00  0.00     0.274 HD
ATOM     68  H23 KAN d   1     111.713 -20.814  -9.488  0.00  0.00     0.274 HD
ATOM     69  H24 KAN d   1     110.750 -19.916 -10.476  0.00  0.00     0.274 HD
ENDBRANCH  63  66
ENDBRANCH  52  63
ENDBRANCH  45  46
ENDBRANCH   4  45
BRANCH   5  70
ATOM     70  N2  KAN d   1     111.747 -19.445  -5.322  0.00  0.00    -0.072 N 
ATOM     71  H25 KAN d   1     110.870 -19.941  -5.366  0.00  0.00     0.274 HD
ATOM     72  H26 KAN d   1     112.166 -19.584  -4.416  0.00  0.00     0.274 HD
ATOM     73  H27 KAN d   1     112.367 -19.794  -6.036  0.00  0.00     0.274 HD
ENDBRANCH   5  70
TORSDOF 17
