REMARK WARNING: 32 MAX_TORS EXCEEDED!!!
REMARK  36 active torsions:
REMARK  status: ('A' for Active; 'I' for Inactive)
REMARK    1  A    between atoms: N_1  and  CA_2 
REMARK    2  A    between atoms: CA_2  and  C_3 
REMARK    3  A    between atoms: CA_2  and  CB_5 
REMARK       I    between atoms: C_3  and  N1_12 
REMARK    4  A    between atoms: CB_5  and  CG_6 
REMARK    5  A    between atoms: CG_6  and  CD_7 
REMARK    6  A    between atoms: CD_7  and  NE_8 
REMARK       I    between atoms: NE_8  and  CZ_9 
REMARK       I    between atoms: CZ_9  and  NH1_10 
REMARK    7  A    between atoms: N1_12  and  CA1_13 
REMARK    8  A    between atoms: CA1_13  and  C1_14 
REMARK    9  A    between atoms: CA1_13  and  CB1_16 
REMARK       I    between atoms: C1_14  and  N2_19 
REMARK   10  A    between atoms: CB1_16  and  CG1_17 
REMARK   11  A    between atoms: CB1_16  and  CG2_18 
REMARK   12  A    between atoms: N2_19  and  CA2_20 
REMARK   13  A    between atoms: CA2_20  and  C2_21 
REMARK   14  A    between atoms: CA2_20  and  CB2_22 
REMARK   15  A    between atoms: C2_21  and  N3_26 
REMARK   16  A    between atoms: CB2_22  and  CG3_23 
REMARK   17  A    between atoms: CG3_23  and  CD1_24 
REMARK   18  A    between atoms: CG3_23  and  CD2_25 
REMARK   19  A    between atoms: N3_26  and  CA3_27 
REMARK   20  A    between atoms: CA3_27  and  C3_28 
REMARK   21  A    between atoms: CA3_27  and  CB3_30 
REMARK       I    between atoms: C3_28  and  N4_37 
REMARK   22  A    between atoms: CB3_30  and  CG4_31 
REMARK   23  A    between atoms: N4_37  and  CA4_38 
REMARK   24  A    between atoms: CA4_38  and  C4_39 
REMARK   25  A    between atoms: CA4_38  and  CB4_41 
REMARK       I    between atoms: C4_39  and  N5_46 
REMARK   26  A    between atoms: CB4_41  and  CG5_42 
REMARK   27  A    between atoms: CG5_42  and  CD3_43 
REMARK   28  A    between atoms: N5_46  and  CA5_47 
REMARK   29  A    between atoms: CA5_47  and  C5_48 
REMARK   30  A    between atoms: CA5_47  and  CB5_50 
REMARK       I    between atoms: C5_48  and  N6_51 
REMARK   31  A    between atoms: N6_51  and  CA6_52 
REMARK   32  A    between atoms: CA6_52  and  C6_53 
REMARK   33  A    between atoms: CA6_52  and  CB6_55 
REMARK       I    between atoms: C6_53  and  N7_59 
REMARK   34  A    between atoms: CB6_55  and  CG6_56 
REMARK   35  A    between atoms: CG6_56  and  CD4_57 
REMARK   36  A    between atoms: CD4_57  and  CE_58 
ROOT
ATOM      1  N3  MOL d   1     -16.527  -1.686 -22.811  0.00  0.00    -0.060 N 
ATOM      2  H38 MOL d   1     -16.281  -2.267 -23.597  0.00  0.00     0.278 HD
ATOM      3  H39 MOL d   1     -17.350  -1.149 -23.034  0.00  0.00     0.278 HD
ENDROOT
BRANCH   1   4
ATOM      4  C2  MOL d   1     -15.419  -0.701 -22.662  0.00  0.00     0.101 C 
ATOM      5  H27 MOL d   1     -15.841   0.235 -22.267  0.00  0.00     0.078 H 
ATOM      6  H28 MOL d   1     -14.691  -1.107 -21.944  0.00  0.00     0.078 H 
BRANCH   4   7
ATOM      7  CA2 MOL d   1     -14.677  -0.382 -23.975  0.00  0.00     0.035 C 
ATOM      8  H26 MOL d   1     -14.232  -1.311 -24.361  0.00  0.00     0.075 H 
BRANCH   7   9
ATOM      9  N2  MOL d   1     -15.642   0.135 -24.992  0.00  0.00    -0.353 N 
ATOM     10  C1  MOL d   1     -15.934  -0.547 -26.041  0.00  0.00     0.241 C 
ATOM     11  O1  MOL d   1     -15.538  -1.733 -26.132  0.00  0.00    -0.271 OA
ATOM     12  H25 MOL d   1     -16.069   1.029 -24.854  0.00  0.00     0.163 HD
BRANCH  10  13
ATOM     13  CA1 MOL d   1     -16.835   0.127 -27.002  0.00  0.00     0.092 C 
ATOM     14  H17 MOL d   1     -17.221   1.037 -26.519  0.00  0.00     0.088 H 
BRANCH  13  15
ATOM     15  N1  MOL d   1     -16.084   0.539 -28.194  0.00  0.00    -0.346 N 
ATOM     16  C   MOL d   1     -16.100   1.717 -28.643  0.00  0.00     0.249 C 
ATOM     17  O   MOL d   1     -16.634   2.699 -28.112  0.00  0.00    -0.271 OA
ATOM     18  H16 MOL d   1     -15.534  -0.146 -28.672  0.00  0.00     0.163 HD
BRANCH  16  19
ATOM     19  CA  MOL d   1     -15.410   1.927 -29.950  0.00  0.00     0.176 C 
ATOM     20  H4  MOL d   1     -15.620   1.063 -30.598  0.00  0.00     0.099 H 
BRANCH  19  21
ATOM     21  N   MOL d   1     -15.854   3.144 -30.615  0.00  0.00    -0.067 N 
ATOM     22  H1  MOL d   1     -15.364   3.246 -31.490  0.00  0.00     0.275 HD
ATOM     23  H2  MOL d   1     -15.659   3.939 -30.026  0.00  0.00     0.275 HD
ATOM     24  H3  MOL d   1     -16.845   3.089 -30.789  0.00  0.00     0.275 HD
ENDBRANCH  19  21
BRANCH  19  25
ATOM     25  CB  MOL d   1     -13.923   2.056 -29.751  0.00  0.00    -0.029 C 
ATOM     26  H5  MOL d   1     -13.505   2.333 -30.730  0.00  0.00     0.036 H 
ATOM     27  H6  MOL d   1     -13.563   1.056 -29.468  0.00  0.00     0.036 H 
BRANCH  25  28
ATOM     28  CG  MOL d   1     -13.345   2.991 -28.778  0.00  0.00    -0.047 C 
ATOM     29  H7  MOL d   1     -13.666   2.690 -27.770  0.00  0.00     0.035 H 
ATOM     30  H8  MOL d   1     -13.722   4.001 -28.996  0.00  0.00     0.035 H 
BRANCH  28  31
ATOM     31  CD  MOL d   1     -11.819   3.025 -28.812  0.00  0.00     0.009 C 
ATOM     32  H9  MOL d   1     -11.500   2.999 -29.864  0.00  0.00     0.064 H 
ATOM     33  H10 MOL d   1     -11.446   2.130 -28.294  0.00  0.00     0.064 H 
BRANCH  31  34
ATOM     34  NE  MOL d   1     -11.217   4.195 -28.185  0.00  0.00    -0.227 N 
ATOM     35  CZ  MOL d   1      -9.982   4.628 -28.488  0.00  0.00     0.665 C 
ATOM     36  NH1 MOL d   1      -9.412   5.604 -27.785  0.00  0.00    -0.235 N 
ATOM     37  NH2 MOL d   1      -9.356   4.119 -29.454  0.00  0.00    -0.235 N 
ATOM     38  H12 MOL d   1      -8.464   5.927 -28.027  0.00  0.00     0.174 HD
ATOM     39  H13 MOL d   1      -9.918   6.036 -26.999  0.00  0.00     0.174 HD
ATOM     40  H14 MOL d   1      -9.786   3.363 -30.006  0.00  0.00     0.174 HD
ATOM     41  H15 MOL d   1      -8.413   4.458 -29.693  0.00  0.00     0.174 HD
ATOM     42  H11 MOL d   1     -11.762   4.712 -27.480  0.00  0.00     0.177 HD
ENDBRANCH  31  34
ENDBRANCH  28  31
ENDBRANCH  25  28
ENDBRANCH  19  25
ENDBRANCH  16  19
ENDBRANCH  13  15
BRANCH  13  43
ATOM     43  CB1 MOL d   1     -18.052  -0.757 -27.361  0.00  0.00    -0.033 C 
ATOM     44  H18 MOL d   1     -17.663  -1.666 -27.843  0.00  0.00     0.042 H 
BRANCH  43  45
ATOM     45  CG1 MOL d   1     -18.970  -0.092 -28.396  0.00  0.00    -0.071 C 
ATOM     46  H19 MOL d   1     -19.817  -0.758 -28.617  0.00  0.00     0.028 H 
ATOM     47  H20 MOL d   1     -18.404   0.099 -29.319  0.00  0.00     0.028 H 
ATOM     48  H21 MOL d   1     -19.347   0.860 -27.994  0.00  0.00     0.028 H 
ENDBRANCH  43  45
BRANCH  43  49
ATOM     49  CG2 MOL d   1     -18.745  -1.213 -26.052  0.00  0.00    -0.071 C 
ATOM     50  H22 MOL d   1     -18.002  -1.673 -25.385  0.00  0.00     0.028 H 
ATOM     51  H23 MOL d   1     -19.529  -1.947 -26.289  0.00  0.00     0.028 H 
ATOM     52  H24 MOL d   1     -19.196  -0.342 -25.553  0.00  0.00     0.028 H 
ENDBRANCH  43  49
ENDBRANCH  13  43
ENDBRANCH  10  13
ENDBRANCH   7   9
BRANCH   7  53
ATOM     53  CB2 MOL d   1     -13.548   0.619 -23.712  0.00  0.00    -0.042 C 
ATOM     54  H29 MOL d   1     -12.800   0.145 -23.059  0.00  0.00     0.036 H 
ATOM     55  H30 MOL d   1     -13.968   1.502 -23.208  0.00  0.00     0.036 H 
BRANCH  53  56
ATOM     56  CG3 MOL d   1     -12.861   1.069 -25.000  0.00  0.00    -0.059 C 
ATOM     57  H31 MOL d   1     -13.627   1.579 -25.603  0.00  0.00     0.038 H 
BRANCH  56  58
ATOM     58  CD1 MOL d   1     -12.334  -0.094 -25.853  0.00  0.00    -0.073 C 
ATOM     59  H32 MOL d   1     -11.854   0.304 -26.759  0.00  0.00     0.028 H 
ATOM     60  H33 MOL d   1     -13.171  -0.748 -26.138  0.00  0.00     0.028 H 
ATOM     61  H34 MOL d   1     -11.599  -0.671 -25.273  0.00  0.00     0.028 H 
ENDBRANCH  56  58
BRANCH  56  62
ATOM     62  CD2 MOL d   1     -11.808   2.049 -24.727  0.00  0.00    -0.073 C 
ATOM     63  H35 MOL d   1     -12.218   2.867 -24.116  0.00  0.00     0.028 H 
ATOM     64  H36 MOL d   1     -11.430   2.455 -25.677  0.00  0.00     0.028 H 
ATOM     65  H37 MOL d   1     -10.985   1.562 -24.183  0.00  0.00     0.028 H 
ENDBRANCH  56  62
ENDBRANCH  53  56
ENDBRANCH   7  53
ENDBRANCH   4   7
ENDBRANCH   1   4
BRANCH   1  66
ATOM     66  CA3 MOL d   1     -16.919  -2.602 -21.737  0.00  0.00     0.181 C 
ATOM     67  H40 MOL d   1     -17.247  -2.009 -20.871  0.00  0.00     0.100 H 
BRANCH  66  68
ATOM     68  C3  MOL d   1     -15.741  -3.429 -21.303  0.00  0.00     0.249 C 
ATOM     69  O2  MOL d   1     -14.958  -3.968 -22.161  0.00  0.00    -0.271 OA
ATOM     70  N4  MOL d   1     -15.600  -3.629 -20.028  0.00  0.00    -0.346 N 
ATOM     71  H48 MOL d   1     -16.223  -3.163 -19.399  0.00  0.00     0.163 HD
BRANCH  70  72
ATOM     72  CA4 MOL d   1     -14.580  -4.497 -19.477  0.00  0.00     0.090 C 
ATOM     73  H49 MOL d   1     -14.365  -5.278 -20.221  0.00  0.00     0.087 H 
BRANCH  72  74
ATOM     74  C4  MOL d   1     -15.090  -5.171 -18.219  0.00  0.00     0.241 C 
ATOM     75  O3  MOL d   1     -15.730  -4.495 -17.382  0.00  0.00    -0.271 OA
ATOM     76  N5  MOL d   1     -14.785  -6.428 -18.100  0.00  0.00    -0.346 N 
ATOM     77  H54 MOL d   1     -14.354  -6.913 -18.861  0.00  0.00     0.163 HD
BRANCH  76  78
ATOM     78  CA5 MOL d   1     -15.074  -7.132 -16.851  0.00  0.00     0.086 C 
ATOM     79  H55 MOL d   1     -15.163  -6.406 -16.029  0.00  0.00     0.086 H 
BRANCH  78  80
ATOM     80  C5  MOL d   1     -13.978  -8.085 -16.534  0.00  0.00     0.240 C 
ATOM     81  O4  MOL d   1     -13.233  -8.657 -17.389  0.00  0.00    -0.271 OA
ATOM     82  N6  MOL d   1     -13.847  -8.441 -15.276  0.00  0.00    -0.346 N 
ATOM     83  H59 MOL d   1     -14.476  -8.060 -14.598  0.00  0.00     0.163 HD
BRANCH  82  84
ATOM     84  CA6 MOL d   1     -12.834  -9.356 -14.844  0.00  0.00     0.089 C 
ATOM     85  H60 MOL d   1     -11.905  -9.268 -15.426  0.00  0.00     0.087 H 
BRANCH  84  86
ATOM     86  C6  MOL d   1     -13.434 -10.764 -14.906  0.00  0.00     0.238 C 
ATOM     87  O5  MOL d   1     -14.619 -11.031 -14.494  0.00  0.00    -0.271 OA
ATOM     88  N7  MOL d   1     -12.688 -11.667 -15.521  0.00  0.00    -0.368 N 
ATOM     89  H70 MOL d   1     -13.010 -12.610 -15.603  0.00  0.00     0.159 HD
ATOM     90  H71 MOL d   1     -11.802 -11.406 -15.904  0.00  0.00     0.159 HD
ENDBRANCH  84  86
BRANCH  84  91
ATOM     91  CB6 MOL d   1     -12.640  -9.048 -13.348  0.00  0.00    -0.038 C 
ATOM     92  H61 MOL d   1     -13.620  -9.143 -12.857  0.00  0.00     0.036 H 
ATOM     93  H62 MOL d   1     -12.286  -8.010 -13.263  0.00  0.00     0.036 H 
BRANCH  91  94
ATOM     94  CG6 MOL d   1     -11.677  -9.918 -12.612  0.00  0.00    -0.063 C 
ATOM     95  H63 MOL d   1     -12.118 -10.925 -12.574  0.00  0.00     0.033 H 
ATOM     96  H64 MOL d   1     -11.594  -9.515 -11.592  0.00  0.00     0.033 H 
BRANCH  94  97
ATOM     97  CD4 MOL d   1     -10.234 -10.075 -13.156  0.00  0.00    -0.068 C 
ATOM     98  H65 MOL d   1     -10.278  -9.979 -14.251  0.00  0.00     0.032 H 
ATOM     99  H66 MOL d   1      -9.885 -11.084 -12.890  0.00  0.00     0.032 H 
BRANCH  97 100
ATOM    100  CE  MOL d   1      -9.195  -9.073 -12.643  0.00  0.00    -0.077 C 
ATOM    101  H67 MOL d   1      -8.219  -9.290 -13.101  0.00  0.00     0.027 H 
ATOM    102  H68 MOL d   1      -9.114  -9.157 -11.549  0.00  0.00     0.027 H 
ATOM    103  H69 MOL d   1      -9.507  -8.053 -12.910  0.00  0.00     0.027 H 
ENDBRANCH  97 100
ENDBRANCH  94  97
ENDBRANCH  91  94
ENDBRANCH  84  91
ENDBRANCH  82  84
ENDBRANCH  78  80
BRANCH  78 104
ATOM    104  CB5 MOL d   1     -16.386  -7.847 -17.031  0.00  0.00    -0.049 C 
ATOM    105  H56 MOL d   1     -16.637  -8.390 -16.108  0.00  0.00     0.030 H 
ATOM    106  H57 MOL d   1     -16.304  -8.560 -17.865  0.00  0.00     0.030 H 
ATOM    107  H58 MOL d   1     -17.176  -7.114 -17.252  0.00  0.00     0.030 H 
ENDBRANCH  78 104
ENDBRANCH  76  78
ENDBRANCH  72  74
BRANCH  72 108
ATOM    108  CB4 MOL d   1     -13.282  -3.757 -19.195  0.00  0.00    -0.029 C 
ATOM    109  H50 MOL d   1     -13.537  -2.907 -18.545  0.00  0.00     0.037 H 
ATOM    110  H51 MOL d   1     -12.915  -3.382 -20.162  0.00  0.00     0.037 H 
BRANCH 108 111
ATOM    111  CG5 MOL d   1     -12.158  -4.452 -18.558  0.00  0.00     0.018 C 
ATOM    112  H52 MOL d   1     -11.248  -3.878 -18.786  0.00  0.00     0.049 H 
ATOM    113  H53 MOL d   1     -12.088  -5.449 -19.017  0.00  0.00     0.049 H 
BRANCH 111 114
ATOM    114  CD3 MOL d   1     -12.201  -4.649 -17.066  0.00  0.00     0.172 C 
ATOM    115  OE1 MOL d   1     -11.603  -5.646 -16.569  0.00  0.00    -0.648 OA
ATOM    116  OE2 MOL d   1     -12.874  -3.901 -16.379  0.00  0.00    -0.648 OA
ENDBRANCH 111 114
ENDBRANCH 108 111
ENDBRANCH  72 108
ENDBRANCH  70  72
ENDBRANCH  66  68
BRANCH  66 117
ATOM    117  CB3 MOL d   1     -18.113  -3.435 -22.219  0.00  0.00    -0.006 C 
ATOM    118  H41 MOL d   1     -17.937  -3.725 -23.265  0.00  0.00     0.043 H 
ATOM    119  H42 MOL d   1     -19.019  -2.814 -22.158  0.00  0.00     0.043 H 
BRANCH 117 120
ATOM    120  CG4 MOL d   1     -18.331  -4.662 -21.423  0.00  0.00    -0.056 A 
ATOM    121  CD1 MOL d   1     -17.992  -5.943 -21.844  0.00  0.00    -0.077 A 
ATOM    122  CE1 MOL d   1     -18.225  -6.994 -20.969  0.00  0.00    -0.082 A 
ATOM    123  H43 MOL d   1     -17.560  -6.115 -22.823  0.00  0.00     0.084 H 
ATOM    124  CZ1 MOL d   1     -18.793  -6.807 -19.698  0.00  0.00    -0.083 A 
ATOM    125  H45 MOL d   1     -17.959  -7.998 -21.278  0.00  0.00     0.083 H 
ATOM    126  CE2 MOL d   1     -19.106  -5.530 -19.283  0.00  0.00    -0.082 A 
ATOM    127  H47 MOL d   1     -18.983  -7.656 -19.052  0.00  0.00     0.083 H 
ATOM    128  CD2 MOL d   1     -18.891  -4.470 -20.185  0.00  0.00    -0.077 A 
ATOM    129  H46 MOL d   1     -19.506  -5.347 -18.292  0.00  0.00     0.083 H 
ATOM    130  H44 MOL d   1     -19.178  -3.467 -19.891  0.00  0.00     0.084 H 
ENDBRANCH 117 120
ENDBRANCH  66 117
ENDBRANCH   1  66
TORSDOF 36
