REMARK  7 active torsions:
REMARK  status: ('A' for Active; 'I' for Inactive)
REMARK    1  A    between atoms: C4_1  and  N3_15 
REMARK    2  A    between atoms: C14_2  and  C17_31 
REMARK    3  A    between atoms: C7_6  and  N2_13 
REMARK    4  A    between atoms: N4_27  and  C3_14 
REMARK    5  A    between atoms: C18_17  and  C19_18 
REMARK       I    between atoms: C18_17  and  N4_27 
REMARK    6  A    between atoms: C17_31  and  O1_32 
REMARK    7  A    between atoms: N_34  and  C_35 
ROOT
ATOM      1  C4  LRS d   1      17.368  -6.915   6.666  0.00  0.00     0.040 A 
ATOM      2  C5  LRS d   1      16.716  -6.926   7.902  0.00  0.00    -0.029 A 
ATOM      3  C6  LRS d   1      16.402  -8.146   8.493  0.00  0.00     0.105 A 
ATOM      4  C7  LRS d   1      15.743  -9.714   9.788  0.00  0.00     0.705 A 
ATOM      5  N1  LRS d   1      15.785  -8.408   9.708  0.00  0.00    -0.062 NA
ATOM      6  C3  LRS d   1      17.703  -8.118   6.022  0.00  0.00     0.059 A 
ATOM      7  C2  LRS d   1      17.373  -9.343   6.607  0.00  0.00    -0.026 A 
ATOM      8  C1  LRS d   1      16.724  -9.334   7.837  0.00  0.00     0.083 A 
ATOM      9  N   LRS d   1      16.264 -10.359   8.667  0.00  0.00    -0.183 N 
ATOM     10  H2  LRS d   1      16.458  -5.995   8.394  0.00  0.00     0.090 H 
ATOM     11  H20 LRS d   1      17.617 -10.277   6.114  0.00  0.00     0.090 H 
ENDROOT
BRANCH   1  12
ATOM     12  N3  LRS d   1      17.754  -5.690   6.049  0.00  0.00    -0.281 NA
ATOM     13  C12 LRS d   1      18.761  -4.953   6.826  0.00  0.00    -0.016 C 
ATOM     14  C13 LRS d   1      19.212  -3.668   6.128  0.00  0.00    -0.049 C 
ATOM     15  H11 LRS d   1      18.330  -4.691   7.804  0.00  0.00     0.056 H 
ATOM     16  H12 LRS d   1      19.637  -5.601   6.973  0.00  0.00     0.056 H 
ATOM     17  C14 LRS d   1      18.031  -2.791   5.707  0.00  0.00    -0.032 C 
ATOM     18  H13 LRS d   1      19.849  -3.096   6.818  0.00  0.00     0.035 H 
ATOM     19  H14 LRS d   1      19.790  -3.937   5.232  0.00  0.00     0.035 H 
ATOM     20  C15 LRS d   1      17.079  -3.621   4.855  0.00  0.00    -0.049 C 
ATOM     21  H1  LRS d   1      17.496  -2.480   6.616  0.00  0.00     0.043 H 
ATOM     22  C16 LRS d   1      16.618  -4.880   5.593  0.00  0.00    -0.016 C 
ATOM     23  H23 LRS d   1      17.594  -3.918   3.929  0.00  0.00     0.035 H 
ATOM     24  H24 LRS d   1      16.199  -3.011   4.605  0.00  0.00     0.035 H 
ATOM     25  H21 LRS d   1      16.020  -4.582   6.466  0.00  0.00     0.056 H 
ATOM     26  H22 LRS d   1      15.999  -5.485   4.914  0.00  0.00     0.056 H 
BRANCH  17  27
ATOM     27  C17 LRS d   1      18.478  -1.528   4.984  0.00  0.00     0.020 C 
ATOM     28  H25 LRS d   1      19.201  -0.996   5.620  0.00  0.00     0.074 H 
ATOM     29  H26 LRS d   1      17.599  -0.889   4.815  0.00  0.00     0.074 H 
BRANCH  27  30
ATOM     30  O1  LRS d   1      19.093  -1.803   3.723  0.00  0.00    -0.400 OA
ATOM     31  H27 LRS d   1      19.353  -0.986   3.314  0.00  0.00     0.209 HD
ENDBRANCH  27  30
ENDBRANCH  17  27
ENDBRANCH   1  12
BRANCH   6  32
ATOM     32  N4  LRS d   1      18.388  -8.032   4.781  0.00  0.00    -0.321 N 
ATOM     33  C18 LRS d   1      18.915  -9.007   3.984  0.00  0.00     0.261 C 
ATOM     34  O2  LRS d   1      18.747 -10.214   4.163  0.00  0.00    -0.267 OA
ATOM     35  H19 LRS d   1      18.504  -7.102   4.433  0.00  0.00     0.169 HD
BRANCH  33  36
ATOM     36  C19 LRS d   1      19.789  -8.518   2.867  0.00  0.00     0.099 A 
ATOM     37  C21 LRS d   1      19.927  -7.208   2.392  0.00  0.00     0.167 A 
ATOM     38  N7  LRS d   1      19.389  -6.054   2.821  0.00  0.00    -0.240 NA
ATOM     39  N6  LRS d   1      20.871  -7.271   1.375  0.00  0.00    -0.226 N 
ATOM     40  C22 LRS d   1      19.803  -4.929   2.213  0.00  0.00     0.006 A 
ATOM     41  C23 LRS d   1      20.726  -4.900   1.171  0.00  0.00    -0.049 A 
ATOM     42  H15 LRS d   1      19.391  -3.981   2.557  0.00  0.00     0.114 H 
ATOM     43  C24 LRS d   1      21.254  -6.104   0.752  0.00  0.00     0.007 A 
ATOM     44  H16 LRS d   1      21.020  -3.961   0.704  0.00  0.00     0.087 H 
ATOM     45  H17 LRS d   1      21.970  -6.131  -0.068  0.00  0.00     0.115 H 
ATOM     46  N5  LRS d   1      21.363  -8.543   1.184  0.00  0.00    -0.178 NA
ATOM     47  C20 LRS d   1      20.690  -9.271   2.093  0.00  0.00     0.041 A 
ATOM     48  H18 LRS d   1      20.830 -10.344   2.218  0.00  0.00     0.119 H 
ENDBRANCH  33  36
ENDBRANCH   6  32
BRANCH   4  49
ATOM     49  N2  LRS d   1      15.333 -10.392  10.929  0.00  0.00    -0.212 N 
ATOM     50  C11 LRS d   1      14.244  -9.885  11.775  0.00  0.00     0.031 C 
ATOM     51  C10 LRS d   1      14.709  -9.757  13.198  0.00  0.00     0.035 C 
ATOM     52  H3  LRS d   1      13.927  -8.898  11.406  0.00  0.00     0.068 H 
ATOM     53  H4  LRS d   1      13.395 -10.583  11.732  0.00  0.00     0.068 H 
ATOM     54  O   LRS d   1      15.253 -10.982  13.682  0.00  0.00    -0.388 OA
ATOM     55  H9  LRS d   1      13.854  -9.472  13.829  0.00  0.00     0.076 H 
ATOM     56  H10 LRS d   1      15.482  -8.976  13.253  0.00  0.00     0.076 H 
ATOM     57  C9  LRS d   1      16.395 -11.341  12.906  0.00  0.00     0.035 C 
ATOM     58  C8  LRS d   1      16.027 -11.573  11.466  0.00  0.00     0.031 C 
ATOM     59  H7  LRS d   1      17.135 -10.529  12.960  0.00  0.00     0.076 H 
ATOM     60  H8  LRS d   1      16.832 -12.263  13.317  0.00  0.00     0.076 H 
ATOM     61  H5  LRS d   1      15.365 -12.448  11.395  0.00  0.00     0.068 H 
ATOM     62  H6  LRS d   1      16.941 -11.756  10.881  0.00  0.00     0.068 H 
ENDBRANCH   4  49
BRANCH   9  63
ATOM     63  C   LRS d   1      16.216 -11.771   8.296  0.00  0.00     0.003 C 
ATOM     64  H28 LRS d   1      15.812 -12.357   9.135  0.00  0.00     0.058 H 
ATOM     65  H29 LRS d   1      17.231 -12.122   8.058  0.00  0.00     0.058 H 
ATOM     66  H30 LRS d   1      15.569 -11.897   7.416  0.00  0.00     0.058 H 
ENDBRANCH   9  63
TORSDOF 7
