REMARK  6 active torsions:
REMARK  status: ('A' for Active; 'I' for Inactive)
REMARK    1  A    between atoms: C6_3  and  N17_17 
REMARK    2  A    between atoms: N11_13  and  C7_4 
REMARK    3  A    between atoms: C2_11  and  C1_10 
REMARK    4  A    between atoms: C2_11  and  C29_29 
REMARK       I    between atoms: N17_17  and  C18_18 
REMARK    5  A    between atoms: C18_18  and  C20_20 
REMARK    6  A    between atoms: C29_29  and  O30_30 
ROOT
ATOM      1  C4  LSV d   1       3.818  10.203  29.650  0.00  0.00    -0.019 A 
ATOM      2  C5  LSV d   1       2.915  10.178  30.674  0.00  0.00    -0.046 A 
ATOM      3  C6  LSV d   1       2.439   8.989  31.178  0.00  0.00     0.057 A 
ATOM      4  C7  LSV d   1       2.933   7.802  30.618  0.00  0.00     0.040 A 
ATOM      5  C8  LSV d   1       3.834   7.847  29.596  0.00  0.00    -0.027 A 
ATOM      6  C9  LSV d   1       4.282   9.034  29.092  0.00  0.00     0.078 A 
ATOM      7  C3  LSV d   1       4.471  11.314  28.903  0.00  0.00    -0.007 C 
ATOM      8  C2  LSV d   1       5.211  10.602  27.762  0.00  0.00     0.089 C 
ATOM      9  O10 LSV d   1       5.123   9.242  28.097  0.00  0.00    -0.338 OA
ATOM     10  H1  LSV d   1       2.566  11.113  31.098  0.00  0.00     0.088 H 
ATOM     11  H2  LSV d   1       4.203   6.919  29.174  0.00  0.00     0.090 H 
ATOM     12  H7  LSV d   1       5.176  11.859  29.548  0.00  0.00     0.044 H 
ATOM     13  H8  LSV d   1       3.721  12.014  28.507  0.00  0.00     0.044 H 
ENDROOT
BRANCH   3  14
ATOM     14  N17 LSV d   1       1.545   8.874  32.244  0.00  0.00    -0.321 N 
ATOM     15  C18 LSV d   1       0.867   9.829  32.885  0.00  0.00     0.261 C 
ATOM     16  O19 LSV d   1       0.968  10.950  32.623  0.00  0.00    -0.267 OA
ATOM     17  H16 LSV d   1       1.390   7.943  32.575  0.00  0.00     0.169 HD
BRANCH  15  18
ATOM     18  C20 LSV d   1       0.072   9.441  34.039  0.00  0.00     0.099 A 
ATOM     19  C21 LSV d   1      -0.376  10.276  35.065  0.00  0.00     0.041 A 
ATOM     20  N22 LSV d   1      -0.992   9.585  35.923  0.00  0.00    -0.178 NA
ATOM     21  H17 LSV d   1      -0.219  11.352  35.117  0.00  0.00     0.119 H 
ATOM     22  N23 LSV d   1      -0.997   8.288  35.579  0.00  0.00    -0.226 N 
ATOM     23  C24 LSV d   1      -0.330   8.169  34.407  0.00  0.00     0.167 A 
ATOM     24  C28 LSV d   1      -1.525   7.196  36.162  0.00  0.00     0.007 A 
ATOM     25  N25 LSV d   1      -0.187   6.983  33.843  0.00  0.00    -0.240 NA
ATOM     26  C26 LSV d   1      -0.670   5.914  34.383  0.00  0.00     0.006 A 
ATOM     27  C27 LSV d   1      -1.376   5.992  35.583  0.00  0.00    -0.049 A 
ATOM     28  H18 LSV d   1      -0.525   4.949  33.900  0.00  0.00     0.114 H 
ATOM     29  H19 LSV d   1      -1.797   5.098  36.041  0.00  0.00     0.087 H 
ATOM     30  H20 LSV d   1      -2.071   7.287  37.100  0.00  0.00     0.115 H 
ENDBRANCH  15  18
ENDBRANCH   3  14
BRANCH   4  31
ATOM     31  N11 LSV d   1       2.485   6.594  31.122  0.00  0.00    -0.277 NA
ATOM     32  C12 LSV d   1       1.585   5.837  30.290  0.00  0.00     0.004 C 
ATOM     33  C13 LSV d   1       1.079   4.616  31.044  0.00  0.00     0.031 C 
ATOM     34  H3  LSV d   1       0.731   6.470  30.008  0.00  0.00     0.059 H 
ATOM     35  H4  LSV d   1       2.115   5.511  29.383  0.00  0.00     0.059 H 
ATOM     36  O14 LSV d   1       2.093   3.840  31.612  0.00  0.00    -0.389 OA
ATOM     37  H5  LSV d   1       0.513   3.986  30.342  0.00  0.00     0.076 H 
ATOM     38  H6  LSV d   1       0.413   4.958  31.849  0.00  0.00     0.076 H 
ATOM     39  C15 LSV d   1       2.922   4.574  32.437  0.00  0.00     0.031 C 
ATOM     40  C16 LSV d   1       3.496   5.752  31.684  0.00  0.00     0.004 C 
ATOM     41  H12 LSV d   1       3.743   3.933  32.790  0.00  0.00     0.076 H 
ATOM     42  H13 LSV d   1       2.345   4.940  33.299  0.00  0.00     0.076 H 
ATOM     43  H14 LSV d   1       4.106   6.349  32.377  0.00  0.00     0.059 H 
ATOM     44  H15 LSV d   1       4.131   5.373  30.870  0.00  0.00     0.059 H 
ENDBRANCH   4  31
BRANCH   8  45
ATOM     45  C1  LSV d   1       6.657  11.056  27.789  0.00  0.00    -0.045 C 
ATOM     46  H9  LSV d   1       7.212  10.560  26.979  0.00  0.00     0.031 H 
ATOM     47  H10 LSV d   1       7.106  10.791  28.758  0.00  0.00     0.031 H 
ATOM     48  H11 LSV d   1       6.702  12.146  27.650  0.00  0.00     0.031 H 
ENDBRANCH   8  45
BRANCH   8  49
ATOM     49  C29 LSV d   1       4.582  10.895  26.397  0.00  0.00     0.046 C 
ATOM     50  H21 LSV d   1       4.759  11.953  26.151  0.00  0.00     0.078 H 
ATOM     51  H22 LSV d   1       3.500  10.710  26.465  0.00  0.00     0.078 H 
BRANCH  49  52
ATOM     52  O30 LSV d   1       5.101  10.110  25.369  0.00  0.00    -0.398 OA
ATOM     53  H23 LSV d   1       4.947   9.193  25.564  0.00  0.00     0.209 HD
ENDBRANCH  49  52
ENDBRANCH   8  49
TORSDOF 6
