REMARK WARNING: 32 MAX_TORS EXCEEDED!!!
REMARK  37 active torsions:
REMARK  status: ('A' for Active; 'I' for Inactive)
REMARK    1  A    between atoms: N_1  and  CA_2 
REMARK    2  A    between atoms: CA_2  and  C_3 
REMARK    3  A    between atoms: CA_2  and  CB_5 
REMARK       I    between atoms: C_3  and  N_8 
REMARK    4  A    between atoms: CB_5  and  OG1_6 
REMARK    5  A    between atoms: CB_5  and  CG2_7 
REMARK    6  A    between atoms: N_8  and  CA_9 
REMARK    7  A    between atoms: CA_9  and  C_10 
REMARK    8  A    between atoms: CA_9  and  CB_12 
REMARK       I    between atoms: C_10  and  N_15 
REMARK    9  A    between atoms: CB_12  and  OG1_13 
REMARK   10  A    between atoms: CB_12  and  CG2_14 
REMARK   11  A    between atoms: N_15  and  CA_16 
REMARK   12  A    between atoms: CA_16  and  C_17 
REMARK   13  A    between atoms: CA_16  and  CB_19 
REMARK       I    between atoms: C_17  and  N_20 
REMARK   14  A    between atoms: CA_21  and  C_22 
REMARK       I    between atoms: C_22  and  N_27 
REMARK   15  A    between atoms: N_27  and  CA_28 
REMARK   16  A    between atoms: CA_28  and  C_29 
REMARK   17  A    between atoms: CA_28  and  CB_31 
REMARK       I    between atoms: C_29  and  N_38 
REMARK   18  A    between atoms: CB_31  and  CG_32 
REMARK   19  A    between atoms: N_38  and  CA_39 
REMARK   20  A    between atoms: CA_39  and  C_40 
REMARK   21  A    between atoms: CA_39  and  CB_42 
REMARK       I    between atoms: C_40  and  N_46 
REMARK   22  A    between atoms: CB_42  and  CG_43 
REMARK   23  A    between atoms: CG_43  and  CD1_44 
REMARK   24  A    between atoms: CG_43  and  CD2_45 
REMARK   25  A    between atoms: N_46  and  CA_47 
REMARK   26  A    between atoms: CA_47  and  C_48 
REMARK   27  A    between atoms: CA_47  and  CB_50 
REMARK       I    between atoms: C_48  and  N_52 
REMARK   28  A    between atoms: CB_50  and  OG_51 
REMARK   29  A    between atoms: N_52  and  CA_53 
REMARK   30  A    between atoms: CA_53  and  C_54 
REMARK       I    between atoms: C_54  and  N_56 
REMARK   31  A    between atoms: N_56  and  CA_57 
REMARK   32  A    between atoms: CA_57  and  C_58 
REMARK   33  A    between atoms: CA_57  and  CB_60 
REMARK   34  A    between atoms: CB_60  and  CG_61 
REMARK   35  A    between atoms: CG_61  and  CD_62 
REMARK   36  A    between atoms: CD_62  and  CE_63 
REMARK   37  A    between atoms: CE_63  and  NZ_64 
ROOT
ATOM      1  CA  THR d   1      71.793   0.598  27.018  0.00  0.00     0.093 C 
ATOM      2  H30 THR d   1      71.285   1.352  26.398  0.00  0.00     0.088 H 
ENDROOT
BRANCH   1   3
ATOM      3  N   THR d   1      71.898   1.138  28.403  0.00  0.00    -0.346 N 
ATOM      4  C   THR d   1      70.990   0.997  29.368  0.00  0.00     0.241 C 
ATOM      5  O   THR d   1      69.859   0.651  29.224  0.00  0.00    -0.271 OA
ATOM      6  H29 THR d   1      72.725   1.653  28.629  0.00  0.00     0.163 HD
BRANCH   4   7
ATOM      7  CA  THR d   1      71.423   1.437  30.772  0.00  0.00     0.091 C 
ATOM      8  N   THR d   1      70.381   2.218  31.423  0.00  0.00    -0.337 N 
ATOM      9  C   THR d   1      70.041   3.426  30.952  0.00  0.00     0.243 C 
ATOM     10  CD  THR d   1      69.753   1.535  32.565  0.00  0.00    -0.001 C 
ATOM     11  O   THR d   1      70.706   4.002  30.088  0.00  0.00    -0.271 OA
ATOM     12  CG  THR d   1      70.303   0.130  32.490  0.00  0.00    -0.048 C 
ATOM     13  H27 THR d   1      68.657   1.533  32.466  0.00  0.00     0.064 H 
ATOM     14  H28 THR d   1      70.035   2.016  33.513  0.00  0.00     0.064 H 
ATOM     15  CB  THR d   1      71.589   0.216  31.683  0.00  0.00    -0.036 C 
ATOM     16  H25 THR d   1      70.512  -0.251  33.500  0.00  0.00     0.035 H 
ATOM     17  H26 THR d   1      69.583  -0.534  31.989  0.00  0.00     0.035 H 
ATOM     18  H23 THR d   1      72.453   0.350  32.351  0.00  0.00     0.036 H 
ATOM     19  H24 THR d   1      71.727  -0.695  31.082  0.00  0.00     0.036 H 
ATOM     20  H22 THR d   1      72.359   2.011  30.706  0.00  0.00     0.087 H 
BRANCH   9  21
ATOM     21  CA  THR d   1      68.818   4.070  31.568  0.00  0.00     0.086 C 
ATOM     22  H18 THR d   1      68.775   3.831  32.641  0.00  0.00     0.086 H 
BRANCH  21  23
ATOM     23  N   THR d   1      68.986   5.515  31.388  0.00  0.00    -0.346 N 
ATOM     24  C   THR d   1      69.607   6.287  32.255  0.00  0.00     0.243 C 
ATOM     25  O   THR d   1      70.118   5.896  33.346  0.00  0.00    -0.271 OA
ATOM     26  H17 THR d   1      68.609   5.937  30.563  0.00  0.00     0.163 HD
BRANCH  24  27
ATOM     27  CA  THR d   1      69.570   7.764  31.873  0.00  0.00     0.113 C 
ATOM     28  H11 THR d   1      68.560   7.989  31.499  0.00  0.00     0.091 H 
BRANCH  27  29
ATOM     29  N   THR d   1      69.810   8.592  33.061  0.00  0.00    -0.344 N 
ATOM     30  C   THR d   1      69.012   8.620  34.104  0.00  0.00     0.251 C 
ATOM     31  O   THR d   1      67.920   8.013  34.200  0.00  0.00    -0.271 OA
ATOM     32  H10 THR d   1      70.628   9.168  33.077  0.00  0.00     0.163 HD
BRANCH  30  33
ATOM     33  CA  THR d   1      69.527   9.480  35.252  0.00  0.00     0.199 C 
ATOM     34  H4  THR d   1      70.090  10.329  34.837  0.00  0.00     0.103 H 
BRANCH  33  35
ATOM     35  N   THR d   1      68.378  10.035  36.047  0.00  0.00    -0.064 N 
ATOM     36  H1  THR d   1      67.786  10.584  35.444  0.00  0.00     0.275 HD
ATOM     37  H2  THR d   1      68.733  10.617  36.789  0.00  0.00     0.275 HD
ATOM     38  H3  THR d   1      67.844   9.276  36.441  0.00  0.00     0.275 HD
ENDBRANCH  33  35
BRANCH  33  39
ATOM     39  CB  THR d   1      70.493   8.623  36.085  0.00  0.00     0.068 C 
ATOM     40  H5  THR d   1      71.097   8.001  35.408  0.00  0.00     0.086 H 
BRANCH  39  41
ATOM     41  OG1 THR d   1      69.706   7.799  36.937  0.00  0.00    -0.393 OA
ATOM     42  H6  THR d   1      70.278   7.255  37.467  0.00  0.00     0.210 HD
ENDBRANCH  39  41
BRANCH  39  43
ATOM     43  CG2 THR d   1      71.416   9.442  36.957  0.00  0.00    -0.050 C 
ATOM     44  H7  THR d   1      72.077   8.770  37.523  0.00  0.00     0.031 H 
ATOM     45  H8  THR d   1      70.820  10.045  37.657  0.00  0.00     0.031 H 
ATOM     46  H9  THR d   1      72.023  10.107  36.325  0.00  0.00     0.031 H 
ENDBRANCH  39  43
ENDBRANCH  33  39
ENDBRANCH  30  33
ENDBRANCH  27  29
BRANCH  27  47
ATOM     47  CB  THR d   1      70.558   8.102  30.761  0.00  0.00     0.060 C 
ATOM     48  H12 THR d   1      70.538   7.301  30.008  0.00  0.00     0.086 H 
BRANCH  47  49
ATOM     49  OG1 THR d   1      71.874   8.206  31.303  0.00  0.00    -0.393 OA
ATOM     50  H13 THR d   1      71.891   8.892  31.960  0.00  0.00     0.210 HD
ENDBRANCH  47  49
BRANCH  47  51
ATOM     51  CG2 THR d   1      70.187   9.407  30.103  0.00  0.00    -0.050 C 
ATOM     52  H14 THR d   1      70.909   9.634  29.305  0.00  0.00     0.031 H 
ATOM     53  H15 THR d   1      70.203  10.213  30.852  0.00  0.00     0.031 H 
ATOM     54  H16 THR d   1      69.178   9.327  29.672  0.00  0.00     0.031 H 
ENDBRANCH  47  51
ENDBRANCH  27  47
ENDBRANCH  24  27
ENDBRANCH  21  23
BRANCH  21  55
ATOM     55  CB  THR d   1      67.549   3.587  30.914  0.00  0.00    -0.049 C 
ATOM     56  H19 THR d   1      67.449   2.502  31.064  0.00  0.00     0.030 H 
ATOM     57  H20 THR d   1      67.585   3.806  29.837  0.00  0.00     0.030 H 
ATOM     58  H21 THR d   1      66.686   4.101  31.363  0.00  0.00     0.030 H 
ENDBRANCH  21  55
ENDBRANCH   9  21
ENDBRANCH   4   7
ENDBRANCH   1   3
BRANCH   1  59
ATOM     59  C   THR d   1      70.983  -0.710  26.946  0.00  0.00     0.241 C 
ATOM     60  O   THR d   1      71.094  -1.616  27.836  0.00  0.00    -0.271 OA
ATOM     61  N   THR d   1      70.209  -0.794  25.862  0.00  0.00    -0.346 N 
ATOM     62  H38 THR d   1      69.955   0.044  25.380  0.00  0.00     0.163 HD
BRANCH  61  63
ATOM     63  CA  THR d   1      69.717  -2.094  25.355  0.00  0.00     0.089 C 
ATOM     64  H39 THR d   1      69.732  -2.828  26.174  0.00  0.00     0.087 H 
BRANCH  63  65
ATOM     65  C   THR d   1      70.696  -2.531  24.258  0.00  0.00     0.241 C 
ATOM     66  O   THR d   1      71.310  -1.671  23.596  0.00  0.00    -0.271 OA
ATOM     67  N   THR d   1      70.845  -3.834  24.067  0.00  0.00    -0.344 N 
ATOM     68  H49 THR d   1      70.431  -4.470  24.718  0.00  0.00     0.163 HD
BRANCH  67  69
ATOM     69  CA  THR d   1      71.607  -4.378  22.916  0.00  0.00     0.109 C 
ATOM     70  H50 THR d   1      72.611  -3.930  22.933  0.00  0.00     0.090 H 
BRANCH  69  71
ATOM     71  C   THR d   1      70.929  -3.983  21.605  0.00  0.00     0.242 C 
ATOM     72  O   THR d   1      69.740  -3.538  21.597  0.00  0.00    -0.271 OA
ATOM     73  N   THR d   1      71.677  -4.183  20.531  0.00  0.00    -0.350 N 
ATOM     74  H54 THR d   1      72.552  -4.653  20.646  0.00  0.00     0.163 HD
BRANCH  73  75
ATOM     75  CA  THR d   1      71.293  -3.754  19.182  0.00  0.00     0.069 C 
ATOM     76  H55 THR d   1      72.056  -4.096  18.467  0.00  0.00     0.078 H 
ATOM     77  H56 THR d   1      71.236  -2.656  19.159  0.00  0.00     0.078 H 
BRANCH  75  78
ATOM     78  C   THR d   1      69.956  -4.323  18.782  0.00  0.00     0.236 C 
ATOM     79  O   THR d   1      69.520  -5.339  19.344  0.00  0.00    -0.272 OA
ATOM     80  N   THR d   1      69.293  -3.624  17.876  0.00  0.00    -0.345 N 
ATOM     81  H57 THR d   1      69.713  -2.797  17.502  0.00  0.00     0.163 HD
BRANCH  80  82
ATOM     82  CA  THR d   1      67.946  -4.024  17.395  0.00  0.00     0.096 C 
ATOM     83  H58 THR d   1      67.376  -4.463  18.227  0.00  0.00     0.089 H 
BRANCH  82  84
ATOM     84  C   THR d   1      68.120  -5.078  16.295  0.00  0.00     0.196 C 
ATOM     85  O   THR d   1      67.151  -5.792  15.940  0.00  0.00    -0.646 OA
ATOM     86  OXT THR d   1      69.261  -5.161  15.780  0.00  0.00    -0.646 OA
ENDBRANCH  82  84
BRANCH  82  87
ATOM     87  CB  THR d   1      67.197  -2.798  16.876  0.00  0.00    -0.037 C 
ATOM     88  H59 THR d   1      66.288  -3.140  16.359  0.00  0.00     0.036 H 
ATOM     89  H60 THR d   1      67.848  -2.270  16.163  0.00  0.00     0.036 H 
BRANCH  87  90
ATOM     90  CG  THR d   1      66.791  -1.826  17.961  0.00  0.00    -0.061 C 
ATOM     91  H61 THR d   1      67.686  -1.545  18.535  0.00  0.00     0.033 H 
ATOM     92  H62 THR d   1      66.070  -2.322  18.627  0.00  0.00     0.033 H 
BRANCH  90  93
ATOM     93  CD  THR d   1      66.163  -0.584  17.416  0.00  0.00    -0.043 C 
ATOM     94  H63 THR d   1      65.488  -0.852  16.590  0.00  0.00     0.035 H 
ATOM     95  H64 THR d   1      66.951   0.086  17.043  0.00  0.00     0.035 H 
BRANCH  93  96
ATOM     96  CE  THR d   1      65.374   0.127  18.491  0.00  0.00     0.080 C 
ATOM     97  H65 THR d   1      65.644  -0.295  19.470  0.00  0.00     0.075 H 
ATOM     98  H66 THR d   1      64.301  -0.029  18.308  0.00  0.00     0.075 H 
BRANCH  96  99
ATOM     99  NZ  THR d   1      65.652   1.578  18.502  0.00  0.00    -0.079 N 
ATOM    100  H67 THR d   1      65.110   2.018  19.229  0.00  0.00     0.274 HD
ATOM    101  H68 THR d   1      65.402   1.975  17.610  0.00  0.00     0.274 HD
ATOM    102  H69 THR d   1      66.633   1.731  18.675  0.00  0.00     0.274 HD
ENDBRANCH  96  99
ENDBRANCH  93  96
ENDBRANCH  90  93
ENDBRANCH  87  90
ENDBRANCH  82  87
ENDBRANCH  80  82
ENDBRANCH  75  78
ENDBRANCH  73  75
ENDBRANCH  69  71
BRANCH  69 103
ATOM    103  CB  THR d   1      71.768  -5.869  22.999  0.00  0.00     0.044 C 
ATOM    104  H51 THR d   1      72.321  -6.124  23.915  0.00  0.00     0.077 H 
ATOM    105  H52 THR d   1      72.329  -6.223  22.122  0.00  0.00     0.077 H 
BRANCH 103 106
ATOM    106  OG  THR d   1      70.500  -6.497  23.028  0.00  0.00    -0.398 OA
ATOM    107  H53 THR d   1      70.015  -6.194  23.786  0.00  0.00     0.209 HD
ENDBRANCH 103 106
ENDBRANCH  69 103
ENDBRANCH  67  69
ENDBRANCH  63  65
BRANCH  63 108
ATOM    108  CB  THR d   1      68.288  -2.014  24.809  0.00  0.00    -0.035 C 
ATOM    109  H40 THR d   1      68.011  -3.024  24.472  0.00  0.00     0.037 H 
ATOM    110  H41 THR d   1      68.306  -1.331  23.947  0.00  0.00     0.037 H 
BRANCH 108 111
ATOM    111  CG  THR d   1      67.180  -1.529  25.748  0.00  0.00    -0.059 C 
ATOM    112  H42 THR d   1      67.015  -0.461  25.544  0.00  0.00     0.038 H 
BRANCH 111 113
ATOM    113  CD1 THR d   1      65.890  -2.276  25.451  0.00  0.00    -0.073 C 
ATOM    114  H43 THR d   1      65.098  -1.924  26.128  0.00  0.00     0.028 H 
ATOM    115  H44 THR d   1      66.048  -3.354  25.601  0.00  0.00     0.028 H 
ATOM    116  H45 THR d   1      65.591  -2.091  24.409  0.00  0.00     0.028 H 
ENDBRANCH 111 113
BRANCH 111 117
ATOM    117  CD2 THR d   1      67.533  -1.665  27.221  0.00  0.00    -0.073 C 
ATOM    118  H46 THR d   1      68.467  -1.121  27.426  0.00  0.00     0.028 H 
ATOM    119  H47 THR d   1      67.665  -2.728  27.470  0.00  0.00     0.028 H 
ATOM    120  H48 THR d   1      66.722  -1.244  27.833  0.00  0.00     0.028 H 
ENDBRANCH 111 117
ENDBRANCH 108 111
ENDBRANCH  63 108
ENDBRANCH  61  63
ENDBRANCH   1  59
BRANCH   1 121
ATOM    121  CB  THR d   1      73.189   0.342  26.438  0.00  0.00    -0.014 C 
ATOM    122  H31 THR d   1      73.787   1.255  26.576  0.00  0.00     0.043 H 
ATOM    123  H32 THR d   1      73.078   0.135  25.363  0.00  0.00     0.043 H 
BRANCH 121 124
ATOM    124  CG  THR d   1      73.946  -0.815  27.064  0.00  0.00    -0.056 A 
ATOM    125  CD1 THR d   1      74.767  -0.620  28.169  0.00  0.00    -0.077 A 
ATOM    126  CE1 THR d   1      75.465  -1.678  28.734  0.00  0.00    -0.082 A 
ATOM    127  H33 THR d   1      74.863   0.372  28.595  0.00  0.00     0.084 H 
ATOM    128  CZ  THR d   1      75.358  -2.944  28.203  0.00  0.00    -0.083 A 
ATOM    129  H35 THR d   1      76.097  -1.507  29.598  0.00  0.00     0.083 H 
ATOM    130  CE2 THR d   1      74.560  -3.153  27.102  0.00  0.00    -0.082 A 
ATOM    131  H37 THR d   1      75.899  -3.771  28.649  0.00  0.00     0.083 H 
ATOM    132  CD2 THR d   1      73.860  -2.098  26.533  0.00  0.00    -0.077 A 
ATOM    133  H36 THR d   1      74.478  -4.147  26.677  0.00  0.00     0.083 H 
ATOM    134  H34 THR d   1      73.238  -2.276  25.663  0.00  0.00     0.084 H 
ENDBRANCH 121 124
ENDBRANCH   1 121
TORSDOF 37
