REMARK  5 active torsions:
REMARK  status: ('A' for Active; 'I' for Inactive)
REMARK    1  A    between atoms: N12_19  and  C13_5 
REMARK    2  A    between atoms: C16_6  and  S17_25 
REMARK    3  A    between atoms: C10_15  and  C11_9 
REMARK       I    between atoms: C11_9  and  N12_19 
REMARK    4  A    between atoms: C10_15  and  N9_17 
REMARK    5  A    between atoms: S17_25  and  N19_18 
ROOT
ATOM      1  C10 M8J d   1       0.295   7.990  82.256  0.00  0.00     0.081 C 
ATOM      2  H13 M8J d   1       0.712   7.303  81.504  0.00  0.00     0.079 H 
ATOM      3  H14 M8J d   1       1.019   8.123  83.073  0.00  0.00     0.079 H 
ENDROOT
BRANCH   1   4
ATOM      4  C11 M8J d   1      -0.943   7.319  82.849  0.00  0.00     0.240 C 
ATOM      5  N12 M8J d   1      -0.390   6.361  83.623  0.00  0.00    -0.326 N 
ATOM      6  H18 M8J d   1       0.609   6.358  83.678  0.00  0.00     0.169 HD
ATOM      7  O23 M8J d   1      -2.151   7.506  82.679  0.00  0.00    -0.271 OA
BRANCH   5   8
ATOM      8  C13 M8J d   1      -1.051   5.376  84.354  0.00  0.00     0.034 A 
ATOM      9  C14 M8J d   1      -2.394   5.392  84.654  0.00  0.00    -0.056 A 
ATOM     10  C15 M8J d   1      -2.922   4.348  85.386  0.00  0.00    -0.058 A 
ATOM     11  H1  M8J d   1      -3.025   6.209  84.322  0.00  0.00     0.087 H 
ATOM     12  C16 M8J d   1      -2.094   3.321  85.812  0.00  0.00     0.079 A 
ATOM     13  H3  M8J d   1      -3.979   4.331  85.627  0.00  0.00     0.086 H 
ATOM     14  C21 M8J d   1      -0.745   3.333  85.501  0.00  0.00    -0.058 A 
ATOM     15  C22 M8J d   1      -0.217   4.366  84.767  0.00  0.00    -0.056 A 
ATOM     16  H4  M8J d   1      -0.105   2.526  85.838  0.00  0.00     0.086 H 
ATOM     17  H2  M8J d   1       0.838   4.384  84.518  0.00  0.00     0.087 H 
BRANCH  12  18
ATOM     18  S17 M8J d   1      -2.765   1.976  86.768  0.00  0.00     0.256 S 
ATOM     19  O18 M8J d   1      -2.204   2.126  88.084  0.00  0.00    -0.201 OA
ATOM     20  O20 M8J d   1      -4.202   2.077  86.646  0.00  0.00    -0.201 OA
BRANCH  18  21
ATOM     21  N19 M8J d   1      -2.226   0.577  86.076  0.00  0.00    -0.324 N 
ATOM     22  H16 M8J d   1      -2.490  -0.306  86.463  0.00  0.00     0.169 HD
ATOM     23  H17 M8J d   1      -1.635   0.613  85.270  0.00  0.00     0.169 HD
ENDBRANCH  18  21
ENDBRANCH  12  18
ENDBRANCH   5   8
ENDBRANCH   1   4
BRANCH   1  24
ATOM     24  N9  M8J d   1       0.126   9.271  81.620  0.00  0.00    -0.259 N 
ATOM     25  C2  M8J d   1      -0.697   9.428  80.551  0.00  0.00     0.256 C 
ATOM     26  C3  M8J d   1      -1.005  10.863  80.419  0.00  0.00     0.116 C 
ATOM     27  O1  M8J d   1      -1.141   8.560  79.825  0.00  0.00    -0.270 OA
ATOM     28  C4  M8J d   1      -0.820  11.427  79.040  0.00  0.00    -0.033 C 
ATOM     29  C7  M8J d   1      -2.451  11.182  80.716  0.00  0.00    -0.033 C 
ATOM     30  N8  M8J d   1      -0.043  11.406  81.336  0.00  0.00    -0.324 N 
ATOM     31  C5  M8J d   1      -1.454  12.778  79.210  0.00  0.00    -0.062 C 
ATOM     32  H9  M8J d   1       0.244  11.508  78.774  0.00  0.00     0.037 H 
ATOM     33  H10 M8J d   1      -1.343  10.825  78.282  0.00  0.00     0.037 H 
ATOM     34  C6  M8J d   1      -2.499  12.629  80.299  0.00  0.00    -0.062 C 
ATOM     35  H5  M8J d   1      -0.697  13.518  79.508  0.00  0.00     0.033 H 
ATOM     36  H6  M8J d   1      -1.928  13.097  78.270  0.00  0.00     0.033 H 
ATOM     37  H7  M8J d   1      -3.496  12.883  79.911  0.00  0.00     0.033 H 
ATOM     38  H8  M8J d   1      -2.260  13.282  81.151  0.00  0.00     0.033 H 
ATOM     39  H11 M8J d   1      -3.135  10.563  80.117  0.00  0.00     0.037 H 
ATOM     40  H12 M8J d   1      -2.684  11.058  81.784  0.00  0.00     0.037 H 
ATOM     41  C24 M8J d   1       0.510  10.471  82.155  0.00  0.00     0.326 C 
ATOM     42  H15 M8J d   1       0.197  12.376  81.369  0.00  0.00     0.165 HD
ATOM     43  O25 M8J d   1       1.183  10.663  83.158  0.00  0.00    -0.247 OA
ENDBRANCH   1  24
TORSDOF 5
