REMARK  5 active torsions:
REMARK  status: ('A' for Active; 'I' for Inactive)
REMARK    1  A    between atoms: N14_21  and  C15_5 
REMARK    2  A    between atoms: C18_6  and  S19_27 
REMARK    3  A    between atoms: C12_17  and  C13_9 
REMARK       I    between atoms: C13_9  and  N14_21 
REMARK    4  A    between atoms: C12_17  and  N11_19 
REMARK    5  A    between atoms: S19_27  and  N21_20 
ROOT
ATOM      1  C2  M8S d   1      -2.904   9.750  80.288  0.00  0.00     0.256 A 
ATOM      2  C26 M8S d   1      -2.275   7.686  79.546  0.00  0.00     0.326 A 
ATOM      3  C6  M8S d   1      -6.342  10.960  77.543  0.00  0.00    -0.065 C 
ATOM      4  C7  M8S d   1      -5.188  11.716  76.955  0.00  0.00    -0.065 C 
ATOM      5  C5  M8S d   1      -5.912   9.558  77.895  0.00  0.00    -0.062 C 
ATOM      6  C8  M8S d   1      -3.987  11.890  77.850  0.00  0.00    -0.062 C 
ATOM      7  C4  M8S d   1      -5.071   9.471  79.153  0.00  0.00    -0.033 C 
ATOM      8  C9  M8S d   1      -3.121  10.667  78.017  0.00  0.00    -0.033 C 
ATOM      9  C3  M8S d   1      -3.587   9.592  78.981  0.00  0.00     0.116 A 
ATOM     10  N10 M8S d   1      -3.139   8.260  78.646  0.00  0.00    -0.324 N 
ATOM     11  N11 M8S d   1      -2.085   8.660  80.516  0.00  0.00    -0.259 N 
ATOM     12  O1  M8S d   1      -3.021  10.741  80.996  0.00  0.00    -0.270 OA
ATOM     13  O27 M8S d   1      -1.742   6.580  79.449  0.00  0.00    -0.247 OA
ATOM     14  H5  M8S d   1      -7.161  10.917  76.810  0.00  0.00     0.033 H 
ATOM     15  H6  M8S d   1      -6.689  11.474  78.451  0.00  0.00     0.033 H 
ATOM     16  H7  M8S d   1      -5.548  12.717  76.677  0.00  0.00     0.033 H 
ATOM     17  H8  M8S d   1      -4.860  11.181  76.052  0.00  0.00     0.033 H 
ATOM     18  H9  M8S d   1      -5.324   9.155  77.057  0.00  0.00     0.033 H 
ATOM     19  H10 M8S d   1      -6.814   8.945  78.038  0.00  0.00     0.033 H 
ATOM     20  H11 M8S d   1      -4.346  12.190  78.846  0.00  0.00     0.033 H 
ATOM     21  H12 M8S d   1      -3.363  12.692  77.429  0.00  0.00     0.033 H 
ATOM     22  H13 M8S d   1      -5.274   8.497  79.623  0.00  0.00     0.037 H 
ATOM     23  H14 M8S d   1      -5.395  10.278  79.827  0.00  0.00     0.037 H 
ATOM     24  H15 M8S d   1      -2.134  11.009  78.361  0.00  0.00     0.037 H 
ATOM     25  H16 M8S d   1      -3.022  10.198  77.027  0.00  0.00     0.037 H 
ATOM     26  H19 M8S d   1      -3.437   7.789  77.816  0.00  0.00     0.165 HD
ENDROOT
BRANCH  11  27
ATOM     27  C12 M8S d   1      -1.386   8.368  81.756  0.00  0.00     0.081 C 
ATOM     28  H17 M8S d   1      -0.403   7.933  81.523  0.00  0.00     0.079 H 
ATOM     29  H18 M8S d   1      -1.249   9.301  82.322  0.00  0.00     0.079 H 
BRANCH  27  30
ATOM     30  C13 M8S d   1      -2.195   7.368  82.612  0.00  0.00     0.240 C 
ATOM     31  N14 M8S d   1      -1.390   6.645  83.491  0.00  0.00    -0.326 N 
ATOM     32  H22 M8S d   1      -0.435   6.932  83.567  0.00  0.00     0.169 HD
ATOM     33  O25 M8S d   1      -3.410   7.272  82.472  0.00  0.00    -0.271 OA
BRANCH  31  34
ATOM     34  C15 M8S d   1      -1.799   5.524  84.301  0.00  0.00     0.034 A 
ATOM     35  C16 M8S d   1      -0.869   4.553  84.636  0.00  0.00    -0.056 A 
ATOM     36  C17 M8S d   1      -1.245   3.437  85.392  0.00  0.00    -0.058 A 
ATOM     37  H1  M8S d   1       0.159   4.659  84.309  0.00  0.00     0.087 H 
ATOM     38  C18 M8S d   1      -2.546   3.353  85.815  0.00  0.00     0.079 A 
ATOM     39  H3  M8S d   1      -0.528   2.661  85.636  0.00  0.00     0.086 H 
ATOM     40  C23 M8S d   1      -3.439   4.330  85.491  0.00  0.00    -0.058 A 
ATOM     41  C24 M8S d   1      -3.088   5.423  84.741  0.00  0.00    -0.056 A 
ATOM     42  H4  M8S d   1      -4.462   4.240  85.838  0.00  0.00     0.086 H 
ATOM     43  H2  M8S d   1      -3.817   6.189  84.503  0.00  0.00     0.087 H 
BRANCH  38  44
ATOM     44  S19 M8S d   1      -3.103   1.959  86.758  0.00  0.00     0.256 S 
ATOM     45  O20 M8S d   1      -2.670   2.040  88.118  0.00  0.00    -0.201 OA
ATOM     46  O22 M8S d   1      -4.565   2.049  86.655  0.00  0.00    -0.201 OA
BRANCH  44  47
ATOM     47  N21 M8S d   1      -2.493   0.552  86.113  0.00  0.00    -0.324 N 
ATOM     48  H20 M8S d   1      -2.716  -0.328  86.532  0.00  0.00     0.169 HD
ATOM     49  H21 M8S d   1      -1.904   0.586  85.306  0.00  0.00     0.169 HD
ENDBRANCH  44  47
ENDBRANCH  38  44
ENDBRANCH  31  34
ENDBRANCH  27  30
ENDBRANCH  11  27
TORSDOF 5
