REMARK  5 active torsions:
REMARK  status: ('A' for Active; 'I' for Inactive)
REMARK    1  A    between atoms: N13_20  and  C14_5 
REMARK    2  A    between atoms: C17_6  and  S18_26 
REMARK    3  A    between atoms: C11_16  and  C12_9 
REMARK       I    between atoms: C12_9  and  N13_20 
REMARK    4  A    between atoms: C11_16  and  N10_18 
REMARK    5  A    between atoms: S18_26  and  N20_19 
ROOT
ATOM      1  C2  M8V d   1      -0.365   9.476  80.488  0.00  0.00     0.256 A 
ATOM      2  C25 M8V d   1       0.741  10.549  82.130  0.00  0.00     0.326 A 
ATOM      3  C7  M8V d   1      -2.097  13.090  78.970  0.00  0.00    -0.065 C 
ATOM      4  C6  M8V d   1      -2.596  12.570  80.323  0.00  0.00    -0.062 C 
ATOM      5  C8  M8V d   1      -0.570  12.900  78.782  0.00  0.00    -0.062 C 
ATOM      6  C5  M8V d   1      -2.252  11.091  80.505  0.00  0.00    -0.033 C 
ATOM      7  C9  M8V d   1      -0.269  11.407  78.896  0.00  0.00    -0.033 C 
ATOM      8  C3  M8V d   1      -0.738  10.920  80.296  0.00  0.00     0.116 A 
ATOM      9  N4  M8V d   1       0.084  11.441  81.373  0.00  0.00    -0.324 N 
ATOM     10  N10 M8V d   1       0.442   9.332  81.580  0.00  0.00    -0.259 N 
ATOM     11  O1  M8V d   1      -0.789   8.597  79.760  0.00  0.00    -0.270 OA
ATOM     12  O26 M8V d   1       1.439  10.739  83.115  0.00  0.00    -0.247 OA
ATOM     13  H5  M8V d   1      -2.330  14.163  78.898  0.00  0.00     0.033 H 
ATOM     14  H6  M8V d   1      -2.620  12.547  78.169  0.00  0.00     0.033 H 
ATOM     15  H7  M8V d   1      -3.688  12.694  80.375  0.00  0.00     0.033 H 
ATOM     16  H8  M8V d   1      -2.122  13.151  81.128  0.00  0.00     0.033 H 
ATOM     17  H9  M8V d   1      -0.025  13.452  79.562  0.00  0.00     0.033 H 
ATOM     18  H10 M8V d   1      -0.266  13.269  77.791  0.00  0.00     0.033 H 
ATOM     19  H11 M8V d   1      -2.800  10.488  79.766  0.00  0.00     0.037 H 
ATOM     20  H12 M8V d   1      -2.527  10.767  81.520  0.00  0.00     0.037 H 
ATOM     21  H13 M8V d   1       0.812  11.236  78.786  0.00  0.00     0.037 H 
ATOM     22  H14 M8V d   1      -0.809  10.858  78.111  0.00  0.00     0.037 H 
ATOM     23  H17 M8V d   1       0.158  12.424  81.544  0.00  0.00     0.165 HD
ENDROOT
BRANCH  10  24
ATOM     24  C11 M8V d   1       0.865   8.009  82.093  0.00  0.00     0.081 C 
ATOM     25  H15 M8V d   1       1.177   7.377  81.249  0.00  0.00     0.079 H 
ATOM     26  H16 M8V d   1       1.711   8.143  82.784  0.00  0.00     0.079 H 
BRANCH  24  27
ATOM     27  C12 M8V d   1      -0.325   7.303  82.859  0.00  0.00     0.240 C 
ATOM     28  N13 M8V d   1       0.212   6.196  83.358  0.00  0.00    -0.326 N 
ATOM     29  H20 M8V d   1       1.186   6.012  83.226  0.00  0.00     0.169 HD
ATOM     30  O24 M8V d   1      -1.487   7.680  82.852  0.00  0.00    -0.271 OA
BRANCH  28  31
ATOM     31  C14 M8V d   1      -0.604   5.256  84.091  0.00  0.00     0.034 A 
ATOM     32  C15 M8V d   1       0.168   4.223  84.564  0.00  0.00    -0.056 A 
ATOM     33  C16 M8V d   1      -0.462   3.227  85.273  0.00  0.00    -0.058 A 
ATOM     34  H1  M8V d   1       1.237   4.194  84.385  0.00  0.00     0.087 H 
ATOM     35  C17 M8V d   1      -1.811   3.272  85.594  0.00  0.00     0.079 A 
ATOM     36  H3  M8V d   1       0.120   2.371  85.594  0.00  0.00     0.086 H 
ATOM     37  C22 M8V d   1      -2.612   4.341  85.127  0.00  0.00    -0.058 A 
ATOM     38  C23 M8V d   1      -1.973   5.349  84.367  0.00  0.00    -0.056 A 
ATOM     39  H4  M8V d   1      -3.673   4.386  85.343  0.00  0.00     0.086 H 
ATOM     40  H2  M8V d   1      -2.544   6.194  83.998  0.00  0.00     0.087 H 
BRANCH  35  41
ATOM     41  S18 M8V d   1      -2.560   1.975  86.549  0.00  0.00     0.256 S 
ATOM     42  O19 M8V d   1      -2.014   2.132  87.886  0.00  0.00    -0.201 OA
ATOM     43  O21 M8V d   1      -3.983   2.114  86.403  0.00  0.00    -0.201 OA
BRANCH  41  44
ATOM     44  N20 M8V d   1      -2.070   0.552  85.939  0.00  0.00    -0.324 N 
ATOM     45  H18 M8V d   1      -2.389  -0.303  86.347  0.00  0.00     0.169 HD
ATOM     46  H19 M8V d   1      -1.450   0.531  85.155  0.00  0.00     0.169 HD
ENDBRANCH  41  44
ENDBRANCH  35  41
ENDBRANCH  28  31
ENDBRANCH  24  27
ENDBRANCH  10  24
TORSDOF 5
