REMARK  15 active torsions:
REMARK  status: ('A' for Active; 'I' for Inactive)
REMARK    1  A    between atoms: CAR_9  and  CAQ_8 
REMARK    2  A    between atoms: CAS_10  and  CAR_9 
REMARK    3  A    between atoms: CAT_11  and  CAS_10 
REMARK    4  A    between atoms: CAU_12  and  CAT_11 
REMARK    5  A    between atoms: CAV_13  and  CAU_12 
REMARK    6  A    between atoms: CAW_14  and  CAV_13 
REMARK    7  A    between atoms: CAX_15  and  CAW_14 
REMARK    8  A    between atoms: CAY_16  and  CAX_15 
REMARK    9  A    between atoms: CAZ_17  and  CAY_16 
REMARK   10  A    between atoms: CBA_18  and  CAZ_17 
REMARK   11  A    between atoms: CBB_19  and  CBA_18 
REMARK   12  A    between atoms: OBC_27  and  CBB_19 
REMARK   13  A    between atoms: CBG_23  and  CBD_20 
REMARK   14  A    between atoms: CBG_23  and  OBC_27 
REMARK   15  A    between atoms: CBG_23  and  PBH_28 
ROOT
ATOM      1  CAZ MFJ d   1     -70.930  37.214 -40.969  0.00  0.00    -0.105 C 
ATOM      2  H27 MFJ d   1     -70.681  37.089 -39.916  0.00  0.00     0.076 H 
ENDROOT
BRANCH   1   3
ATOM      3  CAY MFJ d   1     -70.352  38.371 -41.720  0.00  0.00    -0.050 C 
ATOM      4  H25 MFJ d   1     -71.209  38.941 -42.108  0.00  0.00     0.038 H 
ATOM      5  H26 MFJ d   1     -69.813  38.978 -40.977  0.00  0.00     0.038 H 
BRANCH   3   6
ATOM      6  CAX MFJ d   1     -69.408  38.196 -42.880  0.00  0.00    -0.062 C 
ATOM      7  H23 MFJ d   1     -69.900  38.667 -43.744  0.00  0.00     0.033 H 
ATOM      8  H24 MFJ d   1     -68.502  38.763 -42.620  0.00  0.00     0.033 H 
BRANCH   6   9
ATOM      9  CAW MFJ d   1     -68.933  36.857 -43.357  0.00  0.00    -0.065 C 
ATOM     10  H21 MFJ d   1     -68.368  36.389 -42.537  0.00  0.00     0.033 H 
ATOM     11  H22 MFJ d   1     -69.820  36.248 -43.586  0.00  0.00     0.033 H 
BRANCH   9  12
ATOM     12  CAV MFJ d   1     -68.048  36.865 -44.583  0.00  0.00    -0.065 C 
ATOM     13  H19 MFJ d   1     -67.339  37.699 -44.472  0.00  0.00     0.033 H 
ATOM     14  H20 MFJ d   1     -67.496  35.913 -44.597  0.00  0.00     0.033 H 
BRANCH  12  15
ATOM     15  CAU MFJ d   1     -68.717  37.018 -45.925  0.00  0.00    -0.065 C 
ATOM     16  H17 MFJ d   1     -69.801  37.008 -45.739  0.00  0.00     0.033 H 
ATOM     17  H18 MFJ d   1     -68.421  38.004 -46.314  0.00  0.00     0.033 H 
BRANCH  15  18
ATOM     18  CAT MFJ d   1     -68.458  36.019 -47.034  0.00  0.00    -0.065 C 
ATOM     19  H15 MFJ d   1     -69.435  35.604 -47.323  0.00  0.00     0.033 H 
ATOM     20  H16 MFJ d   1     -68.035  36.584 -47.878  0.00  0.00     0.033 H 
BRANCH  18  21
ATOM     21  CAS MFJ d   1     -67.542  34.847 -46.791  0.00  0.00    -0.065 C 
ATOM     22  H13 MFJ d   1     -66.516  35.198 -46.976  0.00  0.00     0.033 H 
ATOM     23  H14 MFJ d   1     -67.649  34.571 -45.732  0.00  0.00     0.033 H 
BRANCH  21  24
ATOM     24  CAR MFJ d   1     -67.725  33.595 -47.589  0.00  0.00    -0.069 C 
ATOM     25  H11 MFJ d   1     -67.626  33.896 -48.642  0.00  0.00     0.032 H 
ATOM     26  H12 MFJ d   1     -66.884  32.941 -47.314  0.00  0.00     0.032 H 
BRANCH  24  27
ATOM     27  CAQ MFJ d   1     -68.949  32.729 -47.528  0.00  0.00    -0.077 C 
ATOM     28  H8  MFJ d   1     -68.828  31.875 -48.210  0.00  0.00     0.027 H 
ATOM     29  H9  MFJ d   1     -69.829  33.316 -47.829  0.00  0.00     0.027 H 
ATOM     30  H10 MFJ d   1     -69.087  32.361 -46.501  0.00  0.00     0.027 H 
ENDBRANCH  24  27
ENDBRANCH  21  24
ENDBRANCH  18  21
ENDBRANCH  15  18
ENDBRANCH  12  15
ENDBRANCH   9  12
ENDBRANCH   6   9
ENDBRANCH   3   6
ENDBRANCH   1   3
BRANCH   1  31
ATOM     31  CBA MFJ d   1     -71.834  36.231 -41.620  0.00  0.00    -0.084 C 
ATOM     32  H28 MFJ d   1     -72.126  36.342 -42.663  0.00  0.00     0.079 H 
BRANCH  31  33
ATOM     33  CBB MFJ d   1     -72.332  35.079 -40.793  0.00  0.00     0.036 C 
ATOM     34  H29 MFJ d   1     -73.123  34.586 -41.377  0.00  0.00     0.080 H 
ATOM     35  H30 MFJ d   1     -72.766  35.508 -39.878  0.00  0.00     0.080 H 
BRANCH  33  36
ATOM     36  OBC MFJ d   1     -71.461  34.098 -40.397  0.00  0.00    -0.364 OA
BRANCH  36  37
ATOM     37  CBG MFJ d   1     -71.300  32.990 -41.168  0.00  0.00     0.172 C 
ATOM     38  H31 MFJ d   1     -72.263  32.461 -41.215  0.00  0.00     0.113 H 
BRANCH  37  39
ATOM     39  CBD MFJ d   1     -70.938  33.378 -42.577  0.00  0.00    -0.005 A 
ATOM     40  CAH MFJ d   1     -69.606  33.437 -42.896  0.00  0.00    -0.073 A 
ATOM     41  CAG MFJ d   1     -69.143  33.738 -44.150  0.00  0.00    -0.082 A 
ATOM     42  H4  MFJ d   1     -68.881  33.235 -42.115  0.00  0.00     0.084 H 
ATOM     43  CAJ MFJ d   1     -70.090  34.053 -45.086  0.00  0.00    -0.072 A 
ATOM     44  H3  MFJ d   1     -68.085  33.727 -44.387  0.00  0.00     0.083 H 
ATOM     45  CBE MFJ d   1     -71.458  34.022 -44.846  0.00  0.00    -0.025 A 
ATOM     46  H6  MFJ d   1     -69.753  34.344 -46.074  0.00  0.00     0.084 H 
ATOM     47  CAI MFJ d   1     -72.311  34.345 -45.920  0.00  0.00    -0.072 A 
ATOM     48  CBF MFJ d   1     -71.906  33.694 -43.612  0.00  0.00    -0.016 A 
ATOM     49  CAE MFJ d   1     -73.680  34.335 -45.701  0.00  0.00    -0.082 A 
ATOM     50  H5  MFJ d   1     -71.907  34.595 -46.894  0.00  0.00     0.084 H 
ATOM     51  CAF MFJ d   1     -74.167  34.012 -44.445  0.00  0.00    -0.082 A 
ATOM     52  H1  MFJ d   1     -74.364  34.578 -46.506  0.00  0.00     0.083 H 
ATOM     53  CAK MFJ d   1     -73.314  33.709 -43.401  0.00  0.00    -0.072 A 
ATOM     54  H2  MFJ d   1     -75.238  33.997 -44.278  0.00  0.00     0.083 H 
ATOM     55  H7  MFJ d   1     -73.717  33.483 -42.421  0.00  0.00     0.084 H 
ENDBRANCH  37  39
BRANCH  37  56
ATOM     56  PBH MFJ d   1     -70.099  31.871 -40.359  0.00  0.00     0.294 P 
ATOM     57  OAB MFJ d   1     -68.718  32.023 -40.853  0.00  0.00    -0.638 OA
ATOM     58  OAC MFJ d   1     -70.074  32.247 -38.931  0.00  0.00    -0.638 OA
ATOM     59  OAD MFJ d   1     -70.346  30.320 -40.281  0.00  0.00    -0.638 OA
ENDBRANCH  37  56
ENDBRANCH  36  37
ENDBRANCH  33  36
ENDBRANCH  31  33
ENDBRANCH   1  31
TORSDOF 15
