REMARK  6 active torsions:
REMARK  status: ('A' for Active; 'I' for Inactive)
REMARK    1  A    between atoms: N_1  and  CA_2 
REMARK    2  A    between atoms: CA_2  and  C_3 
REMARK    3  A    between atoms: CA_2  and  CB_5 
REMARK    4  A    between atoms: CB_5  and  CG_6 
REMARK    5  A    between atoms: CG_6  and  SD_7 
REMARK    6  A    between atoms: SD_7  and  CE_8 
ROOT
ATOM      1  CB  MET d   1      50.476  -8.893 -33.219  0.00  0.00    -0.021 C 
ATOM      2  H5  MET d   1      51.572  -8.944 -33.291  0.00  0.00     0.037 H 
ATOM      3  H6  MET d   1      50.148  -7.851 -33.348  0.00  0.00     0.037 H 
ENDROOT
BRANCH   1   4
ATOM      4  CA  MET d   1      50.066  -9.355 -31.838  0.00  0.00     0.183 C 
ATOM      5  H4  MET d   1      48.968  -9.359 -31.772  0.00  0.00     0.101 H 
BRANCH   4   6
ATOM      6  N   MET d   1      50.611  -8.457 -30.795  0.00  0.00    -0.065 N 
ATOM      7  H1  MET d   1      50.267  -7.521 -30.944  0.00  0.00     0.275 HD
ATOM      8  H2  MET d   1      51.618  -8.457 -30.845  0.00  0.00     0.275 HD
ATOM      9  H3  MET d   1      50.319  -8.781 -29.886  0.00  0.00     0.275 HD
ENDBRANCH   4   6
BRANCH   4  10
ATOM     10  C   MET d   1      50.588 -10.748 -31.603  0.00  0.00     0.204 C 
ATOM     11  O   MET d   1      49.879 -11.744 -31.766  0.00  0.00    -0.646 OA
ATOM     12  OXT MET d   1      51.766 -10.897 -31.211  0.00  0.00    -0.646 OA
ENDBRANCH   4  10
ENDBRANCH   1   4
BRANCH   1  13
ATOM     13  CG  MET d   1      49.889  -9.717 -34.333  0.00  0.00    -0.021 C 
ATOM     14  H7  MET d   1      48.792  -9.646 -34.292  0.00  0.00     0.049 H 
ATOM     15  H8  MET d   1      50.194 -10.766 -34.203  0.00  0.00     0.049 H 
BRANCH  13  16
ATOM     16  SD  MET d   1      50.459  -9.132 -35.955  0.00  0.00    -0.173 SA
BRANCH  16  17
ATOM     17  CE  MET d   1      49.681  -7.525 -36.059  0.00  0.00    -0.035 C 
ATOM     18  H9  MET d   1      49.949  -7.049 -37.014  0.00  0.00     0.041 H 
ATOM     19  H10 MET d   1      50.027  -6.895 -35.226  0.00  0.00     0.041 H 
ATOM     20  H11 MET d   1      48.589  -7.642 -36.001  0.00  0.00     0.041 H 
ENDBRANCH  16  17
ENDBRANCH  13  16
ENDBRANCH   1  13
TORSDOF 6
