REMARK  13 active torsions:
REMARK  status: ('A' for Active; 'I' for Inactive)
REMARK    1  A    between atoms: C6_3  and  N6_13 
REMARK    2  A    between atoms: C8_4  and  CAL_15 
REMARK    3  A    between atoms: CAF_8  and  CAA_7 
REMARK    4  A    between atoms: CAG_9  and  CAF_8 
REMARK    5  A    between atoms: CAK_10  and  CAG_9 
REMARK    6  A    between atoms: CAK_10  and  N9_11 
REMARK    7  A    between atoms: CAL_15  and  CAS_16 
REMARK    8  A    between atoms: CAU_19  and  OAP_20 
REMARK    9  A    between atoms: OAP_20  and  CAB_21 
REMARK   10  A    between atoms: CAX_22  and  OAR_23 
REMARK   11  A    between atoms: OAR_23  and  CAD_24 
REMARK   12  A    between atoms: CAV_25  and  OAQ_26 
REMARK   13  A    between atoms: OAQ_26  and  CAC_27 
ROOT
ATOM      1  C4  KFY d   1       0.752  10.288  25.587  0.00  0.00     0.165 A 
ATOM      2  C5  KFY d   1      -0.051  10.997  24.757  0.00  0.00     0.150 A 
ATOM      3  C6  KFY d   1      -1.365  11.149  25.099  0.00  0.00     0.155 A 
ATOM      4  C8  KFY d   1       1.941  10.936  23.927  0.00  0.00     0.113 A 
ATOM      5  N1  KFY d   1      -1.812  10.623  26.244  0.00  0.00    -0.222 NA
ATOM      6  N3  KFY d   1       0.338   9.732  26.744  0.00  0.00    -0.222 NA
ATOM      7  N9  KFY d   1       1.976  10.242  25.054  0.00  0.00    -0.317 N 
ATOM      8  C2  KFY d   1      -0.987   9.915  27.101  0.00  0.00     0.091 A 
ATOM      9  N7  KFY d   1       0.706  11.399  23.710  0.00  0.00    -0.227 NA
ATOM     10  H10 KFY d   1      -1.370   9.512  28.032  0.00  0.00     0.146 H 
ENDROOT
BRANCH   4  11
ATOM     11  CAL KFY d   1       3.142  11.143  22.987  0.00  0.00     0.014 C 
ATOM     12  H13 KFY d   1       2.815  11.769  22.144  0.00  0.00     0.051 H 
ATOM     13  H14 KFY d   1       3.458  10.159  22.611  0.00  0.00     0.051 H 
BRANCH  11  14
ATOM     14  CAS KFY d   1       4.287  11.780  23.606  0.00  0.00    -0.046 A 
ATOM     15  CAJ KFY d   1       5.556  11.249  23.352  0.00  0.00    -0.041 A 
ATOM     16  CAV KFY d   1       6.684  11.842  23.916  0.00  0.00     0.104 A 
ATOM     17  H15 KFY d   1       5.662  10.377  22.717  0.00  0.00     0.088 H 
ATOM     18  CAX KFY d   1       6.559  12.953  24.715  0.00  0.00     0.135 A 
ATOM     19  CAU KFY d   1       5.309  13.497  24.997  0.00  0.00     0.104 A 
ATOM     20  CAI KFY d   1       4.170  12.910  24.435  0.00  0.00    -0.041 A 
ATOM     21  H16 KFY d   1       3.191  13.329  24.640  0.00  0.00     0.088 H 
BRANCH  16  22
ATOM     22  OAQ KFY d   1       7.974  11.400  23.717  0.00  0.00    -0.353 OA
BRANCH  22  23
ATOM     23  CAC KFY d   1       8.095  10.348  22.745  0.00  0.00     0.010 C 
ATOM     24  H23 KFY d   1       9.152  10.057  22.649  0.00  0.00     0.066 H 
ATOM     25  H24 KFY d   1       7.723  10.703  21.773  0.00  0.00     0.066 H 
ATOM     26  H25 KFY d   1       7.503   9.479  23.069  0.00  0.00     0.066 H 
ENDBRANCH  22  23
ENDBRANCH  16  22
BRANCH  18  27
ATOM     27  OAR KFY d   1       7.732  13.459  25.255  0.00  0.00    -0.351 OA
BRANCH  27  28
ATOM     28  CAD KFY d   1       8.018  14.820  24.936  0.00  0.00     0.011 C 
ATOM     29  H20 KFY d   1       8.964  15.117  25.412  0.00  0.00     0.067 H 
ATOM     30  H21 KFY d   1       7.205  15.462  25.305  0.00  0.00     0.067 H 
ATOM     31  H22 KFY d   1       8.106  14.930  23.845  0.00  0.00     0.067 H 
ENDBRANCH  27  28
ENDBRANCH  18  27
BRANCH  19  32
ATOM     32  OAP KFY d   1       5.280  14.592  25.827  0.00  0.00    -0.353 OA
BRANCH  32  33
ATOM     33  CAB KFY d   1       4.077  15.345  25.795  0.00  0.00     0.010 C 
ATOM     34  H17 KFY d   1       4.157  16.194  26.490  0.00  0.00     0.066 H 
ATOM     35  H18 KFY d   1       3.235  14.704  26.094  0.00  0.00     0.066 H 
ATOM     36  H19 KFY d   1       3.907  15.721  24.776  0.00  0.00     0.066 H 
ENDBRANCH  32  33
ENDBRANCH  19  32
ENDBRANCH  11  14
ENDBRANCH   4  11
BRANCH   7  37
ATOM     37  CAK KFY d   1       3.159   9.553  25.657  0.00  0.00     0.003 C 
ATOM     38  H8  KFY d   1       4.061  10.168  25.522  0.00  0.00     0.065 H 
ATOM     39  H9  KFY d   1       2.988   9.384  26.730  0.00  0.00     0.065 H 
BRANCH  37  40
ATOM     40  CAG KFY d   1       3.330   8.203  24.933  0.00  0.00    -0.050 C 
ATOM     41  H6  KFY d   1       3.102   7.401  25.651  0.00  0.00     0.035 H 
ATOM     42  H7  KFY d   1       2.608   8.169  24.103  0.00  0.00     0.035 H 
BRANCH  40  43
ATOM     43  CAF KFY d   1       4.715   7.942  24.362  0.00  0.00    -0.067 C 
ATOM     44  H4  KFY d   1       4.932   8.742  23.639  0.00  0.00     0.032 H 
ATOM     45  H5  KFY d   1       5.433   7.996  25.194  0.00  0.00     0.032 H 
BRANCH  43  46
ATOM     46  CAA KFY d   1       4.932   6.607  23.652  0.00  0.00    -0.076 C 
ATOM     47  H1  KFY d   1       5.969   6.548  23.290  0.00  0.00     0.027 H 
ATOM     48  H2  KFY d   1       4.241   6.529  22.799  0.00  0.00     0.027 H 
ATOM     49  H3  KFY d   1       4.742   5.783  24.355  0.00  0.00     0.027 H 
ENDBRANCH  43  46
ENDBRANCH  40  43
ENDBRANCH  37  40
ENDBRANCH   7  37
BRANCH   3  50
ATOM     50  N6  KFY d   1      -2.208  11.816  24.302  0.00  0.00    -0.382 N 
ATOM     51  H11 KFY d   1      -3.196  11.923  24.572  0.00  0.00     0.157 HD
ATOM     52  H12 KFY d   1      -1.869  12.222  23.418  0.00  0.00     0.157 HD
ENDBRANCH   3  50
TORSDOF 13
