REMARK  6 active torsions:
REMARK  status: ('A' for Active; 'I' for Inactive)
REMARK    1  A    between atoms: C7_7  and  C1_1 
REMARK    2  A    between atoms: C3_3  and  C21_20 
REMARK    3  A    between atoms: C6_6  and  C9_8 
REMARK    4  A    between atoms: N10_9  and  C7_7 
REMARK    5  A    between atoms: C15_16  and  O16_15 
REMARK    6  A    between atoms: C15_16  and  C14_17 
ROOT
ATOM      1  C7  A7M d   1     -11.255   0.391 -19.528  0.00  0.00     0.026 C 
ATOM      2  H4  A7M d   1     -10.279  -0.015 -19.226  0.00  0.00     0.072 H 
ATOM      3  H5  A7M d   1     -11.654  -0.199 -20.366  0.00  0.00     0.072 H 
ENDROOT
BRANCH   1   4
ATOM      4  C1  A7M d   1     -11.059   1.827 -19.996  0.00  0.00    -0.034 A 
ATOM      5  C2  A7M d   1     -10.798   2.818 -19.104  0.00  0.00    -0.069 A 
ATOM      6  C3  A7M d   1     -10.605   4.133 -19.545  0.00  0.00    -0.061 A 
ATOM      7  H1  A7M d   1     -10.739   2.590 -18.046  0.00  0.00     0.085 H 
ATOM      8  C4  A7M d   1     -10.598   4.446 -20.910  0.00  0.00    -0.077 A 
ATOM      9  C5  A7M d   1     -10.810   3.433 -21.833  0.00  0.00    -0.076 A 
ATOM     10  H2  A7M d   1     -10.429   5.465 -21.240  0.00  0.00     0.084 H 
ATOM     11  C6  A7M d   1     -11.026   2.112 -21.376  0.00  0.00    -0.054 A 
ATOM     12  H3  A7M d   1     -10.810   3.651 -22.895  0.00  0.00     0.084 H 
BRANCH   6  13
ATOM     13  C21 A7M d   1     -10.354   5.205 -18.524  0.00  0.00    -0.051 C 
ATOM     14  H16 A7M d   1     -10.399   4.769 -17.515  0.00  0.00     0.033 H 
ATOM     15  H17 A7M d   1     -11.120   5.989 -18.619  0.00  0.00     0.033 H 
ATOM     16  H18 A7M d   1      -9.359   5.643 -18.689  0.00  0.00     0.033 H 
ENDBRANCH   6  13
BRANCH  11  17
ATOM     17  C9  A7M d   1     -11.284   0.964 -22.359  0.00  0.00    -0.051 C 
ATOM     18  H6  A7M d   1     -11.425   0.027 -21.800  0.00  0.00     0.033 H 
ATOM     19  H7  A7M d   1     -10.423   0.861 -23.036  0.00  0.00     0.033 H 
ATOM     20  H8  A7M d   1     -12.189   1.180 -22.946  0.00  0.00     0.033 H 
ENDBRANCH  11  17
ENDBRANCH   1   4
BRANCH   1  21
ATOM     21  N10 A7M d   1     -12.176   0.278 -18.399  0.00  0.00    -0.327 N 
ATOM     22  C14 A7M d   1     -11.880  -0.170 -17.179  0.00  0.00     0.131 A 
ATOM     23  N13 A7M d   1     -12.968  -0.149 -16.366  0.00  0.00    -0.231 NA
ATOM     24  C12 A7M d   1     -13.951   0.353 -17.141  0.00  0.00     0.085 A 
ATOM     25  C17 A7M d   1     -15.291   0.609 -16.909  0.00  0.00    -0.053 A 
ATOM     26  C11 A7M d   1     -13.445   0.616 -18.410  0.00  0.00     0.065 A 
ATOM     27  C18 A7M d   1     -16.101   1.098 -17.922  0.00  0.00    -0.081 A 
ATOM     28  H9  A7M d   1     -15.711   0.425 -15.927  0.00  0.00     0.087 H 
ATOM     29  C19 A7M d   1     -15.573   1.371 -19.173  0.00  0.00    -0.081 A 
ATOM     30  H10 A7M d   1     -17.155   1.268 -17.734  0.00  0.00     0.083 H 
ATOM     31  C20 A7M d   1     -14.240   1.118 -19.435  0.00  0.00    -0.055 A 
ATOM     32  H11 A7M d   1     -16.207   1.784 -19.949  0.00  0.00     0.083 H 
ATOM     33  H12 A7M d   1     -13.823   1.307 -20.418  0.00  0.00     0.087 H 
BRANCH  22  34
ATOM     34  C15 A7M d   1     -10.512  -0.640 -16.837  0.00  0.00     0.071 C 
ATOM     35  H14 A7M d   1     -10.203  -1.445 -17.520  0.00  0.00     0.086 H 
ATOM     36  H15 A7M d   1      -9.795   0.192 -16.903  0.00  0.00     0.086 H 
BRANCH  34  37
ATOM     37  O16 A7M d   1     -10.583  -1.121 -15.513  0.00  0.00    -0.393 OA
ATOM     38  H13 A7M d   1     -11.211  -1.833 -15.469  0.00  0.00     0.209 HD
ENDBRANCH  34  37
ENDBRANCH  22  34
ENDBRANCH   1  21
TORSDOF 6
