REMARK  3 active torsions:
REMARK  status: ('A' for Active; 'I' for Inactive)
REMARK    1  A    between atoms: C01_1  and  C02_2 
REMARK    2  A    between atoms: C02_2  and  C03_3 
REMARK    3  A    between atoms: C08_8  and  O09_9 
ROOT
ATOM      1  C03 N0J d   1       1.292   2.935 102.805  0.00  0.00     0.063 C 
ATOM      2  C04 N0J d   1       2.468   3.835 103.261  0.00  0.00    -0.044 C 
ATOM      3  C05 N0J d   1       3.436   3.111 104.171  0.00  0.00    -0.049 C 
ATOM      4  C06 N0J d   1       4.352   2.216 103.408  0.00  0.00    -0.104 C 
ATOM      5  C07 N0J d   1       5.604   2.030 103.795  0.00  0.00    -0.079 C 
ATOM      6  C08 N0J d   1       6.462   0.978 103.167  0.00  0.00     0.055 C 
ATOM      7  C10 N0J d   1       7.686   1.520 102.440  0.00  0.00    -0.021 C 
ATOM      8  C11 N0J d   1       8.427   2.735 103.027  0.00  0.00    -0.058 C 
ATOM      9  C12 N0J d   1       8.626   3.268 101.582  0.00  0.00    -0.059 C 
ATOM     10  C13 N0J d   1       7.450   2.361 101.157  0.00  0.00    -0.033 C 
ATOM     11  C14 N0J d   1       7.595   1.506  99.901  0.00  0.00    -0.001 C 
ATOM     12  N15 N0J d   1       7.321   2.245  98.619  0.00  0.00    -0.377 N 
ATOM     13  C16 N0J d   1       8.383   3.137  98.167  0.00  0.00     0.008 C 
ATOM     14  C17 N0J d   1       8.796   2.764  96.726  0.00  0.00     0.025 C 
ATOM     15  C18 N0J d   1       9.426   1.346  96.691  0.00  0.00    -0.050 C 
ATOM     16  C19 N0J d   1      10.863   1.385  97.210  0.00  0.00    -0.060 C 
ATOM     17  C20 N0J d   1      11.686   2.182  96.203  0.00  0.00    -0.040 C 
ATOM     18  C21 N0J d   1      11.104   3.535  95.951  0.00  0.00    -0.049 A 
ATOM     19  C22 N0J d   1      11.953   4.501  95.446  0.00  0.00    -0.055 A 
ATOM     20  C23 N0J d   1      11.463   5.777  95.193  0.00  0.00     0.034 A 
ATOM     21 CL24 N0J d   1      12.561   6.994  94.573  0.00  0.00    -0.084 Cl
ATOM     22  C25 N0J d   1      10.153   6.113  95.405  0.00  0.00    -0.061 A 
ATOM     23  C26 N0J d   1       9.301   5.135  95.929  0.00  0.00    -0.074 A 
ATOM     24  C27 N0J d   1       9.761   3.825  96.190  0.00  0.00    -0.039 A 
ATOM     25  C28 N0J d   1       7.530   2.704  95.861  0.00  0.00     0.038 C 
ATOM     26  O29 N0J d   1       6.614   3.761  96.242  0.00  0.00    -0.348 OA
ATOM     27  C30 N0J d   1       5.674   3.380  97.173  0.00  0.00     0.095 A 
ATOM     28  C31 N0J d   1       4.351   3.786  96.892  0.00  0.00    -0.048 A 
ATOM     29  C32 N0J d   1       3.328   3.461  97.764  0.00  0.00    -0.065 A 
ATOM     30  C33 N0J d   1       3.632   2.705  98.887  0.00  0.00     0.035 A 
ATOM     31  C34 N0J d   1       4.907   2.290  99.183  0.00  0.00    -0.039 A 
ATOM     32  C35 N0J d   1       5.987   2.625  98.327  0.00  0.00     0.065 A 
ATOM     33  C36 N0J d   1       2.605   2.315  99.855  0.00  0.00     0.265 C 
ATOM     34  O37 N0J d   1       2.453   1.206 100.337  0.00  0.00    -0.267 OA
ATOM     35  N38 N0J d   1       1.805   3.390 100.238  0.00  0.00    -0.250 N 
ATOM     36  S39 N0J d   1       0.563   3.302 101.298  0.00  0.00     0.237 S 
ATOM     37  O40 N0J d   1      -0.283   2.267 100.869  0.00  0.00    -0.205 OA
ATOM     38  O41 N0J d   1       0.075   4.652 101.359  0.00  0.00    -0.205 OA
ATOM     39  H6  N0J d   1       1.656   1.898 102.754  0.00  0.00     0.066 H 
ATOM     40  H7  N0J d   1       2.059   4.702 103.800  0.00  0.00     0.035 H 
ATOM     41  H8  N0J d   1       3.013   4.181 102.370  0.00  0.00     0.035 H 
ATOM     42  H9  N0J d   1       2.864   2.506 104.889  0.00  0.00     0.038 H 
ATOM     43  H10 N0J d   1       4.037   3.855 104.715  0.00  0.00     0.038 H 
ATOM     44  H11 N0J d   1       3.985   1.707 102.518  0.00  0.00     0.076 H 
ATOM     45  H12 N0J d   1       6.017   2.655 104.585  0.00  0.00     0.080 H 
ATOM     46  H13 N0J d   1       5.864   0.395 102.451  0.00  0.00     0.089 H 
ATOM     47  H15 N0J d   1       8.357   0.665 102.268  0.00  0.00     0.045 H 
ATOM     48  H16 N0J d   1       9.361   2.487 103.552  0.00  0.00     0.033 H 
ATOM     49  H17 N0J d   1       7.807   3.379 103.667  0.00  0.00     0.033 H 
ATOM     50  H18 N0J d   1       9.593   3.009 101.127  0.00  0.00     0.033 H 
ATOM     51  H19 N0J d   1       8.441   4.346 101.461  0.00  0.00     0.033 H 
ATOM     52  H20 N0J d   1       6.487   2.891 101.120  0.00  0.00     0.043 H 
ATOM     53  H21 N0J d   1       6.889   0.665  99.972  0.00  0.00     0.064 H 
ATOM     54  H22 N0J d   1       8.624   1.119  99.863  0.00  0.00     0.064 H 
ATOM     55  H23 N0J d   1       9.252   3.038  98.834  0.00  0.00     0.066 H 
ATOM     56  H24 N0J d   1       8.022   4.176  98.187  0.00  0.00     0.066 H 
ATOM     57  H25 N0J d   1       9.425   0.975  95.655  0.00  0.00     0.034 H 
ATOM     58  H26 N0J d   1       8.831   0.670  97.323  0.00  0.00     0.034 H 
ATOM     59  H27 N0J d   1      11.260   0.363  97.296  0.00  0.00     0.033 H 
ATOM     60  H28 N0J d   1      10.895   1.875  98.194  0.00  0.00     0.033 H 
ATOM     61  H29 N0J d   1      11.720   1.627  95.254  0.00  0.00     0.040 H 
ATOM     62  H30 N0J d   1      12.707   2.302  96.594  0.00  0.00     0.040 H 
ATOM     63  H31 N0J d   1      12.993   4.266  95.249  0.00  0.00     0.086 H 
ATOM     64  H32 N0J d   1       9.787   7.107  95.174  0.00  0.00     0.086 H 
ATOM     65  H33 N0J d   1       8.268   5.387  96.139  0.00  0.00     0.084 H 
ATOM     66  H34 N0J d   1       7.039   1.730  96.002  0.00  0.00     0.076 H 
ATOM     67  H35 N0J d   1       7.806   2.826  94.803  0.00  0.00     0.076 H 
ATOM     68  H36 N0J d   1       4.137   4.352  95.993  0.00  0.00     0.087 H 
ATOM     69  H37 N0J d   1       2.312   3.789  97.575  0.00  0.00     0.085 H 
ATOM     70  H38 N0J d   1       5.089   1.703 100.076  0.00  0.00     0.088 H 
ATOM     71  H39 N0J d   1       2.006   4.282  99.834  0.00  0.00     0.181 HD
ENDROOT
BRANCH   6  72
ATOM     72  O09 N0J d   1       6.867   0.150 104.276  0.00  0.00    -0.391 OA
ATOM     73  H14 N0J d   1       6.097  -0.218 104.693  0.00  0.00     0.210 HD
ENDBRANCH   6  72
BRANCH   1  74
ATOM     74  C02 N0J d   1       0.206   3.062 103.916  0.00  0.00    -0.051 C 
ATOM     75  H4  N0J d   1       0.701   3.191 104.890  0.00  0.00     0.034 H 
ATOM     76  H5  N0J d   1      -0.423   3.940 103.706  0.00  0.00     0.034 H 
BRANCH  74  77
ATOM     77  C01 N0J d   1      -0.666   1.831 103.965  0.00  0.00    -0.075 C 
ATOM     78  H1  N0J d   1      -1.421   1.948 104.756  0.00  0.00     0.027 H 
ATOM     79  H2  N0J d   1      -0.044   0.949 104.180  0.00  0.00     0.027 H 
ATOM     80  H3  N0J d   1      -1.168   1.698 102.995  0.00  0.00     0.027 H 
ENDBRANCH  74  77
ENDBRANCH   1  74
TORSDOF 3
