REMARK  2 active torsions:
REMARK  status: ('A' for Active; 'I' for Inactive)
REMARK    1  A    between atoms: C27_27  and  O5_28 
REMARK    2  A    between atoms: C26_33  and  C31_34 
ROOT
ATOM      1  C18 N0S d   1     -12.539   9.234 -20.778  0.00  0.00    -0.050 C 
ATOM      2  C12 N0S d   1     -11.083   8.736 -20.760  0.00  0.00    -0.060 C 
ATOM      3  C11 N0S d   1     -10.250   9.716 -19.973  0.00  0.00    -0.040 C 
ATOM      4  C10 N0S d   1     -10.869   9.992 -18.606  0.00  0.00    -0.049 A 
ATOM      5  C16 N0S d   1     -10.022  10.492 -17.616  0.00  0.00    -0.055 A 
ATOM      6  C15 N0S d   1     -10.510  10.742 -16.342  0.00  0.00     0.034 A 
ATOM      7 CL1  N0S d   1      -9.458  11.353 -15.126  0.00  0.00    -0.084 Cl
ATOM      8  C14 N0S d   1     -11.845  10.518 -16.021  0.00  0.00    -0.061 A 
ATOM      9  C13 N0S d   1     -12.687  10.015 -17.012  0.00  0.00    -0.074 A 
ATOM     10  C19 N0S d   1     -12.204   9.752 -18.290  0.00  0.00    -0.039 A 
ATOM     11  C8  N0S d   1     -13.174   9.196 -19.377  0.00  0.00     0.025 C 
ATOM     12  C7  N0S d   1     -13.579   7.749 -19.049  0.00  0.00     0.008 C 
ATOM     13  C9  N0S d   1     -14.463  10.071 -19.423  0.00  0.00     0.038 C 
ATOM     14  O1  N0S d   1     -15.441   9.691 -18.401  0.00  0.00    -0.348 OA
ATOM     15  C2  N0S d   1     -16.265   8.702 -18.791  0.00  0.00     0.095 A 
ATOM     16  C3  N0S d   1     -17.567   8.978 -18.392  0.00  0.00    -0.048 A 
ATOM     17  C4  N0S d   1     -18.578   8.093 -18.722  0.00  0.00    -0.065 A 
ATOM     18  C5  N0S d   1     -18.253   6.975 -19.484  0.00  0.00     0.035 A 
ATOM     19  C6  N0S d   1     -16.963   6.719 -19.910  0.00  0.00    -0.039 A 
ATOM     20  C1  N0S d   1     -15.920   7.568 -19.560  0.00  0.00     0.065 A 
ATOM     21  N1  N0S d   1     -14.658   7.305 -19.976  0.00  0.00    -0.377 N 
ATOM     22  C20 N0S d   1     -14.336   5.978 -20.576  0.00  0.00    -0.001 C 
ATOM     23  C21 N0S d   1     -14.555   4.705 -19.743  0.00  0.00    -0.033 C 
ATOM     24  C28 N0S d   1     -13.337   4.316 -18.862  0.00  0.00    -0.059 C 
ATOM     25  C29 N0S d   1     -13.431   2.888 -19.405  0.00  0.00    -0.058 C 
ATOM     26  C22 N0S d   1     -14.192   3.497 -20.600  0.00  0.00    -0.021 C 
ATOM     27  C27 N0S d   1     -15.396   2.681 -21.081  0.00  0.00     0.055 C 
ATOM     28  C23 N0S d   1     -16.297   2.168 -19.969  0.00  0.00    -0.079 C 
ATOM     29  C24 N0S d   1     -17.675   2.299 -20.044  0.00  0.00    -0.104 C 
ATOM     30  C25 N0S d   1     -18.458   1.745 -19.029  0.00  0.00    -0.049 C 
ATOM     31  C30 N0S d   1     -19.460   2.737 -18.455  0.00  0.00    -0.045 C 
ATOM     32  C26 N0S d   1     -20.587   3.062 -19.457  0.00  0.00     0.060 C 
ATOM     33  S1  N0S d   1     -21.328   4.645 -18.961  0.00  0.00     0.237 S 
ATOM     34  O3  N0S d   1     -21.990   4.513 -17.616  0.00  0.00    -0.205 OA
ATOM     35  O4  N0S d   1     -22.288   5.147 -20.003  0.00  0.00    -0.205 OA
ATOM     36  N2  N0S d   1     -20.109   5.689 -18.807  0.00  0.00    -0.250 N 
ATOM     37  C17 N0S d   1     -19.325   5.987 -19.837  0.00  0.00     0.265 C 
ATOM     38  O2  N0S d   1     -19.390   5.489 -20.955  0.00  0.00    -0.267 OA
ATOM     39  H1  N0S d   1     -13.126   8.593 -21.452  0.00  0.00     0.034 H 
ATOM     40  H2  N0S d   1     -12.556  10.270 -21.149  0.00  0.00     0.034 H 
ATOM     41  H3  N0S d   1     -10.702   8.668 -21.790  0.00  0.00     0.033 H 
ATOM     42  H4  N0S d   1     -11.036   7.745 -20.285  0.00  0.00     0.033 H 
ATOM     43  H5  N0S d   1     -10.182  10.660 -20.533  0.00  0.00     0.040 H 
ATOM     44  H6  N0S d   1      -9.242   9.299 -19.833  0.00  0.00     0.040 H 
ATOM     45  H7  N0S d   1      -8.980  10.685 -17.843  0.00  0.00     0.086 H 
ATOM     46  H8  N0S d   1     -12.221  10.729 -15.026  0.00  0.00     0.086 H 
ATOM     47  H9  N0S d   1     -13.730   9.827 -16.784  0.00  0.00     0.084 H 
ATOM     48  H10 N0S d   1     -13.944   7.698 -18.013  0.00  0.00     0.066 H 
ATOM     49  H11 N0S d   1     -12.705   7.090 -19.163  0.00  0.00     0.066 H 
ATOM     50  H12 N0S d   1     -14.928   9.960 -20.414  0.00  0.00     0.076 H 
ATOM     51  H13 N0S d   1     -14.180  11.122 -19.266  0.00  0.00     0.076 H 
ATOM     52  H14 N0S d   1     -17.788   9.877 -17.828  0.00  0.00     0.087 H 
ATOM     53  H15 N0S d   1     -19.597   8.266 -18.395  0.00  0.00     0.085 H 
ATOM     54  H16 N0S d   1     -16.763   5.848 -20.523  0.00  0.00     0.088 H 
ATOM     55  H17 N0S d   1     -13.272   6.001 -20.854  0.00  0.00     0.064 H 
ATOM     56  H18 N0S d   1     -14.950   5.878 -21.483  0.00  0.00     0.064 H 
ATOM     57  H19 N0S d   1     -15.537   4.700 -19.247  0.00  0.00     0.043 H 
ATOM     58  H20 N0S d   1     -13.515   4.401 -17.780  0.00  0.00     0.033 H 
ATOM     59  H21 N0S d   1     -12.405   4.839 -19.122  0.00  0.00     0.033 H 
ATOM     60  H22 N0S d   1     -14.020   2.195 -18.786  0.00  0.00     0.033 H 
ATOM     61  H23 N0S d   1     -12.466   2.424 -19.658  0.00  0.00     0.033 H 
ATOM     62  H24 N0S d   1     -13.550   3.736 -21.461  0.00  0.00     0.045 H 
ATOM     63  H25 N0S d   1     -15.997   3.307 -21.758  0.00  0.00     0.089 H 
ATOM     64  H27 N0S d   1     -15.852   1.689 -19.098  0.00  0.00     0.080 H 
ATOM     65  H28 N0S d   1     -18.138   2.824 -20.878  0.00  0.00     0.076 H 
ATOM     66  H29 N0S d   1     -17.796   1.405 -18.219  0.00  0.00     0.038 H 
ATOM     67  H30 N0S d   1     -19.009   0.885 -19.438  0.00  0.00     0.038 H 
ATOM     68  H31 N0S d   1     -18.932   3.668 -18.199  0.00  0.00     0.035 H 
ATOM     69  H32 N0S d   1     -19.906   2.307 -17.546  0.00  0.00     0.035 H 
ATOM     70  H33 N0S d   1     -20.135   3.194 -20.451  0.00  0.00     0.066 H 
ATOM     71  H37 N0S d   1     -19.940   6.120 -17.920  0.00  0.00     0.181 HD
ENDROOT
BRANCH  27  72
ATOM     72  O5  N0S d   1     -14.887   1.545 -21.786  0.00  0.00    -0.391 OA
ATOM     73  H26 N0S d   1     -15.612   1.017 -22.098  0.00  0.00     0.210 HD
ENDBRANCH  27  72
BRANCH  32  74
ATOM     74  C31 N0S d   1     -21.606   1.935 -19.574  0.00  0.00    -0.058 C 
ATOM     75  H34 N0S d   1     -21.095   1.009 -19.876  0.00  0.00     0.029 H 
ATOM     76  H35 N0S d   1     -22.361   2.200 -20.329  0.00  0.00     0.029 H 
ATOM     77  H36 N0S d   1     -22.097   1.782 -18.602  0.00  0.00     0.029 H 
ENDBRANCH  32  74
TORSDOF 2
