REMARK  2 active torsions:
REMARK  status: ('A' for Active; 'I' for Inactive)
REMARK    1  A    between atoms: C25_27  and  O3_28 
REMARK    2  A    between atoms: C28_33  and  C31_34 
ROOT
ATOM      1  C14 N0M d   1      12.399  -1.371  11.932  0.00  0.00    -0.050 C 
ATOM      2  C13 N0M d   1      10.928  -1.380  12.341  0.00  0.00    -0.060 C 
ATOM      3  C12 N0M d   1      10.096  -2.154  11.333  0.00  0.00    -0.040 C 
ATOM      4  C11 N0M d   1      10.707  -3.531  11.073  0.00  0.00    -0.049 A 
ATOM      5  C18 N0M d   1       9.887  -4.519  10.561  0.00  0.00    -0.055 A 
ATOM      6  C17 N0M d   1      10.349  -5.805  10.301  0.00  0.00     0.034 A 
ATOM      7 CL1  N0M d   1       9.251  -6.982   9.672  0.00  0.00    -0.084 Cl
ATOM      8  C16 N0M d   1      11.678  -6.127  10.543  0.00  0.00    -0.061 A 
ATOM      9  C15 N0M d   1      12.527  -5.140  11.048  0.00  0.00    -0.074 A 
ATOM     10  C10 N0M d   1      12.051  -3.849  11.321  0.00  0.00    -0.039 A 
ATOM     11  C8  N0M d   1      13.018  -2.777  11.885  0.00  0.00     0.025 C 
ATOM     12  C7  N0M d   1      13.413  -3.121  13.316  0.00  0.00     0.008 C 
ATOM     13  C9  N0M d   1      14.284  -2.714  11.055  0.00  0.00     0.038 C 
ATOM     14  O1  N0M d   1      15.213  -3.768  11.399  0.00  0.00    -0.348 OA
ATOM     15  C2  N0M d   1      16.105  -3.384  12.366  0.00  0.00     0.095 A 
ATOM     16  C3  N0M d   1      17.424  -3.779  12.106  0.00  0.00    -0.048 A 
ATOM     17  C4  N0M d   1      18.434  -3.473  12.999  0.00  0.00    -0.065 A 
ATOM     18  C5  N0M d   1      18.124  -2.749  14.148  0.00  0.00     0.035 A 
ATOM     19  C6  N0M d   1      16.824  -2.364  14.411  0.00  0.00    -0.039 A 
ATOM     20  C1  N0M d   1      15.800  -2.675  13.522  0.00  0.00     0.065 A 
ATOM     21  N1  N0M d   1      14.547  -2.350  13.833  0.00  0.00    -0.377 N 
ATOM     22  C20 N0M d   1      14.207  -1.545  15.045  0.00  0.00    -0.001 C 
ATOM     23  C21 N0M d   1      14.365  -2.391  16.335  0.00  0.00    -0.033 C 
ATOM     24  C24 N0M d   1      13.085  -3.115  16.795  0.00  0.00    -0.059 C 
ATOM     25  C23 N0M d   1      13.410  -2.628  18.228  0.00  0.00    -0.059 C 
ATOM     26  C22 N0M d   1      14.240  -1.513  17.592  0.00  0.00    -0.024 C 
ATOM     27  C25 N0M d   1      15.591  -1.214  18.306  0.00  0.00     0.039 C 
ATOM     28  C26 N0M d   1      16.471  -2.433  18.644  0.00  0.00    -0.041 C 
ATOM     29  C27 N0M d   1      17.812  -1.972  19.245  0.00  0.00    -0.063 C 
ATOM     30  C30 N0M d   1      18.697  -3.136  19.665  0.00  0.00    -0.064 C 
ATOM     31  C29 N0M d   1      19.481  -3.724  18.500  0.00  0.00    -0.048 C 
ATOM     32  C28 N0M d   1      20.622  -2.804  18.075  0.00  0.00     0.060 C 
ATOM     33  S1  N0M d   1      21.233  -3.254  16.421  0.00  0.00     0.236 S 
ATOM     34  O4  N0M d   1      22.104  -2.182  15.943  0.00  0.00    -0.205 OA
ATOM     35  O5  N0M d   1      21.958  -4.575  16.475  0.00  0.00    -0.205 OA
ATOM     36  N2  N0M d   1      20.030  -3.407  15.366  0.00  0.00    -0.250 N 
ATOM     37  C19 N0M d   1      19.201  -2.396  15.147  0.00  0.00     0.265 C 
ATOM     38  O2  N0M d   1      19.186  -1.307  15.729  0.00  0.00    -0.267 OA
ATOM     39  H1  N0M d   1      12.961  -0.765  12.658  0.00  0.00     0.034 H 
ATOM     40  H2  N0M d   1      12.482  -0.918  10.933  0.00  0.00     0.034 H 
ATOM     41  H3  N0M d   1      10.561  -0.344  12.393  0.00  0.00     0.033 H 
ATOM     42  H4  N0M d   1      10.831  -1.853  13.329  0.00  0.00     0.033 H 
ATOM     43  H5  N0M d   1      10.058  -1.592  10.388  0.00  0.00     0.040 H 
ATOM     44  H6  N0M d   1       9.076  -2.280  11.727  0.00  0.00     0.040 H 
ATOM     45  H7  N0M d   1       8.849  -4.284  10.355  0.00  0.00     0.086 H 
ATOM     46  H8  N0M d   1      12.049  -7.126  10.344  0.00  0.00     0.086 H 
ATOM     47  H9  N0M d   1      13.569  -5.375  11.232  0.00  0.00     0.084 H 
ATOM     48  H10 N0M d   1      13.677  -4.188  13.353  0.00  0.00     0.066 H 
ATOM     49  H11 N0M d   1      12.546  -2.935  13.966  0.00  0.00     0.066 H 
ATOM     50  H12 N0M d   1      14.771  -1.742  11.224  0.00  0.00     0.076 H 
ATOM     51  H13 N0M d   1      14.017  -2.810   9.992  0.00  0.00     0.076 H 
ATOM     52  H14 N0M d   1      17.654  -4.327  11.200  0.00  0.00     0.087 H 
ATOM     53  H15 N0M d   1      19.452  -3.792  12.808  0.00  0.00     0.085 H 
ATOM     54  H16 N0M d   1      16.599  -1.815  15.318  0.00  0.00     0.088 H 
ATOM     55  H17 N0M d   1      13.166  -1.199  14.967  0.00  0.00     0.064 H 
ATOM     56  H18 N0M d   1      14.879  -0.676  15.100  0.00  0.00     0.064 H 
ATOM     57  H19 N0M d   1      15.263  -3.023  16.276  0.00  0.00     0.043 H 
ATOM     58  H20 N0M d   1      13.104  -4.207  16.666  0.00  0.00     0.033 H 
ATOM     59  H21 N0M d   1      12.152  -2.712  16.373  0.00  0.00     0.033 H 
ATOM     60  H22 N0M d   1      13.988  -3.341  18.834  0.00  0.00     0.033 H 
ATOM     61  H23 N0M d   1      12.539  -2.280  18.802  0.00  0.00     0.033 H 
ATOM     62  H24 N0M d   1      13.693  -0.571  17.438  0.00  0.00     0.044 H 
ATOM     63  H25 N0M d   1      16.176  -0.587  17.617  0.00  0.00     0.083 H 
ATOM     64  H27 N0M d   1      16.663  -3.008  17.726  0.00  0.00     0.036 H 
ATOM     65  H28 N0M d   1      15.946  -3.069  19.372  0.00  0.00     0.036 H 
ATOM     66  H29 N0M d   1      17.607  -1.349  20.128  0.00  0.00     0.033 H 
ATOM     67  H30 N0M d   1      18.349  -1.375  18.493  0.00  0.00     0.033 H 
ATOM     68  H31 N0M d   1      18.062  -3.924  20.096  0.00  0.00     0.033 H 
ATOM     69  H32 N0M d   1      19.408  -2.781  20.425  0.00  0.00     0.033 H 
ATOM     70  H33 N0M d   1      18.801  -3.868  17.647  0.00  0.00     0.035 H 
ATOM     71  H34 N0M d   1      19.899  -4.695  18.804  0.00  0.00     0.035 H 
ATOM     72  H35 N0M d   1      20.239  -1.773  18.038  0.00  0.00     0.066 H 
ATOM     73  H39 N0M d   1      19.907  -4.268  14.873  0.00  0.00     0.181 HD
ENDROOT
BRANCH  27  74
ATOM     74  O3  N0M d   1      15.350  -0.447  19.508  0.00  0.00    -0.395 OA
ATOM     75  H26 N0M d   1      16.177  -0.268  19.939  0.00  0.00     0.210 HD
ENDBRANCH  27  74
BRANCH  32  76
ATOM     76  C31 N0M d   1      21.773  -2.860  19.081  0.00  0.00    -0.058 C 
ATOM     77  H36 N0M d   1      21.401  -2.588  20.080  0.00  0.00     0.029 H 
ATOM     78  H37 N0M d   1      22.560  -2.154  18.778  0.00  0.00     0.029 H 
ATOM     79  H38 N0M d   1      22.186  -3.879  19.109  0.00  0.00     0.029 H 
ENDBRANCH  32  76
TORSDOF 2
