REMARK  14 active torsions:
REMARK  status: ('A' for Active; 'I' for Inactive)
REMARK    1  A    between atoms: C3_3  and  N4_28 
REMARK    2  A    between atoms: C6_6  and  N1_25 
REMARK    3  A    between atoms: C7_7  and  O2_33 
REMARK    4  A    between atoms: C8_8  and  O3_34 
REMARK    5  A    between atoms: C9_9  and  C10_10 
REMARK    6  A    between atoms: C10_10  and  C11_11 
REMARK    7  A    between atoms: C11_11  and  C12_12 
REMARK    8  A    between atoms: C11_11  and  C16_16 
REMARK    9  A    between atoms: C12_12  and  C13_13 
REMARK   10  A    between atoms: C13_13  and  C14_14 
REMARK   11  A    between atoms: C14_14  and  C15_15 
REMARK   12  A    between atoms: C14_14  and  N6_30 
REMARK   13  A    between atoms: C17_17  and  C18_18 
REMARK   14  A    between atoms: C22_22  and  C24_24 
REMARK       I    between atoms: C24_24  and  N7_31 
ROOT
ATOM      1  C11 N37 d   1       2.370  -3.358  -6.567  0.00  0.00     0.008 C 
ATOM      2  H9  N37 d   1       2.696  -4.361  -6.880  0.00  0.00     0.059 H 
ENDROOT
BRANCH   1   3
ATOM      3  C10 N37 d   1       1.379  -2.801  -7.589  0.00  0.00    -0.025 C 
ATOM      4  H7  N37 d   1       1.235  -1.726  -7.409  0.00  0.00     0.038 H 
ATOM      5  H8  N37 d   1       1.777  -2.953  -8.603  0.00  0.00     0.038 H 
BRANCH   3   6
ATOM      6  C9  N37 d   1       0.069  -3.504  -7.461  0.00  0.00     0.069 C 
ATOM      7  C8  N37 d   1       0.090  -4.772  -8.249  0.00  0.00     0.089 C 
ATOM      8  C7  N37 d   1      -1.019  -4.694  -9.207  0.00  0.00     0.105 C 
ATOM      9  H5  N37 d   1       1.048  -4.883  -8.777  0.00  0.00     0.091 H 
ATOM     10  C6  N37 d   1      -1.926  -3.646  -8.663  0.00  0.00     0.139 C 
ATOM     11  H4  N37 d   1      -0.654  -4.413 -10.206  0.00  0.00     0.093 H 
ATOM     12  O1  N37 d   1      -1.030  -2.678  -7.996  0.00  0.00    -0.356 OA
ATOM     13  H3  N37 d   1      -2.611  -4.091  -7.926  0.00  0.00     0.122 H 
ATOM     14  H6  N37 d   1      -0.118  -3.726  -6.400  0.00  0.00     0.087 H 
BRANCH   7  15
ATOM     15  O3  N37 d   1      -0.116  -5.888  -7.361  0.00  0.00    -0.390 OA
ATOM     16  H27 N37 d   1      -0.957  -5.796  -6.928  0.00  0.00     0.210 HD
ENDBRANCH   7  15
BRANCH   8  17
ATOM     17  O2  N37 d   1      -1.699  -5.961  -9.275  0.00  0.00    -0.388 OA
ATOM     18  H26 N37 d   1      -2.041  -6.182  -8.417  0.00  0.00     0.210 HD
ENDBRANCH   8  17
BRANCH  10  19
ATOM     19  N1  N37 d   1      -2.700  -3.028  -9.683  0.00  0.00    -0.294 N 
ATOM     20  C1  N37 d   1      -3.943  -2.823  -9.484  0.00  0.00     0.167 A 
ATOM     21  C4  N37 d   1      -4.346  -2.206 -10.709  0.00  0.00     0.149 A 
ATOM     22  N2  N37 d   1      -4.723  -3.086  -8.446  0.00  0.00    -0.222 NA
ATOM     23  C3  N37 d   1      -5.659  -1.856 -10.811  0.00  0.00     0.155 A 
ATOM     24  N5  N37 d   1      -3.110  -2.115 -11.596  0.00  0.00    -0.236 NA
ATOM     25  N3  N37 d   1      -6.461  -2.104  -9.795  0.00  0.00    -0.222 NA
ATOM     26  C2  N37 d   1      -5.984  -2.689  -8.687  0.00  0.00     0.091 A 
ATOM     27  H1  N37 d   1      -6.700  -2.862  -7.892  0.00  0.00     0.146 H 
ATOM     28  C5  N37 d   1      -2.170  -2.678 -10.792  0.00  0.00     0.071 A 
ATOM     29  H2  N37 d   1      -1.121  -2.811 -11.054  0.00  0.00     0.144 H 
BRANCH  23  30
ATOM     30  N4  N37 d   1      -6.168  -1.223 -12.013  0.00  0.00    -0.382 N 
ATOM     31  H19 N37 d   1      -7.163  -0.964 -12.077  0.00  0.00     0.157 HD
ATOM     32  H20 N37 d   1      -5.535  -1.033 -12.803  0.00  0.00     0.157 HD
ENDBRANCH  23  30
ENDBRANCH  10  19
ENDBRANCH   3   6
ENDBRANCH   1   3
BRANCH   1  33
ATOM     33  C12 N37 d   1       1.709  -3.446  -5.191  0.00  0.00    -0.049 C 
ATOM     34  H10 N37 d   1       1.051  -4.327  -5.155  0.00  0.00     0.035 H 
ATOM     35  H11 N37 d   1       1.115  -2.538  -5.010  0.00  0.00     0.035 H 
BRANCH  33  36
ATOM     36  C13 N37 d   1       2.790  -3.572  -4.117  0.00  0.00    -0.028 C 
ATOM     37  H12 N37 d   1       3.370  -2.638  -4.075  0.00  0.00     0.036 H 
ATOM     38  H13 N37 d   1       3.459  -4.407  -4.372  0.00  0.00     0.036 H 
BRANCH  36  39
ATOM     39  C14 N37 d   1       2.156  -3.833  -2.752  0.00  0.00     0.182 C 
ATOM     40  H14 N37 d   1       1.940  -4.907  -2.648  0.00  0.00     0.101 H 
BRANCH  39  41
ATOM     41  C15 N37 d   1       3.138  -3.405  -1.665  0.00  0.00     0.204 C 
ATOM     42  O4  N37 d   1       2.721  -2.825  -0.628  0.00  0.00    -0.646 OA
ATOM     43  O5  N37 d   1       4.369  -3.634  -1.811  0.00  0.00    -0.646 OA
ENDBRANCH  39  41
BRANCH  39  44
ATOM     44  N6  N37 d   1       0.919  -3.082  -2.625  0.00  0.00    -0.065 N 
ATOM     45  H21 N37 d   1       0.509  -3.261  -1.722  0.00  0.00     0.275 HD
ATOM     46  H22 N37 d   1       0.277  -3.367  -3.348  0.00  0.00     0.275 HD
ATOM     47  H23 N37 d   1       1.113  -2.097  -2.717  0.00  0.00     0.275 HD
ENDBRANCH  39  44
ENDBRANCH  36  39
ENDBRANCH  33  36
ENDBRANCH   1  33
BRANCH   1  48
ATOM     48  C16 N37 d   1       3.578  -2.428  -6.491  0.00  0.00    -0.096 C 
ATOM     49  C17 N37 d   1       4.502  -1.689  -6.434  0.00  0.00    -0.067 C 
BRANCH  49  50
ATOM     50  C18 N37 d   1       5.675  -0.716  -6.375  0.00  0.00     0.018 A 
ATOM     51  C19 N37 d   1       6.832  -1.050  -5.690  0.00  0.00    -0.065 A 
ATOM     52  C20 N37 d   1       7.891  -0.156  -5.646  0.00  0.00    -0.081 A 
ATOM     53  H15 N37 d   1       6.909  -2.008  -5.189  0.00  0.00     0.085 H 
ATOM     54  C21 N37 d   1       7.791   1.069  -6.285  0.00  0.00    -0.068 A 
ATOM     55  H16 N37 d   1       8.797  -0.416  -5.111  0.00  0.00     0.083 H 
ATOM     56  C22 N37 d   1       6.633   1.401  -6.970  0.00  0.00     0.033 A 
ATOM     57  H17 N37 d   1       8.619   1.768  -6.249  0.00  0.00     0.085 H 
ATOM     58  C23 N37 d   1       5.576   0.509  -7.014  0.00  0.00    -0.050 A 
ATOM     59  H18 N37 d   1       4.670   0.769  -7.549  0.00  0.00     0.087 H 
BRANCH  56  60
ATOM     60  C24 N37 d   1       6.516   2.749  -7.679  0.00  0.00     0.249 C 
ATOM     61  N7  N37 d   1       5.211   3.333  -7.923  0.00  0.00    -0.366 N 
ATOM     62  H24 N37 d   1       5.137   4.216  -8.387  0.00  0.00     0.159 HD
ATOM     63  H25 N37 d   1       4.385   2.853  -7.627  0.00  0.00     0.159 HD
ATOM     64  O6  N37 d   1       7.492   3.317  -8.034  0.00  0.00    -0.268 OA
ENDBRANCH  56  60
ENDBRANCH  49  50
ENDBRANCH   1  48
TORSDOF 14
