REMARK  19 active torsions:
REMARK  status: ('A' for Active; 'I' for Inactive)
REMARK    1  A    between atoms: C2_1  and  O39_40 
REMARK    2  A    between atoms: S8_7  and  C5_4 
REMARK    3  A    between atoms: N11_10  and  S8_7 
REMARK    4  A    between atoms: N11_10  and  C12_11 
REMARK    5  A    between atoms: C16_15  and  N11_10 
REMARK    6  A    between atoms: C12_11  and  C13_12 
REMARK    7  A    between atoms: C13_12  and  C14_13 
REMARK    8  A    between atoms: C13_12  and  C15_14 
REMARK    9  A    between atoms: C17_16  and  C16_15 
REMARK   10  A    between atoms: C17_16  and  O18_17 
REMARK   11  A    between atoms: C19_18  and  C17_16 
REMARK   12  A    between atoms: C19_18  and  N20_19 
REMARK   13  A    between atoms: C32_33  and  C19_18 
REMARK       I    between atoms: N20_19  and  C21_20 
REMARK   14  A    between atoms: C21_20  and  O23_22 
REMARK   15  A    between atoms: O23_22  and  C24_23 
REMARK   16  A    between atoms: C30_29  and  N41_31 
REMARK   17  A    between atoms: N41_31  and  C42_32 
REMARK   18  A    between atoms: C38_39  and  C32_33 
REMARK   19  A    between atoms: O39_40  and  C40_41 
ROOT
ATOM      1  C19 MOL d   1      15.178  22.788  17.113  0.00  0.00     0.044 C 
ATOM      2  H18 MOL d   1      16.105  22.296  16.783  0.00  0.00     0.077 H 
ENDROOT
BRANCH   1   3
ATOM      3  C17 MOL d   1      15.544  23.899  18.105  0.00  0.00     0.071 C 
ATOM      4  H16 MOL d   1      15.897  23.411  19.025  0.00  0.00     0.088 H 
BRANCH   3   5
ATOM      5  C16 MOL d   1      16.662  24.808  17.623  0.00  0.00     0.031 C 
ATOM      6  H14 MOL d   1      16.406  25.148  16.609  0.00  0.00     0.069 H 
ATOM      7  H15 MOL d   1      16.707  25.674  18.299  0.00  0.00     0.069 H 
BRANCH   5   8
ATOM      8  N11 MOL d   1      18.018  24.199  17.571  0.00  0.00    -0.304 N 
BRANCH   8   9
ATOM      9  S8  MOL d   1      18.682  23.815  16.094  0.00  0.00     0.260 S 
ATOM     10  O9  MOL d   1      17.647  23.723  15.097  0.00  0.00    -0.200 OA
ATOM     11  O10 MOL d   1      19.592  22.669  16.214  0.00  0.00    -0.200 OA
BRANCH   9  12
ATOM     12  C5  MOL d   1      19.546  25.207  15.710  0.00  0.00     0.079 A 
ATOM     13  C4  MOL d   1      18.950  26.321  15.077  0.00  0.00    -0.058 A 
ATOM     14  C3  MOL d   1      19.712  27.468  14.819  0.00  0.00    -0.049 A 
ATOM     15  H2  MOL d   1      17.905  26.288  14.791  0.00  0.00     0.086 H 
ATOM     16  C2  MOL d   1      21.063  27.543  15.174  0.00  0.00     0.068 A 
ATOM     17  H1  MOL d   1      19.244  28.317  14.333  0.00  0.00     0.087 H 
ATOM     18  C7  MOL d   1      21.673  26.475  15.799  0.00  0.00    -0.049 A 
ATOM     19  C6  MOL d   1      20.915  25.331  16.038  0.00  0.00    -0.058 A 
ATOM     20  H4  MOL d   1      22.714  26.525  16.096  0.00  0.00     0.087 H 
ATOM     21  H3  MOL d   1      21.405  24.484  16.504  0.00  0.00     0.086 H 
BRANCH  16  22
ATOM     22  O39 MOL d   1      21.804  28.693  14.974  0.00  0.00    -0.356 OA
BRANCH  22  23
ATOM     23  C40 MOL d   1      23.128  28.692  15.426  0.00  0.00     0.010 C 
ATOM     24  H40 MOL d   1      23.593  29.664  15.202  0.00  0.00     0.066 H 
ATOM     25  H41 MOL d   1      23.688  27.892  14.919  0.00  0.00     0.066 H 
ATOM     26  H42 MOL d   1      23.145  28.520  16.512  0.00  0.00     0.066 H 
ENDBRANCH  22  23
ENDBRANCH  16  22
ENDBRANCH   9  12
ENDBRANCH   8   9
BRANCH   8  27
ATOM     27  C12 MOL d   1      18.921  23.994  18.701  0.00  0.00     0.008 C 
ATOM     28  H5  MOL d   1      19.420  24.959  18.875  0.00  0.00     0.066 H 
ATOM     29  H6  MOL d   1      19.663  23.252  18.371  0.00  0.00     0.066 H 
BRANCH  27  30
ATOM     30  C13 MOL d   1      18.438  23.535  20.023  0.00  0.00    -0.045 C 
ATOM     31  H7  MOL d   1      17.468  23.973  20.300  0.00  0.00     0.041 H 
BRANCH  30  32
ATOM     32  C14 MOL d   1      18.350  22.074  19.822  0.00  0.00    -0.072 C 
ATOM     33  H8  MOL d   1      17.995  21.597  20.748  0.00  0.00     0.028 H 
ATOM     34  H9  MOL d   1      19.343  21.679  19.564  0.00  0.00     0.028 H 
ATOM     35  H10 MOL d   1      17.645  21.858  19.005  0.00  0.00     0.028 H 
ENDBRANCH  30  32
BRANCH  30  36
ATOM     36  C15 MOL d   1      19.509  23.891  21.046  0.00  0.00    -0.072 C 
ATOM     37  H11 MOL d   1      19.548  24.983  21.171  0.00  0.00     0.028 H 
ATOM     38  H12 MOL d   1      20.486  23.527  20.696  0.00  0.00     0.028 H 
ATOM     39  H13 MOL d   1      19.266  23.420  22.010  0.00  0.00     0.028 H 
ENDBRANCH  30  36
ENDBRANCH  27  30
ENDBRANCH   8  27
ENDBRANCH   5   8
ENDBRANCH   3   5
BRANCH   3  40
ATOM     40  O18 MOL d   1      14.387  24.660  18.430  0.00  0.00    -0.392 OA
ATOM     41  H17 MOL d   1      14.092  25.130  17.659  0.00  0.00     0.210 HD
ENDBRANCH   3  40
ENDBRANCH   1   3
BRANCH   1  42
ATOM     42  N20 MOL d   1      14.261  21.831  17.720  0.00  0.00    -0.329 N 
ATOM     43  C21 MOL d   1      14.538  20.545  17.935  0.00  0.00     0.361 C 
ATOM     44  O22 MOL d   1      15.621  19.972  17.682  0.00  0.00    -0.238 OA
ATOM     45  H19 MOL d   1      13.359  22.163  17.995  0.00  0.00     0.165 HD
BRANCH  43  46
ATOM     46  O23 MOL d   1      13.467  19.881  18.570  0.00  0.00    -0.296 OA
BRANCH  46  47
ATOM     47  C24 MOL d   1      13.700  18.526  18.922  0.00  0.00     0.080 C 
ATOM     48  C25 MOL d   1      13.307  18.453  20.405  0.00  0.00     0.048 C 
ATOM     49  O26 MOL d   1      11.860  18.488  20.373  0.00  0.00    -0.358 OA
ATOM     50  H21 MOL d   1      13.709  19.313  20.961  0.00  0.00     0.078 H 
ATOM     51  H22 MOL d   1      13.668  17.520  20.862  0.00  0.00     0.078 H 
ATOM     52  C27 MOL d   1      11.403  17.893  19.156  0.00  0.00     0.139 C 
ATOM     53  O28 MOL d   1      10.468  18.758  18.488  0.00  0.00    -0.359 OA
ATOM     54  C31 MOL d   1      12.605  17.722  18.210  0.00  0.00     0.051 C 
ATOM     55  H23 MOL d   1      10.936  16.920  19.368  0.00  0.00     0.129 H 
ATOM     56  C29 MOL d   1      10.959  19.072  17.151  0.00  0.00     0.050 C 
ATOM     57  C30 MOL d   1      12.084  18.134  16.811  0.00  0.00     0.132 C 
ATOM     58  H24 MOL d   1      11.323  20.110  17.126  0.00  0.00     0.077 H 
ATOM     59  H25 MOL d   1      10.145  18.951  16.421  0.00  0.00     0.077 H 
ATOM     60  H26 MOL d   1      12.861  18.642  16.221  0.00  0.00     0.088 H 
ATOM     61  H27 MOL d   1      12.930  16.673  18.151  0.00  0.00     0.054 H 
ATOM     62  H20 MOL d   1      14.721  18.178  18.707  0.00  0.00     0.088 H 
BRANCH  57  63
ATOM     63  N41 MOL d   1      11.608  16.940  16.087  0.00  0.00    -0.072 N 
ATOM     64  H28 MOL d   1      10.828  16.551  16.593  0.00  0.00     0.277 HD
ATOM     65  H29 MOL d   1      12.358  16.267  16.056  0.00  0.00     0.277 HD
BRANCH  63  66
ATOM     66  C42 MOL d   1      11.178  17.214  14.719  0.00  0.00     0.065 C 
ATOM     67  H30 MOL d   1      10.839  16.280  14.247  0.00  0.00     0.067 H 
ATOM     68  H31 MOL d   1      12.020  17.629  14.146  0.00  0.00     0.067 H 
ATOM     69  H32 MOL d   1      10.351  17.939  14.733  0.00  0.00     0.067 H 
ENDBRANCH  63  66
ENDBRANCH  57  63
ENDBRANCH  46  47
ENDBRANCH  43  46
ENDBRANCH   1  42
BRANCH   1  70
ATOM     70  C32 MOL d   1      14.373  23.249  15.919  0.00  0.00    -0.020 C 
ATOM     71  H33 MOL d   1      14.964  23.978  15.345  0.00  0.00     0.043 H 
ATOM     72  H34 MOL d   1      13.446  23.724  16.271  0.00  0.00     0.043 H 
BRANCH  70  73
ATOM     73  C38 MOL d   1      14.023  22.082  15.025  0.00  0.00    -0.056 A 
ATOM     74  C33 MOL d   1      12.695  21.648  14.869  0.00  0.00    -0.077 A 
ATOM     75  C34 MOL d   1      12.406  20.576  14.038  0.00  0.00    -0.082 A 
ATOM     76  H35 MOL d   1      11.895  22.152  15.399  0.00  0.00     0.084 H 
ATOM     77  C35 MOL d   1      13.427  19.926  13.323  0.00  0.00    -0.083 A 
ATOM     78  H36 MOL d   1      11.382  20.236  13.939  0.00  0.00     0.083 H 
ATOM     79  C36 MOL d   1      14.715  20.406  13.471  0.00  0.00    -0.082 A 
ATOM     80  H37 MOL d   1      13.213  19.080  12.680  0.00  0.00     0.083 H 
ATOM     81  C37 MOL d   1      15.024  21.465  14.330  0.00  0.00    -0.077 A 
ATOM     82  H38 MOL d   1      15.514  19.945  12.901  0.00  0.00     0.083 H 
ATOM     83  H39 MOL d   1      16.051  21.794  14.444  0.00  0.00     0.084 H 
ENDBRANCH  70  73
ENDBRANCH   1  70
TORSDOF 19
