REMARK  17 active torsions:
REMARK  status: ('A' for Active; 'I' for Inactive)
REMARK    1  A    between atoms: PB_2  and  O3A_5 
REMARK    2  A    between atoms: O3A_5  and  PA_6 
REMARK    3  A    between atoms: PA_6  and  O7_9 
REMARK    4  A    between atoms: O7_9  and  C7_10 
REMARK    5  A    between atoms: C7_10  and  C6_11 
REMARK    6  A    between atoms: C6_11  and  C5_12 
REMARK    7  A    between atoms: C4_14  and  CM4_15 
REMARK    8  A    between atoms: N3_16  and  C7'_26 
REMARK    9  A    between atoms: C2_17  and  CMA_18 
REMARK   10  A    between atoms: CMA_18  and  OM1_19 
REMARK   11  A    between atoms: CMA_18  and  CMB_20 
REMARK   12  A    between atoms: CMA_18  and  PC_21 
REMARK   13  A    between atoms: PC_21  and  OM2_23 
REMARK   14  A    between atoms: OM2_23  and  CMC_24 
REMARK   15  A    between atoms: C7'_26  and  C5'_27 
REMARK   16  A    between atoms: C2'_30  and  CM2_31 
REMARK   17  A    between atoms: C4'_33  and  N4'_34 
ROOT
ATOM      1  C5  TDK d   1     -19.176 -11.354  42.664  0.00  0.00     0.004 A 
ATOM      2  S1  TDK d   1     -19.762 -10.090  41.620  0.00  0.00    -0.103 SA
ATOM      3  C4  TDK d   1     -18.189 -12.094  42.108  0.00  0.00     0.017 A 
ATOM      4  N3  TDK d   1     -17.880 -11.628  40.827  0.00  0.00    -0.362 N 
ATOM      5  C2  TDK d   1     -18.644 -10.560  40.391  0.00  0.00     0.102 A 
ATOM      6  H8  TDK d   1     -17.889  -9.793  40.618  0.00  0.00     0.096 H 
ENDROOT
BRANCH   4   7
ATOM      7  C7' TDK d   1     -16.794 -12.260  40.062  0.00  0.00     0.025 C 
ATOM      8  H16 TDK d   1     -16.922 -11.993  39.003  0.00  0.00     0.071 H 
ATOM      9  H17 TDK d   1     -16.884 -13.350  40.178  0.00  0.00     0.071 H 
BRANCH   7  10
ATOM     10  C5' TDK d   1     -15.404 -11.857  40.482  0.00  0.00     0.023 A 
ATOM     11  C6' TDK d   1     -14.455 -12.801  40.802  0.00  0.00     0.015 A 
ATOM     12  N1' TDK d   1     -13.192 -12.515  41.143  0.00  0.00    -0.245 NA
ATOM     13  H18 TDK d   1     -14.749 -13.844  40.776  0.00  0.00     0.116 H 
ATOM     14  C2' TDK d   1     -12.870 -11.214  41.171  0.00  0.00     0.124 A 
ATOM     15  N3' TDK d   1     -13.698 -10.204  40.890  0.00  0.00    -0.216 NA
ATOM     16  C4' TDK d   1     -14.963 -10.501  40.541  0.00  0.00     0.132 A 
BRANCH  14  17
ATOM     17  CM2 TDK d   1     -11.466 -10.863  41.545  0.00  0.00    -0.019 C 
ATOM     18  H19 TDK d   1     -10.900 -11.784  41.749  0.00  0.00     0.037 H 
ATOM     19  H20 TDK d   1     -11.473 -10.231  42.445  0.00  0.00     0.037 H 
ATOM     20  H21 TDK d   1     -10.992 -10.316  40.717  0.00  0.00     0.037 H 
ENDBRANCH  14  17
BRANCH  16  21
ATOM     21  N4' TDK d   1     -15.768  -9.473  40.245  0.00  0.00    -0.383 N 
ATOM     22  H22 TDK d   1     -15.412  -8.508  40.300  0.00  0.00     0.157 HD
ATOM     23  H23 TDK d   1     -16.743  -9.647  39.963  0.00  0.00     0.157 HD
ENDBRANCH  16  21
ENDBRANCH   7  10
ENDBRANCH   4   7
BRANCH   3  24
ATOM     24  CM4 TDK d   1     -17.531 -13.296  42.695  0.00  0.00    -0.037 C 
ATOM     25  H5  TDK d   1     -17.928 -13.475  43.705  0.00  0.00     0.035 H 
ATOM     26  H6  TDK d   1     -16.445 -13.129  42.752  0.00  0.00     0.035 H 
ATOM     27  H7  TDK d   1     -17.735 -14.172  42.061  0.00  0.00     0.035 H 
ENDBRANCH   3  24
BRANCH   5  28
ATOM     28  CMA TDK d   1     -18.797 -10.101  38.945  0.00  0.00     0.189 C 
BRANCH  28  29
ATOM     29  OM1 TDK d   1     -17.534 -10.015  38.287  0.00  0.00    -0.375 OA
ATOM     30  H9  TDK d   1     -17.655  -9.651  37.418  0.00  0.00     0.211 HD
ENDBRANCH  28  29
BRANCH  28  31
ATOM     31  CMB TDK d   1     -19.434  -8.711  39.014  0.00  0.00    -0.034 C 
ATOM     32  H10 TDK d   1     -18.824  -8.060  39.657  0.00  0.00     0.032 H 
ATOM     33  H11 TDK d   1     -20.448  -8.793  39.432  0.00  0.00     0.032 H 
ATOM     34  H12 TDK d   1     -19.488  -8.281  38.003  0.00  0.00     0.032 H 
ENDBRANCH  28  31
BRANCH  28  35
ATOM     35  PC  TDK d   1     -19.803 -11.207  37.873  0.00  0.00     0.287 P 
ATOM     36  OM3 TDK d   1     -21.316 -10.965  38.219  0.00  0.00    -0.644 OA
ATOM     37  OM4 TDK d   1     -19.498 -12.661  38.085  0.00  0.00    -0.644 OA
BRANCH  35  38
ATOM     38  OM2 TDK d   1     -19.544 -10.701  36.406  0.00  0.00    -0.315 OA
BRANCH  38  39
ATOM     39  CMC TDK d   1     -20.371  -9.724  35.750  0.00  0.00     0.014 C 
ATOM     40  H13 TDK d   1     -19.986  -9.539  34.736  0.00  0.00     0.067 H 
ATOM     41  H14 TDK d   1     -20.357  -8.786  36.325  0.00  0.00     0.067 H 
ATOM     42  H15 TDK d   1     -21.403 -10.100  35.687  0.00  0.00     0.067 H 
ENDBRANCH  38  39
ENDBRANCH  35  38
ENDBRANCH  28  35
ENDBRANCH   5  28
BRANCH   1  43
ATOM     43  C6  TDK d   1     -19.796 -11.511  44.025  0.00  0.00    -0.013 C 
ATOM     44  H3  TDK d   1     -20.886 -11.601  43.904  0.00  0.00     0.044 H 
ATOM     45  H4  TDK d   1     -19.401 -12.428  44.485  0.00  0.00     0.044 H 
BRANCH  43  46
ATOM     46  C7  TDK d   1     -19.509 -10.347  44.949  0.00  0.00     0.036 C 
ATOM     47  H1  TDK d   1     -18.423 -10.240  45.086  0.00  0.00     0.075 H 
ATOM     48  H2  TDK d   1     -19.918  -9.421  44.519  0.00  0.00     0.075 H 
BRANCH  46  49
ATOM     49  O7  TDK d   1     -20.140 -10.614  46.226  0.00  0.00    -0.289 OA
BRANCH  49  50
ATOM     50  PA  TDK d   1     -20.437  -9.435  47.287  0.00  0.00     0.418 P 
ATOM     51  O1A TDK d   1     -20.879 -10.004  48.583  0.00  0.00    -0.624 OA
ATOM     52  O2A TDK d   1     -19.201  -8.528  47.353  0.00  0.00    -0.624 OA
BRANCH  50  53
ATOM     53  O3A TDK d   1     -21.604  -8.600  46.597  0.00  0.00    -0.173 OA
BRANCH  53  54
ATOM     54  PB  TDK d   1     -23.186  -8.816  46.624  0.00  0.00     0.431 P 
ATOM     55  O2B TDK d   1     -23.791  -7.461  46.996  0.00  0.00    -0.616 OA
ATOM     56  O3B TDK d   1     -23.592  -9.133  45.183  0.00  0.00    -0.616 OA
ATOM     57  O1B TDK d   1     -23.539  -9.888  47.584  0.00  0.00    -0.616 OA
ENDBRANCH  53  54
ENDBRANCH  50  53
ENDBRANCH  49  50
ENDBRANCH  46  49
ENDBRANCH  43  46
ENDBRANCH   1  43
TORSDOF 17
