REMARK  4 active torsions:
REMARK  status: ('A' for Active; 'I' for Inactive)
REMARK    1  A    between atoms: S02_2  and  C03_3 
REMARK    2  A    between atoms: S02_2  and  N15_15 
REMARK    3  A    between atoms: N15_15  and  C16_16 
REMARK    4  A    between atoms: N15_15  and  C26_26 
ROOT
ATOM      1  N15 NRS d   1      19.332 -10.948  36.945  0.00  0.00    -0.276 N 
ENDROOT
BRANCH   1   2
ATOM      2  S02 NRS d   1      17.777 -11.628  37.245  0.00  0.00     0.265 S 
ATOM      3  O01 NRS d   1      17.359 -12.659  36.290  0.00  0.00    -0.200 OA
ATOM      4  O27 NRS d   1      16.636 -10.709  37.201  0.00  0.00    -0.200 OA
BRANCH   2   5
ATOM      5  C03 NRS d   1      17.958 -12.369  38.861  0.00  0.00     0.082 A 
ATOM      6  C04 NRS d   1      17.187 -11.932  39.938  0.00  0.00    -0.032 A 
ATOM      7  C05 NRS d   1      17.399 -12.576  41.161  0.00  0.00     0.063 A 
ATOM      8  H1  NRS d   1      16.461 -11.134  39.832  0.00  0.00     0.089 H 
ATOM      9  C06 NRS d   1      18.364 -13.626  41.273  0.00  0.00     0.062 A 
ATOM     10  N10 NRS d   1      16.599 -12.161  42.339  0.00  0.00    -0.317 N 
ATOM     11  N07 NRS d   1      18.588 -14.319  42.556  0.00  0.00    -0.317 N 
ATOM     12  C13 NRS d   1      19.129 -14.041  40.179  0.00  0.00    -0.053 A 
ATOM     13  C08 NRS d   1      17.827 -13.927  43.690  0.00  0.00     0.314 A 
ATOM     14  H2  NRS d   1      19.264 -15.052  42.626  0.00  0.00     0.169 HD
ATOM     15  C09 NRS d   1      16.812 -12.829  43.581  0.00  0.00     0.314 A 
ATOM     16  O12 NRS d   1      18.023 -14.495  44.706  0.00  0.00    -0.262 OA
ATOM     17  O11 NRS d   1      16.170 -12.489  44.512  0.00  0.00    -0.262 OA
ATOM     18  C14 NRS d   1      18.925 -13.401  38.959  0.00  0.00    -0.058 A 
ATOM     19  H4  NRS d   1      19.859 -14.837  40.277  0.00  0.00     0.087 H 
ATOM     20  H5  NRS d   1      19.503 -13.691  38.089  0.00  0.00     0.086 H 
ATOM     21  H3  NRS d   1      15.924 -11.427  42.264  0.00  0.00     0.169 HD
ENDBRANCH   2   5
ENDBRANCH   1   2
BRANCH   1  22
ATOM     22  C16 NRS d   1      20.333 -11.670  36.143  0.00  0.00     0.045 A 
ATOM     23  C17 NRS d   1      19.930 -12.258  34.933  0.00  0.00    -0.046 A 
ATOM     24  C18 NRS d   1      20.867 -12.975  34.120  0.00  0.00    -0.024 A 
ATOM     25  H6  NRS d   1      18.899 -12.168  34.611  0.00  0.00     0.088 H 
ATOM     26  C19 NRS d   1      20.426 -13.566  32.885  0.00  0.00    -0.072 A 
ATOM     27  C23 NRS d   1      22.179 -13.081  34.526  0.00  0.00    -0.026 A 
ATOM     28  C20 NRS d   1      21.333 -14.257  32.079  0.00  0.00    -0.082 A 
ATOM     29  H7  NRS d   1      19.390 -13.475  32.580  0.00  0.00     0.084 H 
ATOM     30  C21 NRS d   1      22.667 -14.371  32.492  0.00  0.00    -0.082 A 
ATOM     31  H8  NRS d   1      21.009 -14.700  31.144  0.00  0.00     0.083 H 
ATOM     32  C22 NRS d   1      23.098 -13.792  33.693  0.00  0.00    -0.072 A 
ATOM     33  H9  NRS d   1      23.374 -14.914  31.875  0.00  0.00     0.083 H 
ATOM     34  H10 NRS d   1      24.136 -13.884  33.993  0.00  0.00     0.084 H 
ATOM     35  C24 NRS d   1      22.609 -12.489  35.765  0.00  0.00    -0.070 A 
ATOM     36  C25 NRS d   1      21.683 -11.787  36.559  0.00  0.00    -0.056 A 
ATOM     37  H11 NRS d   1      23.640 -12.583  36.085  0.00  0.00     0.084 H 
ATOM     38  H12 NRS d   1      22.003 -11.335  37.491  0.00  0.00     0.087 H 
ENDBRANCH   1  22
BRANCH   1  39
ATOM     39  C26 NRS d   1      19.649  -9.654  37.529  0.00  0.00    -0.004 C 
ATOM     40  H13 NRS d   1      20.671  -9.364  37.244  0.00  0.00     0.058 H 
ATOM     41  H14 NRS d   1      19.578  -9.719  38.625  0.00  0.00     0.058 H 
ATOM     42  H15 NRS d   1      18.938  -8.901  37.160  0.00  0.00     0.058 H 
ENDBRANCH   1  39
TORSDOF 4
