REMARK  9 active torsions:
REMARK  status: ('A' for Active; 'I' for Inactive)
REMARK    1  A    between atoms: C01_1  and  N02_2 
REMARK    2  A    between atoms: C13_13  and  S14_14 
REMARK    3  A    between atoms: S14_14  and  C15_15 
REMARK    4  A    between atoms: C15_15  and  C16_16 
REMARK    5  A    between atoms: C16_16  and  N17_17 
REMARK    6  A    between atoms: N17_17  and  C18_18 
REMARK    7  A    between atoms: N17_17  and  C20_20 
REMARK    8  A    between atoms: C18_18  and  C19_19 
REMARK    9  A    between atoms: C20_20  and  C21_21 
ROOT
ATOM      1  S14 NRV d   1      16.502  -9.443  35.943  0.00  0.00    -0.087 SA
ENDROOT
BRANCH   1   2
ATOM      2  C13 NRV d   1      17.642 -10.556  35.097  0.00  0.00     0.211 A 
ATOM      3  N12 NRV d   1      18.857 -10.712  35.648  0.00  0.00    -0.201 NA
ATOM      4  C11 NRV d   1      19.755 -11.537  35.047  0.00  0.00     0.164 A 
ATOM      5  N02 NRV d   1      21.031 -11.876  35.366  0.00  0.00    -0.333 N 
ATOM      6  C10 NRV d   1      19.352 -12.184  33.872  0.00  0.00     0.138 A 
ATOM      7  C03 NRV d   1      21.488 -12.746  34.414  0.00  0.00     0.048 A 
ATOM      8  C04 NRV d   1      22.740 -13.389  34.255  0.00  0.00    -0.053 A 
ATOM      9  C09 NRV d   1      20.472 -12.981  33.452  0.00  0.00     0.028 A 
ATOM     10  C05 NRV d   1      22.916 -14.225  33.156  0.00  0.00    -0.043 A 
ATOM     11  H4  NRV d   1      23.540 -13.234  34.970  0.00  0.00     0.087 H 
ATOM     12  C06 NRV d   1      21.892 -14.441  32.198  0.00  0.00     0.117 A 
ATOM     13  H5  NRV d   1      23.868 -14.728  33.028  0.00  0.00     0.088 H 
ATOM     14  F07 NRV d   1      22.141 -15.276  31.141  0.00  0.00    -0.206 F 
ATOM     15  C08 NRV d   1      20.650 -13.819  32.328  0.00  0.00    -0.031 A 
ATOM     16  H6  NRV d   1      19.860 -13.971  31.602  0.00  0.00     0.089 H 
ATOM     17  N23 NRV d   1      18.122 -11.987  33.361  0.00  0.00    -0.143 NA
ATOM     18  N22 NRV d   1      17.266 -11.152  33.994  0.00  0.00    -0.122 NA
BRANCH   5  19
ATOM     19  C01 NRV d   1      21.731 -11.371  36.520  0.00  0.00    -0.012 C 
ATOM     20  H1  NRV d   1      22.744 -11.798  36.550  0.00  0.00     0.057 H 
ATOM     21  H2  NRV d   1      21.186 -11.655  37.432  0.00  0.00     0.057 H 
ATOM     22  H3  NRV d   1      21.797 -10.275  36.458  0.00  0.00     0.057 H 
ENDBRANCH   5  19
ENDBRANCH   1   2
BRANCH   1  23
ATOM     23  C15 NRV d   1      17.383  -7.847  36.269  0.00  0.00     0.007 C 
ATOM     24  H7  NRV d   1      16.644  -7.095  36.582  0.00  0.00     0.052 H 
ATOM     25  H8  NRV d   1      17.870  -7.518  35.339  0.00  0.00     0.052 H 
BRANCH  23  26
ATOM     26  C16 NRV d   1      18.439  -7.971  37.353  0.00  0.00     0.091 C 
ATOM     27  H9  NRV d   1      19.390  -7.605  36.938  0.00  0.00     0.077 H 
ATOM     28  H10 NRV d   1      18.535  -9.037  37.607  0.00  0.00     0.077 H 
BRANCH  26  29
ATOM     29  N17 NRV d   1      18.178  -7.225  38.617  0.00  0.00    -0.071 N 
ATOM     30  H11 NRV d   1      17.623  -7.811  39.220  0.00  0.00     0.279 HD
BRANCH  29  31
ATOM     31  C18 NRV d   1      19.510  -6.983  39.259  0.00  0.00     0.080 C 
ATOM     32  H12 NRV d   1      19.376  -6.335  40.137  0.00  0.00     0.075 H 
ATOM     33  H13 NRV d   1      20.176  -6.488  38.536  0.00  0.00     0.075 H 
BRANCH  31  34
ATOM     34  C19 NRV d   1      20.142  -8.308  39.702  0.00  0.00    -0.053 C 
ATOM     35  H14 NRV d   1      21.118  -8.110  40.170  0.00  0.00     0.029 H 
ATOM     36  H15 NRV d   1      20.281  -8.959  38.826  0.00  0.00     0.029 H 
ATOM     37  H16 NRV d   1      19.481  -8.805  40.427  0.00  0.00     0.029 H 
ENDBRANCH  31  34
ENDBRANCH  29  31
BRANCH  29  38
ATOM     38  C20 NRV d   1      17.441  -5.932  38.441  0.00  0.00     0.080 C 
ATOM     39  H17 NRV d   1      16.849  -5.992  37.516  0.00  0.00     0.075 H 
ATOM     40  H18 NRV d   1      18.178  -5.120  38.353  0.00  0.00     0.075 H 
BRANCH  38  41
ATOM     41  C21 NRV d   1      16.517  -5.611  39.574  0.00  0.00    -0.053 C 
ATOM     42  H19 NRV d   1      16.013  -4.653  39.376  0.00  0.00     0.029 H 
ATOM     43  H20 NRV d   1      17.094  -5.536  40.508  0.00  0.00     0.029 H 
ATOM     44  H21 NRV d   1      15.765  -6.408  39.671  0.00  0.00     0.029 H 
ENDBRANCH  38  41
ENDBRANCH  29  38
ENDBRANCH  26  29
ENDBRANCH  23  26
ENDBRANCH   1  23
TORSDOF 9
