REMARK  4 active torsions:
REMARK  status: ('A' for Active; 'I' for Inactive)
REMARK    1  A    between atoms: C12_2  and  C11_4 
REMARK    2  A    between atoms: C11_4  and  S10_5 
REMARK    3  A    between atoms: S10_5  and  C6_6 
REMARK    4  A    between atoms: C1_11  and  C7_12 
ROOT
ATOM      1  C6  O2Y d   1       0.794  -4.242   9.758  0.00  0.00     0.036 A 
ATOM      2  C5  O2Y d   1      -0.194  -5.186   9.564  0.00  0.00    -0.063 A 
ATOM      3  C4  O2Y d   1      -1.526  -4.821   9.664  0.00  0.00    -0.065 A 
ATOM      4  C3  O2Y d   1      -1.864  -3.504   9.919  0.00  0.00     0.003 A 
ATOM      5  N2  O2Y d   1      -0.921  -2.583  10.107  0.00  0.00    -0.253 NA
ATOM      6  C1  O2Y d   1       0.408  -2.909  10.059  0.00  0.00     0.149 A 
ATOM      7  H3  O2Y d   1       0.072  -6.211   9.334  0.00  0.00     0.085 H 
ATOM      8  H4  O2Y d   1      -2.303  -5.567   9.543  0.00  0.00     0.085 H 
ATOM      9  H5  O2Y d   1      -2.909  -3.219   9.966  0.00  0.00     0.114 H 
ENDROOT
BRANCH   1  10
ATOM     10  S10 O2Y d   1       2.524  -4.739   9.650  0.00  0.00    -0.117 SA
BRANCH  10  11
ATOM     11  C11 O2Y d   1       2.415  -6.508   9.157  0.00  0.00     0.061 C 
ATOM     12  H1  O2Y d   1       1.961  -7.089   9.973  0.00  0.00     0.065 H 
ATOM     13  H2  O2Y d   1       1.795  -6.599   8.253  0.00  0.00     0.065 H 
BRANCH  11  14
ATOM     14  C12 O2Y d   1       3.787  -7.033   8.875  0.00  0.00     0.182 C 
ATOM     15  O14 O2Y d   1       3.880  -7.585   7.802  0.00  0.00    -0.647 OA
ATOM     16  O13 O2Y d   1       4.754  -6.775   9.664  0.00  0.00    -0.647 OA
ENDBRANCH  11  14
ENDBRANCH  10  11
ENDBRANCH   1  10
BRANCH   6  17
ATOM     17  C7  O2Y d   1       1.325  -1.865  10.285  0.00  0.00     0.230 C 
ATOM     18  O8  O2Y d   1       2.563  -2.150  10.287  0.00  0.00    -0.643 OA
ATOM     19  O9  O2Y d   1       0.886  -0.688  10.538  0.00  0.00    -0.643 OA
ENDBRANCH   6  17
TORSDOF 4
