REMARK  4 active torsions:
REMARK  status: ('A' for Active; 'I' for Inactive)
REMARK    1  A    between atoms: N11_26  and  C15_4 
REMARK    2  A    between atoms: C8_23  and  C21_10 
REMARK    3  A    between atoms: C8_23  and  C22_11 
REMARK    4  A    between atoms: C4_19  and  C23_12 
ROOT
ATOM      1  C2  O3Y d   1     -14.665  27.193  19.516  0.00  0.00     0.158 A 
ATOM      2  C3  O3Y d   1     -14.534  26.487  18.268  0.00  0.00     0.079 A 
ATOM      3  C13 O3Y d   1     -14.052  27.448  17.365  0.00  0.00     0.215 A 
ATOM      4  C10 O3Y d   1     -15.491  25.324  20.519  0.00  0.00     0.052 A 
ATOM      5  C4  O3Y d   1     -14.916  25.128  18.162  0.00  0.00     0.010 A 
ATOM      6  C5  O3Y d   1     -15.370  24.517  19.328  0.00  0.00     0.047 A 
ATOM      7  C6  O3Y d   1     -15.622  23.068  19.414  0.00  0.00     0.163 C 
ATOM      8  C7  O3Y d   1     -16.117  22.474  20.733  0.00  0.00     0.002 C 
ATOM      9  C8  O3Y d   1     -16.904  23.486  21.579  0.00  0.00    -0.036 C 
ATOM     10  C9  O3Y d   1     -16.040  24.743  21.798  0.00  0.00    -0.017 C 
ATOM     11  N1  O3Y d   1     -15.175  26.592  20.670  0.00  0.00    -0.232 NA
ATOM     12  N11 O3Y d   1     -13.896  28.613  18.070  0.00  0.00    -0.229 N 
ATOM     13  N12 O3Y d   1     -14.277  28.491  19.422  0.00  0.00    -0.274 N 
ATOM     14  O14 O3Y d   1     -15.406  22.319  18.452  0.00  0.00    -0.292 OA
ATOM     15  O30 O3Y d   1     -13.866  27.429  16.048  0.00  0.00    -0.169 OA
ATOM     16  H16 O3Y d   1     -15.248  22.131  21.313  0.00  0.00     0.046 H 
ATOM     17  H17 O3Y d   1     -16.770  21.618  20.510  0.00  0.00     0.046 H 
ATOM     18  H18 O3Y d   1     -16.657  25.508  22.292  0.00  0.00     0.043 H 
ATOM     19  H19 O3Y d   1     -15.195  24.476  22.450  0.00  0.00     0.043 H 
ATOM     20  H20 O3Y d   1     -14.264  29.211  20.159  0.00  0.00     0.189 HD
ENDROOT
BRANCH   5  21
ATOM     21  C23 O3Y d   1     -14.819  24.509  16.797  0.00  0.00    -0.002 A 
ATOM     22  C24 O3Y d   1     -15.898  24.407  15.911  0.00  0.00     0.045 A 
ATOM     23  C25 O3Y d   1     -15.743  23.975  14.581  0.00  0.00    -0.061 A 
ATOM     24 CL29 O3Y d   1     -17.461  24.742  16.458  0.00  0.00    -0.083 Cl
ATOM     25  C26 O3Y d   1     -14.474  23.607  14.167  0.00  0.00    -0.081 A 
ATOM     26  H12 O3Y d   1     -16.588  23.932  13.904  0.00  0.00     0.086 H 
ATOM     27  C27 O3Y d   1     -13.402  23.658  15.045  0.00  0.00    -0.082 A 
ATOM     28  H13 O3Y d   1     -14.317  23.276  13.147  0.00  0.00     0.083 H 
ATOM     29  C28 O3Y d   1     -13.568  24.110  16.347  0.00  0.00    -0.070 A 
ATOM     30  H14 O3Y d   1     -12.421  23.341  14.710  0.00  0.00     0.083 H 
ATOM     31  H15 O3Y d   1     -12.716  24.152  17.016  0.00  0.00     0.084 H 
ENDBRANCH   5  21
BRANCH  12  32
ATOM     32  C15 O3Y d   1     -13.439  29.884  17.566  0.00  0.00     0.059 A 
ATOM     33  C16 O3Y d   1     -12.471  29.953  16.552  0.00  0.00    -0.055 A 
ATOM     34  C17 O3Y d   1     -12.039  31.222  16.134  0.00  0.00    -0.081 A 
ATOM     35  H1  O3Y d   1     -12.068  29.052  16.104  0.00  0.00     0.087 H 
ATOM     36  C18 O3Y d   1     -12.558  32.379  16.724  0.00  0.00    -0.083 A 
ATOM     37  H2  O3Y d   1     -11.297  31.306  15.348  0.00  0.00     0.083 H 
ATOM     38  C19 O3Y d   1     -13.526  32.291  17.743  0.00  0.00    -0.081 A 
ATOM     39  H3  O3Y d   1     -12.212  33.352  16.394  0.00  0.00     0.083 H 
ATOM     40  C20 O3Y d   1     -13.987  31.023  18.178  0.00  0.00    -0.055 A 
ATOM     41  H4  O3Y d   1     -13.919  33.194  18.195  0.00  0.00     0.083 H 
ATOM     42  H5  O3Y d   1     -14.737  30.936  18.956  0.00  0.00     0.087 H 
ENDBRANCH  12  32
BRANCH   9  43
ATOM     43  C21 O3Y d   1     -18.208  23.823  20.874  0.00  0.00    -0.069 C 
ATOM     44  H6  O3Y d   1     -18.797  22.905  20.735  0.00  0.00     0.028 H 
ATOM     45  H7  O3Y d   1     -17.990  24.271  19.893  0.00  0.00     0.028 H 
ATOM     46  H8  O3Y d   1     -18.781  24.537  21.484  0.00  0.00     0.028 H 
ENDBRANCH   9  43
BRANCH   9  47
ATOM     47  C22 O3Y d   1     -17.217  22.865  22.955  0.00  0.00    -0.069 C 
ATOM     48  H9  O3Y d   1     -16.276  22.619  23.469  0.00  0.00     0.028 H 
ATOM     49  H10 O3Y d   1     -17.810  21.949  22.817  0.00  0.00     0.028 H 
ATOM     50  H11 O3Y d   1     -17.789  23.584  23.560  0.00  0.00     0.028 H 
ENDBRANCH   9  47
TORSDOF 4
