REMARK  4 active torsions:
REMARK  status: ('A' for Active; 'I' for Inactive)
REMARK    1  A    between atoms: C4_3  and  C24_21 
REMARK    2  A    between atoms: C8_7  and  C21_13 
REMARK    3  A    between atoms: C8_7  and  C22_14 
REMARK    4  A    between atoms: C15_19  and  N11_24 
ROOT
ATOM      1  C2  O3V d   1     -14.922  27.067  19.421  0.00  0.00     0.158 A 
ATOM      2  C3  O3V d   1     -14.821  26.393  18.157  0.00  0.00     0.080 A 
ATOM      3  C4  O3V d   1     -15.236  25.039  18.030  0.00  0.00     0.015 A 
ATOM      4  C5  O3V d   1     -15.707  24.426  19.189  0.00  0.00     0.047 A 
ATOM      5  C6  O3V d   1     -16.022  22.993  19.263  0.00  0.00     0.163 C 
ATOM      6  C7  O3V d   1     -16.548  22.430  20.563  0.00  0.00     0.002 C 
ATOM      7  C8  O3V d   1     -17.364  23.441  21.363  0.00  0.00    -0.036 C 
ATOM      8  C13 O3V d   1     -14.274  27.354  17.290  0.00  0.00     0.215 A 
ATOM      9  C10 O3V d   1     -15.811  25.209  20.405  0.00  0.00     0.052 A 
ATOM     10  C9  O3V d   1     -16.463  24.636  21.663  0.00  0.00    -0.017 C 
ATOM     11  N1  O3V d   1     -15.430  26.471  20.544  0.00  0.00    -0.232 NA
ATOM     12  N11 O3V d   1     -14.065  28.492  18.028  0.00  0.00    -0.229 N 
ATOM     13  N12 O3V d   1     -14.460  28.353  19.353  0.00  0.00    -0.274 N 
ATOM     14  O14 O3V d   1     -15.874  22.245  18.311  0.00  0.00    -0.292 OA
ATOM     15  O23 O3V d   1     -14.002  27.357  15.982  0.00  0.00    -0.169 OA
ATOM     16  H1  O3V d   1     -15.694  22.105  21.176  0.00  0.00     0.046 H 
ATOM     17  H2  O3V d   1     -17.187  21.564  20.337  0.00  0.00     0.046 H 
ATOM     18  H17 O3V d   1     -15.671  24.315  22.356  0.00  0.00     0.043 H 
ATOM     19  H18 O3V d   1     -17.068  25.423  22.137  0.00  0.00     0.043 H 
ATOM     20  H19 O3V d   1     -14.415  29.053  20.107  0.00  0.00     0.189 HD
ENDROOT
BRANCH  12  21
ATOM     21  C15 O3V d   1     -13.506  29.726  17.546  0.00  0.00     0.059 A 
ATOM     22  C20 O3V d   1     -13.930  30.906  18.143  0.00  0.00    -0.055 A 
ATOM     23  C19 O3V d   1     -13.378  32.108  17.711  0.00  0.00    -0.081 A 
ATOM     24  H6  O3V d   1     -14.676  30.891  18.930  0.00  0.00     0.087 H 
ATOM     25  C18 O3V d   1     -12.423  32.119  16.704  0.00  0.00    -0.083 A 
ATOM     26  H5  O3V d   1     -13.695  33.041  18.163  0.00  0.00     0.083 H 
ATOM     27  C17 O3V d   1     -12.017  30.935  16.111  0.00  0.00    -0.081 A 
ATOM     28  H4  O3V d   1     -11.992  33.059  16.380  0.00  0.00     0.083 H 
ATOM     29  C16 O3V d   1     -12.546  29.715  16.514  0.00  0.00    -0.055 A 
ATOM     30  H3  O3V d   1     -11.275  30.960  15.321  0.00  0.00     0.083 H 
ATOM     31  H16 O3V d   1     -12.231  28.787  16.051  0.00  0.00     0.087 H 
ENDBRANCH  12  21
BRANCH   3  32
ATOM     32  C24 O3V d   1     -15.197  24.458  16.682  0.00  0.00     0.017 A 
ATOM     33  C25 O3V d   1     -14.084  23.957  16.027  0.00  0.00    -0.065 A 
ATOM     34  C26 O3V d   1     -14.396  23.529  14.684  0.00  0.00    -0.075 A 
ATOM     35  H13 O3V d   1     -13.092  23.894  16.472  0.00  0.00     0.085 H 
ATOM     36  C27 O3V d   1     -15.714  23.716  14.381  0.00  0.00    -0.044 A 
ATOM     37  H14 O3V d   1     -13.666  23.107  13.994  0.00  0.00     0.084 H 
ATOM     38  S28 O3V d   1     -16.604  24.395  15.676  0.00  0.00    -0.101 SA
ATOM     39  H15 O3V d   1     -16.153  23.460  13.418  0.00  0.00     0.095 H 
ENDBRANCH   3  32
BRANCH   7  40
ATOM     40  C21 O3V d   1     -17.789  22.814  22.681  0.00  0.00    -0.069 C 
ATOM     41  H7  O3V d   1     -18.378  23.541  23.260  0.00  0.00     0.028 H 
ATOM     42  H8  O3V d   1     -16.896  22.526  23.255  0.00  0.00     0.028 H 
ATOM     43  H9  O3V d   1     -18.401  21.922  22.482  0.00  0.00     0.028 H 
ENDBRANCH   7  40
BRANCH   7  44
ATOM     44  C22 O3V d   1     -18.618  23.891  20.577  0.00  0.00    -0.069 C 
ATOM     45  H10 O3V d   1     -18.310  24.345  19.623  0.00  0.00     0.028 H 
ATOM     46  H11 O3V d   1     -19.177  24.629  21.170  0.00  0.00     0.028 H 
ATOM     47  H12 O3V d   1     -19.259  23.019  20.378  0.00  0.00     0.028 H 
ENDBRANCH   7  44
TORSDOF 4
