REMARK  8 active torsions:
REMARK  status: ('A' for Active; 'I' for Inactive)
REMARK    1  A    between atoms: S4_25  and  C1_1 
REMARK    2  A    between atoms: C2_2  and  N11_18 
REMARK    3  A    between atoms: C12_3  and  O19_23 
REMARK    4  A    between atoms: C17_8  and  C22_12 
REMARK    5  A    between atoms: C21_11  and  C24_14 
REMARK    6  A    between atoms: O19_23  and  C21_11 
REMARK    7  A    between atoms: N3_19  and  C7_16 
REMARK    8  A    between atoms: C8_17  and  S4_25 
ROOT
ATOM      1  C1  O4V d   1     -11.628  27.573  15.352  0.00  0.00     0.225 A 
ATOM      2  C2  O4V d   1     -11.803  27.889  16.745  0.00  0.00     0.168 A 
ATOM      3  N3  O4V d   1     -13.207  28.115  16.853  0.00  0.00    -0.194 N 
ATOM      4  N5  O4V d   1     -12.921  27.620  14.757  0.00  0.00    -0.115 NA
ATOM      5  N6  O4V d   1     -13.817  27.928  15.613  0.00  0.00    -0.058 NA
ENDROOT
BRANCH   3   6
ATOM      6  C7  O4V d   1     -13.935  28.537  17.971  0.00  0.00     0.095 A 
ATOM      7  C12 O4V d   1     -14.045  29.901  18.175  0.00  0.00     0.097 A 
ATOM      8  C20 O4V d   1     -14.776  30.386  19.252  0.00  0.00    -0.048 A 
ATOM      9  C25 O4V d   1     -15.381  29.468  20.112  0.00  0.00    -0.080 A 
ATOM     10  H6  O4V d   1     -14.874  31.452  19.421  0.00  0.00     0.087 H 
ATOM     11  C23 O4V d   1     -15.266  28.083  19.905  0.00  0.00    -0.081 A 
ATOM     12  H16 O4V d   1     -15.952  29.832  20.958  0.00  0.00     0.083 H 
ATOM     13  C18 O4V d   1     -14.535  27.607  18.820  0.00  0.00    -0.052 A 
ATOM     14  H12 O4V d   1     -15.744  27.389  20.587  0.00  0.00     0.083 H 
ATOM     15  H5  O4V d   1     -14.435  26.543  18.640  0.00  0.00     0.087 H 
BRANCH   7  16
ATOM     16  O19 O4V d   1     -13.400  30.711  17.274  0.00  0.00    -0.349 OA
BRANCH  16  17
ATOM     17  C21 O4V d   1     -13.535  32.138  17.442  0.00  0.00     0.023 C 
ATOM     18  H7  O4V d   1     -14.530  32.491  17.135  0.00  0.00     0.074 H 
ATOM     19  H8  O4V d   1     -13.341  32.445  18.480  0.00  0.00     0.074 H 
BRANCH  17  20
ATOM     20  C24 O4V d   1     -12.440  32.633  16.491  0.00  0.00    -0.056 C 
ATOM     21  H13 O4V d   1     -12.412  33.733  16.504  0.00  0.00     0.030 H 
ATOM     22  H14 O4V d   1     -12.655  32.284  15.470  0.00  0.00     0.030 H 
ATOM     23  H15 O4V d   1     -11.466  32.238  16.816  0.00  0.00     0.030 H 
ENDBRANCH  17  20
ENDBRANCH  16  17
ENDBRANCH   7  16
ENDBRANCH   3   6
BRANCH   2  24
ATOM     24  N11 O4V d   1     -10.900  27.971  17.778  0.00  0.00    -0.381 N 
ATOM     25  H17 O4V d   1      -9.901  27.790  17.604  0.00  0.00     0.157 HD
ATOM     26  H18 O4V d   1     -11.222  28.213  18.726  0.00  0.00     0.157 HD
ENDBRANCH   2  24
BRANCH   1  27
ATOM     27  S4  O4V d   1     -10.326  27.216  14.421  0.00  0.00     0.229 S 
ATOM     28  O10 O4V d   1      -9.304  26.799  15.321  0.00  0.00    -0.215 OA
ATOM     29  O9  O4V d   1     -10.675  26.363  13.328  0.00  0.00    -0.215 OA
BRANCH  27  30
ATOM     30  C8  O4V d   1      -9.856  28.670  13.823  0.00  0.00     0.066 A 
ATOM     31  C13 O4V d   1      -9.736  29.766  14.665  0.00  0.00    -0.061 A 
ATOM     32  C16 O4V d   1      -9.254  30.985  14.196  0.00  0.00    -0.076 A 
ATOM     33  H1  O4V d   1     -10.023  29.672  15.706  0.00  0.00     0.085 H 
ATOM     34  C17 O4V d   1      -8.886  31.115  12.871  0.00  0.00    -0.062 A 
ATOM     35  H4  O4V d   1      -9.168  31.830  14.869  0.00  0.00     0.084 H 
ATOM     36  C15 O4V d   1      -9.009  30.034  11.989  0.00  0.00    -0.076 A 
ATOM     37  C14 O4V d   1      -9.498  28.818  12.470  0.00  0.00    -0.061 A 
ATOM     38  H3  O4V d   1      -8.728  30.140  10.947  0.00  0.00     0.084 H 
ATOM     39  H2  O4V d   1      -9.603  27.978  11.793  0.00  0.00     0.085 H 
BRANCH  34  40
ATOM     40  C22 O4V d   1      -8.348  32.394  12.393  0.00  0.00    -0.051 C 
ATOM     41  H9  O4V d   1      -8.111  32.315  11.322  0.00  0.00     0.033 H 
ATOM     42  H10 O4V d   1      -7.434  32.640  12.953  0.00  0.00     0.033 H 
ATOM     43  H11 O4V d   1      -9.096  33.186  12.546  0.00  0.00     0.033 H 
ENDBRANCH  34  40
ENDBRANCH  27  30
ENDBRANCH   1  27
TORSDOF 8
