REMARK  7 active torsions:
REMARK  status: ('A' for Active; 'I' for Inactive)
REMARK    1  A    between atoms: C11_3  and  C13_5 
REMARK    2  A    between atoms: N1_29  and  C11_3 
REMARK       I    between atoms: C13_5  and  N17_31 
REMARK    3  A    between atoms: C20_8  and  C21_9 
REMARK    4  A    between atoms: N17_31  and  C20_8 
REMARK    5  A    between atoms: C22_10  and  C30_18 
REMARK    6  A    between atoms: C30_18  and  C35_23 
REMARK    7  A    between atoms: C7_26  and  C9_28 
REMARK       I    between atoms: C7_26  and  N10_30 
ROOT
ATOM      1  C2  O4S d   1      -8.710  27.459  13.354  0.00  0.00     0.247 C 
ATOM      2  C3  O4S d   1     -10.450  28.247  14.908  0.00  0.00     0.065 A 
ATOM      3  C12 O4S d   1     -11.012  30.605  15.145  0.00  0.00    -0.054 A 
ATOM      4  C15 O4S d   1     -12.070  30.300  15.989  0.00  0.00    -0.065 A 
ATOM      5  C19 O4S d   1      -8.901  31.352  13.293  0.00  0.00    -0.004 C 
ATOM      6  C25 O4S d   1      -9.144  29.043  11.486  0.00  0.00    -0.038 C 
ATOM      7  C31 O4S d   1      -9.506  31.467  11.904  0.00  0.00    -0.050 C 
ATOM      8  C34 O4S d   1      -8.859  30.455  10.944  0.00  0.00    -0.061 C 
ATOM      9  C5  O4S d   1     -10.170  29.606  14.596  0.00  0.00     0.058 A 
ATOM     10  C6  O4S d   1      -8.477  28.891  12.872  0.00  0.00     0.089 C 
ATOM     11  C8  O4S d   1     -11.526  27.954  15.769  0.00  0.00    -0.039 A 
ATOM     12  C9  O4S d   1     -12.312  28.994  16.298  0.00  0.00     0.034 A 
ATOM     13  N1  O4S d   1      -9.646  27.200  14.349  0.00  0.00    -0.305 N 
ATOM     14  N4  O4S d   1      -9.016  29.935  13.801  0.00  0.00    -0.365 N 
ATOM     15  O14 O4S d   1      -8.088  26.536  12.852  0.00  0.00    -0.271 OA
ATOM     16  H3  O4S d   1     -10.823  31.643  14.897  0.00  0.00     0.087 H 
ATOM     17  H4  O4S d   1     -12.694  31.087  16.396  0.00  0.00     0.085 H 
ATOM     18  H5  O4S d   1      -9.435  32.027  13.978  0.00  0.00     0.064 H 
ATOM     19  H6  O4S d   1      -7.839  31.637  13.251  0.00  0.00     0.064 H 
ATOM     20  H11 O4S d   1      -8.733  28.293  10.795  0.00  0.00     0.036 H 
ATOM     21  H12 O4S d   1     -10.230  28.897  11.582  0.00  0.00     0.036 H 
ATOM     22  H21 O4S d   1      -9.340  32.485  11.521  0.00  0.00     0.035 H 
ATOM     23  H22 O4S d   1     -10.586  31.269  11.963  0.00  0.00     0.035 H 
ATOM     24  H27 O4S d   1      -9.291  30.564   9.938  0.00  0.00     0.033 H 
ATOM     25  H28 O4S d   1      -7.773  30.625  10.897  0.00  0.00     0.033 H 
ATOM     26  H32 O4S d   1      -7.393  29.050  12.772  0.00  0.00     0.087 H 
ATOM     27  H33 O4S d   1     -11.749  26.924  16.025  0.00  0.00     0.088 H 
ENDROOT
BRANCH  13  28
ATOM     28  C11 O4S d   1      -9.804  25.815  14.813  0.00  0.00     0.076 C 
ATOM     29  H1  O4S d   1      -8.933  25.225  14.493  0.00  0.00     0.079 H 
ATOM     30  H2  O4S d   1      -9.870  25.806  15.911  0.00  0.00     0.079 H 
BRANCH  28  31
ATOM     31  C13 O4S d   1     -11.079  25.193  14.226  0.00  0.00     0.236 C 
ATOM     32  N17 O4S d   1     -11.538  24.008  14.801  0.00  0.00    -0.355 N 
ATOM     33  H34 O4S d   1     -11.040  23.589  15.560  0.00  0.00     0.162 HD
ATOM     34  O18 O4S d   1     -11.694  25.720  13.307  0.00  0.00    -0.272 OA
BRANCH  32  35
ATOM     35  C20 O4S d   1     -12.789  23.367  14.268  0.00  0.00     0.019 C 
ATOM     36  H7  O4S d   1     -12.981  23.734  13.249  0.00  0.00     0.071 H 
ATOM     37  H8  O4S d   1     -12.659  22.275  14.246  0.00  0.00     0.071 H 
BRANCH  35  38
ATOM     38  C21 O4S d   1     -13.966  23.716  15.159  0.00  0.00    -0.041 A 
ATOM     39  C23 O4S d   1     -13.797  23.640  16.528  0.00  0.00    -0.075 A 
ATOM     40  C26 O4S d   1     -14.833  23.966  17.386  0.00  0.00    -0.076 A 
ATOM     41  H9  O4S d   1     -12.844  23.322  16.934  0.00  0.00     0.084 H 
ATOM     42  C22 O4S d   1     -16.061  24.373  16.892  0.00  0.00    -0.059 A 
ATOM     43  H13 O4S d   1     -14.681  23.902  18.457  0.00  0.00     0.084 H 
ATOM     44  C27 O4S d   1     -16.259  24.458  15.507  0.00  0.00    -0.076 A 
ATOM     45  C24 O4S d   1     -15.202  24.125  14.635  0.00  0.00    -0.075 A 
ATOM     46  H14 O4S d   1     -17.216  24.777  15.110  0.00  0.00     0.084 H 
ATOM     47  H10 O4S d   1     -15.344  24.185  13.562  0.00  0.00     0.084 H 
BRANCH  42  48
ATOM     48  C30 O4S d   1     -17.126  24.685  17.893  0.00  0.00    -0.044 C 
ATOM     49  H19 O4S d   1     -16.948  25.685  18.315  0.00  0.00     0.039 H 
ATOM     50  H20 O4S d   1     -17.100  23.937  18.699  0.00  0.00     0.039 H 
BRANCH  48  51
ATOM     51  C35 O4S d   1     -18.493  24.656  17.221  0.00  0.00    -0.073 C 
ATOM     52  H29 O4S d   1     -19.271  24.886  17.963  0.00  0.00     0.028 H 
ATOM     53  H30 O4S d   1     -18.673  23.656  16.799  0.00  0.00     0.028 H 
ATOM     54  H31 O4S d   1     -18.522  25.404  16.415  0.00  0.00     0.028 H 
ENDBRANCH  48  51
ENDBRANCH  42  48
ENDBRANCH  35  38
ENDBRANCH  32  35
ENDBRANCH  28  31
ENDBRANCH  13  28
BRANCH  12  55
ATOM     55  C7  O4S d   1     -13.457  28.692  17.172  0.00  0.00     0.253 C 
ATOM     56  N10 O4S d   1     -13.388  27.698  18.106  0.00  0.00    -0.348 N 
ATOM     57  C28 O4S d   1     -14.588  27.393  18.913  0.00  0.00    -0.002 C 
ATOM     58  C29 O4S d   1     -12.231  26.845  18.471  0.00  0.00    -0.002 C 
ATOM     59  C32 O4S d   1     -14.112  26.356  19.945  0.00  0.00    -0.049 C 
ATOM     60  H15 O4S d   1     -14.958  28.299  19.416  0.00  0.00     0.064 H 
ATOM     61  H16 O4S d   1     -15.384  26.974  18.281  0.00  0.00     0.064 H 
ATOM     62  C33 O4S d   1     -12.568  26.456  19.930  0.00  0.00    -0.049 C 
ATOM     63  H23 O4S d   1     -14.437  25.346  19.656  0.00  0.00     0.035 H 
ATOM     64  H24 O4S d   1     -14.505  26.596  20.944  0.00  0.00     0.035 H 
ATOM     65  H25 O4S d   1     -12.220  27.229  20.631  0.00  0.00     0.035 H 
ATOM     66  H26 O4S d   1     -12.111  25.490  20.192  0.00  0.00     0.035 H 
ATOM     67  H17 O4S d   1     -12.169  25.957  17.825  0.00  0.00     0.064 H 
ATOM     68  H18 O4S d   1     -11.287  27.406  18.415  0.00  0.00     0.064 H 
ATOM     69  O16 O4S d   1     -14.491  29.332  17.091  0.00  0.00    -0.267 OA
ENDBRANCH  12  55
TORSDOF 7
