REMARK  9 active torsions:
REMARK  status: ('A' for Active; 'I' for Inactive)
REMARK    1  A    between atoms: C2_2  and  C1_1 
REMARK    2  A    between atoms: C2_2  and  C7_22 
REMARK    3  A    between atoms: N5_24  and  C2_2 
REMARK    4  A    between atoms: C8_23  and  C12_4 
REMARK    5  A    between atoms: C12_4  and  O11_26 
REMARK    6  A    between atoms: O11_26  and  C16_7 
REMARK    7  A    between atoms: C18_9  and  O19_28 
REMARK    8  A    between atoms: N5_24  and  C20_10 
REMARK    9  A    between atoms: O19_28  and  C25_15 
REMARK       I    between atoms: C8_23  and  N5_24 
ROOT
ATOM      1  C8  O4P d   1     -10.811  26.252  14.526  0.00  0.00     0.244 C 
ATOM      2  N5  O4P d   1     -11.549  26.436  15.698  0.00  0.00    -0.341 N 
ATOM      3  O15 O4P d   1     -11.351  26.189  13.428  0.00  0.00    -0.271 OA
ENDROOT
BRANCH   2   4
ATOM      4  C2  O4P d   1     -13.057  26.633  15.648  0.00  0.00     0.073 C 
ATOM      5  H1  O4P d   1     -13.327  26.928  14.623  0.00  0.00     0.089 H 
BRANCH   4   6
ATOM      6  C1  O4P d   1     -13.481  27.761  16.539  0.00  0.00    -0.002 A 
ATOM      7  C3  O4P d   1     -14.392  27.754  17.583  0.00  0.00    -0.013 A 
ATOM      8  N6  O4P d   1     -14.490  29.046  18.118  0.00  0.00    -0.365 N 
ATOM      9  H2  O4P d   1     -14.944  26.883  17.933  0.00  0.00     0.112 H 
ATOM     10  C10 O4P d   1     -13.637  29.896  17.411  0.00  0.00     0.043 A 
ATOM     11  H22 O4P d   1     -15.094  29.323  18.905  0.00  0.00     0.165 HD
ATOM     12  C22 O4P d   1     -13.404  31.272  17.581  0.00  0.00    -0.056 A 
ATOM     13  C4  O4P d   1     -12.982  29.127  16.415  0.00  0.00     0.001 A 
ATOM     14  C27 O4P d   1     -12.496  31.868  16.735  0.00  0.00    -0.081 A 
ATOM     15  H12 O4P d   1     -13.918  31.841  18.347  0.00  0.00     0.086 H 
ATOM     16  C26 O4P d   1     -11.827  31.122  15.741  0.00  0.00    -0.082 A 
ATOM     17  H19 O4P d   1     -12.291  32.928  16.834  0.00  0.00     0.083 H 
ATOM     18  C21 O4P d   1     -12.062  29.763  15.573  0.00  0.00    -0.070 A 
ATOM     19  H18 O4P d   1     -11.114  31.620  15.094  0.00  0.00     0.083 H 
ATOM     20  H11 O4P d   1     -11.542  29.205  14.803  0.00  0.00     0.084 H 
ENDBRANCH   4   6
BRANCH   4  21
ATOM     21  C7  O4P d   1     -13.715  25.299  15.910  0.00  0.00     0.010 A 
ATOM     22  C13 O4P d   1     -13.888  24.704  17.122  0.00  0.00    -0.068 A 
ATOM     23  C17 O4P d   1     -14.491  23.409  17.006  0.00  0.00    -0.076 A 
ATOM     24  H5  O4P d   1     -13.602  25.159  18.069  0.00  0.00     0.085 H 
ATOM     25  C14 O4P d   1     -14.754  23.077  15.723  0.00  0.00    -0.044 A 
ATOM     26  H7  O4P d   1     -14.712  22.765  17.856  0.00  0.00     0.084 H 
ATOM     27  S9  O4P d   1     -14.296  24.289  14.635  0.00  0.00    -0.104 SA
ATOM     28  H6  O4P d   1     -15.210  22.135  15.423  0.00  0.00     0.095 H 
ENDBRANCH   4  21
ENDBRANCH   2   4
BRANCH   2  29
ATOM     29  C20 O4P d   1     -10.901  26.378  17.033  0.00  0.00    -0.015 C 
ATOM     30  H8  O4P d   1      -9.818  26.233  16.909  0.00  0.00     0.056 H 
ATOM     31  H9  O4P d   1     -11.319  25.539  17.608  0.00  0.00     0.056 H 
ATOM     32  H10 O4P d   1     -11.086  27.319  17.572  0.00  0.00     0.056 H 
ENDBRANCH   2  29
BRANCH   1  33
ATOM     33  C12 O4P d   1      -9.276  26.088  14.601  0.00  0.00     0.100 C 
ATOM     34  H3  O4P d   1      -9.022  25.095  15.000  0.00  0.00     0.089 H 
ATOM     35  H4  O4P d   1      -8.845  26.865  15.250  0.00  0.00     0.089 H 
BRANCH  33  36
ATOM     36  O11 O4P d   1      -8.772  26.224  13.277  0.00  0.00    -0.339 OA
BRANCH  36  37
ATOM     37  C16 O4P d   1      -8.773  27.498  12.741  0.00  0.00     0.102 A 
ATOM     38  C18 O4P d   1      -8.682  27.659  11.283  0.00  0.00     0.101 A 
ATOM     39  C24 O4P d   1      -8.563  28.987  10.839  0.00  0.00    -0.048 A 
ATOM     40  C28 O4P d   1      -8.580  30.075  11.764  0.00  0.00    -0.080 A 
ATOM     41  H14 O4P d   1      -8.457  29.189   9.779  0.00  0.00     0.087 H 
ATOM     42  C29 O4P d   1      -8.710  29.904  13.134  0.00  0.00    -0.080 A 
ATOM     43  H20 O4P d   1      -8.487  31.083  11.377  0.00  0.00     0.083 H 
ATOM     44  C23 O4P d   1      -8.803  28.627  13.629  0.00  0.00    -0.048 A 
ATOM     45  H21 O4P d   1      -8.738  30.759  13.799  0.00  0.00     0.083 H 
ATOM     46  H13 O4P d   1      -8.900  28.469  14.697  0.00  0.00     0.087 H 
BRANCH  38  47
ATOM     47  O19 O4P d   1      -8.823  26.538  10.378  0.00  0.00    -0.353 OA
BRANCH  47  48
ATOM     48  C25 O4P d   1      -8.372  26.558   8.937  0.00  0.00     0.010 C 
ATOM     49  H15 O4P d   1      -8.592  25.586   8.470  0.00  0.00     0.066 H 
ATOM     50  H16 O4P d   1      -7.290  26.748   8.894  0.00  0.00     0.066 H 
ATOM     51  H17 O4P d   1      -8.906  27.354   8.397  0.00  0.00     0.066 H 
ENDBRANCH  47  48
ENDBRANCH  38  47
ENDBRANCH  36  37
ENDBRANCH  33  36
ENDBRANCH   1  33
TORSDOF 9
