REMARK  4 active torsions:
REMARK  status: ('A' for Active; 'I' for Inactive)
REMARK    1  A    between atoms: C1_1  and  C3_3 
REMARK       I    between atoms: N4_21  and  C1_1 
REMARK    2  A    between atoms: C6_18  and  C2_2 
REMARK       I    between atoms: C2_2  and  N5_22 
REMARK    3  A    between atoms: N5_22  and  C11_4 
REMARK    4  A    between atoms: C12_5  and  N4_21 
ROOT
ATOM      1  C11 O4G d   1     -13.791  29.518  17.805  0.00  0.00     0.037 A 
ATOM      2  C12 O4G d   1     -12.251  30.716  16.394  0.00  0.00     0.037 A 
ATOM      3  C17 O4G d   1     -12.744  29.483  16.852  0.00  0.00    -0.031 A 
ATOM      4  C23 O4G d   1     -13.792  31.927  17.780  0.00  0.00    -0.079 A 
ATOM      5  C24 O4G d   1     -14.305  30.740  18.264  0.00  0.00    -0.057 A 
ATOM      6  C25 O4G d   1     -12.772  31.929  16.854  0.00  0.00    -0.057 A 
ATOM      7  H2  O4G d   1     -12.340  28.544  16.491  0.00  0.00     0.090 H 
ATOM      8  H7  O4G d   1     -14.197  32.869  18.133  0.00  0.00     0.083 H 
ATOM      9  H8  O4G d   1     -15.103  30.752  18.997  0.00  0.00     0.086 H 
ATOM     10  H9  O4G d   1     -12.375  32.867  16.484  0.00  0.00     0.086 H 
ENDROOT
BRANCH   1  11
ATOM     11  N5  O4G d   1     -14.409  28.339  18.318  0.00  0.00    -0.323 N 
ATOM     12  C2  O4G d   1     -14.740  27.254  17.517  0.00  0.00     0.256 C 
ATOM     13  O16 O4G d   1     -14.495  27.224  16.302  0.00  0.00    -0.267 OA
ATOM     14  H16 O4G d   1     -14.613  28.292  19.296  0.00  0.00     0.169 HD
BRANCH  12  15
ATOM     15  C6  O4G d   1     -15.433  26.130  18.232  0.00  0.00     0.035 A 
ATOM     16  C20 O4G d   1     -16.193  25.282  17.426  0.00  0.00    -0.065 A 
ATOM     17  C22 O4G d   1     -16.994  24.297  17.984  0.00  0.00    -0.047 A 
ATOM     18  H4  O4G d   1     -16.157  25.395  16.349  0.00  0.00     0.085 H 
ATOM     19  C10 O4G d   1     -17.009  24.161  19.367  0.00  0.00     0.102 A 
ATOM     20  H6  O4G d   1     -17.594  23.648  17.356  0.00  0.00     0.087 H 
ATOM     21  C7  O4G d   1     -16.235  25.007  20.207  0.00  0.00     0.103 A 
ATOM     22  O18 O4G d   1     -17.778  23.140  19.892  0.00  0.00    -0.346 OA
ATOM     23  C8  O4G d   1     -15.421  26.007  19.643  0.00  0.00    -0.033 A 
ATOM     24  O13 O4G d   1     -16.306  24.882  21.591  0.00  0.00    -0.346 OA
ATOM     25  H14 O4G d   1     -14.811  26.655  20.262  0.00  0.00     0.089 H 
ATOM     26  C26 O4G d   1     -17.412  24.069  21.952  0.00  0.00     0.046 C 
ATOM     27  C27 O4G d   1     -17.274  22.815  21.166  0.00  0.00     0.046 C 
ATOM     28  H10 O4G d   1     -17.389  23.849  23.029  0.00  0.00     0.078 H 
ATOM     29  H11 O4G d   1     -18.356  24.575  21.701  0.00  0.00     0.078 H 
ATOM     30  H12 O4G d   1     -17.862  22.004  21.621  0.00  0.00     0.078 H 
ATOM     31  H13 O4G d   1     -16.219  22.511  21.101  0.00  0.00     0.078 H 
ENDBRANCH  12  15
ENDBRANCH   1  11
BRANCH   2  32
ATOM     32  N4  O4G d   1     -11.191  30.860  15.460  0.00  0.00    -0.321 N 
ATOM     33  C1  O4G d   1     -10.686  29.872  14.626  0.00  0.00     0.279 C 
ATOM     34  O15 O4G d   1     -11.085  28.700  14.586  0.00  0.00    -0.265 OA
ATOM     35  H15 O4G d   1     -10.766  31.763  15.397  0.00  0.00     0.169 HD
BRANCH  33  36
ATOM     36  C3  O4G d   1      -9.596  30.344  13.762  0.00  0.00     0.142 A 
ATOM     37  C14 O4G d   1      -8.957  31.561  13.792  0.00  0.00    -0.043 A 
ATOM     38  C21 O4G d   1      -8.004  31.538  12.728  0.00  0.00    -0.059 A 
ATOM     39  H1  O4G d   1      -9.141  32.379  14.488  0.00  0.00     0.088 H 
ATOM     40  C19 O4G d   1      -8.130  30.308  12.130  0.00  0.00     0.020 A 
ATOM     41  H5  O4G d   1      -7.316  32.335  12.448  0.00  0.00     0.086 H 
ATOM     42  O9  O4G d   1      -9.099  29.558  12.748  0.00  0.00    -0.317 OA
ATOM     43  H3  O4G d   1      -7.540  29.973  11.279  0.00  0.00     0.123 H 
ENDBRANCH  33  36
ENDBRANCH   2  32
TORSDOF 4
