REMARK  4 active torsions:
REMARK  status: ('A' for Active; 'I' for Inactive)
REMARK    1  A    between atoms: N15_23  and  C17_8 
REMARK    2  A    between atoms: C23_11  and  C28_16 
REMARK    3  A    between atoms: C8_20  and  C6_18 
REMARK    4  A    between atoms: C6_18  and  N1_22 
REMARK       I    between atoms: C8_20  and  N15_23 
ROOT
ATOM      1  C6  O4A d   1      -9.791  25.205  14.320  0.00  0.00     0.091 C 
ATOM      2  H16 O4A d   1      -9.407  24.269  14.753  0.00  0.00     0.082 H 
ATOM      3  H17 O4A d   1      -9.512  26.050  14.967  0.00  0.00     0.082 H 
ENDROOT
BRANCH   1   4
ATOM      4  C8  O4A d   1     -11.330  25.130  14.188  0.00  0.00     0.242 C 
ATOM      5  N15 O4A d   1     -11.987  24.323  15.122  0.00  0.00    -0.326 N 
ATOM      6  H19 O4A d   1     -11.442  23.749  15.733  0.00  0.00     0.169 HD
ATOM      7  O20 O4A d   1     -11.939  25.748  13.340  0.00  0.00    -0.271 OA
BRANCH   5   8
ATOM      8  C17 O4A d   1     -13.435  24.291  15.235  0.00  0.00     0.037 A 
ATOM      9  C12 O4A d   1     -14.003  24.598  16.444  0.00  0.00    -0.022 A 
ATOM     10  C11 O4A d   1     -15.363  24.586  16.561  0.00  0.00     0.104 A 
ATOM     11  H1  O4A d   1     -13.381  24.847  17.296  0.00  0.00     0.091 H 
ATOM     12  C16 O4A d   1     -16.190  24.261  15.527  0.00  0.00     0.102 A 
ATOM     13  O18 O4A d   1     -15.816  24.940  17.791  0.00  0.00    -0.346 OA
ATOM     14  C22 O4A d   1     -15.627  23.943  14.247  0.00  0.00    -0.046 A 
ATOM     15  O19 O4A d   1     -17.499  24.195  15.595  0.00  0.00    -0.346 OA
ATOM     16  C24 O4A d   1     -14.244  23.963  14.114  0.00  0.00    -0.054 A 
ATOM     17  H6  O4A d   1     -16.263  23.694  13.406  0.00  0.00     0.087 H 
ATOM     18  H7  O4A d   1     -13.785  23.730  13.160  0.00  0.00     0.087 H 
ATOM     19  C27 O4A d   1     -18.007  24.750  16.846  0.00  0.00     0.046 C 
ATOM     20  C26 O4A d   1     -17.043  24.344  17.983  0.00  0.00     0.046 C 
ATOM     21  H11 O4A d   1     -18.056  25.846  16.774  0.00  0.00     0.078 H 
ATOM     22  H12 O4A d   1     -19.012  24.351  17.049  0.00  0.00     0.078 H 
ATOM     23  H9  O4A d   1     -16.921  23.251  17.985  0.00  0.00     0.078 H 
ATOM     24  H10 O4A d   1     -17.459  24.669  18.948  0.00  0.00     0.078 H 
ENDBRANCH   5   8
ENDBRANCH   1   4
BRANCH   1  25
ATOM     25  N1  O4A d   1      -9.240  25.397  12.995  0.00  0.00    -0.260 N 
ATOM     26  C2  O4A d   1      -8.983  26.596  12.341  0.00  0.00     0.076 A 
ATOM     27  C3  O4A d   1      -9.098  27.980  12.734  0.00  0.00     0.027 A 
ATOM     28  C5  O4A d   1      -8.497  26.217  11.087  0.00  0.00     0.014 A 
ATOM     29  C14 O4A d   1      -9.851  28.542  13.810  0.00  0.00    -0.062 A 
ATOM     30  C9  O4A d   1      -8.307  28.834  11.943  0.00  0.00     0.081 A 
ATOM     31  C23 O4A d   1      -9.775  29.926  14.055  0.00  0.00    -0.061 A 
ATOM     32  H4  O4A d   1     -10.474  27.909  14.431  0.00  0.00     0.085 H 
ATOM     33  C25 O4A d   1      -8.959  30.724  13.296  0.00  0.00    -0.075 A 
ATOM     34  C21 O4A d   1      -8.219  30.200  12.235  0.00  0.00    -0.049 A 
ATOM     35  H8  O4A d   1      -8.887  31.781  13.524  0.00  0.00     0.084 H 
ATOM     36  H5  O4A d   1      -7.581  30.846  11.642  0.00  0.00     0.087 H 
ATOM     37  O10 O4A d   1      -7.627  28.432  10.809  0.00  0.00    -0.346 OA
ATOM     38  C13 O4A d   1      -8.100  27.234  10.108  0.00  0.00     0.053 C 
ATOM     39  H2  O4A d   1      -8.964  27.495   9.480  0.00  0.00     0.082 H 
ATOM     40  H3  O4A d   1      -7.293  26.837   9.475  0.00  0.00     0.082 H 
ATOM     41  C7  O4A d   1      -8.473  24.816  11.023  0.00  0.00     0.032 A 
ATOM     42  N4  O4A d   1      -8.932  24.310  12.209  0.00  0.00    -0.183 NA
ATOM     43  H18 O4A d   1      -8.143  24.227  10.169  0.00  0.00     0.118 H 
BRANCH  31  44
ATOM     44  C28 O4A d   1     -10.662  30.547  15.102  0.00  0.00    -0.051 C 
ATOM     45  H13 O4A d   1     -11.240  29.759  15.607  0.00  0.00     0.033 H 
ATOM     46  H14 O4A d   1     -11.351  31.258  14.624  0.00  0.00     0.033 H 
ATOM     47  H15 O4A d   1     -10.042  31.077  15.840  0.00  0.00     0.033 H 
ENDBRANCH  31  44
ENDBRANCH   1  25
TORSDOF 4
