REMARK  9 active torsions:
REMARK  status: ('A' for Active; 'I' for Inactive)
REMARK    1  A    between atoms: C1_1  and  N6_26 
REMARK    2  A    between atoms: C13_4  and  C29_17 
REMARK    3  A    between atoms: C8_20  and  C21_9 
REMARK    4  A    between atoms: C23_11  and  C22_10 
REMARK    5  A    between atoms: C22_10  and  N11_22 
REMARK    6  A    between atoms: C26_14  and  C23_11 
REMARK    7  A    between atoms: N20_24  and  C26_14 
REMARK    8  A    between atoms: C9_21  and  C10_18 
REMARK       I    between atoms: C10_18  and  N20_24 
REMARK    9  A    between atoms: C9_21  and  N2_23 
ROOT
ATOM      1  C9  O4D d   1     -11.230  25.752  15.488  0.00  0.00     0.092 C 
ATOM      2  H26 O4D d   1     -10.588  24.919  15.809  0.00  0.00     0.082 H 
ATOM      3  H27 O4D d   1     -11.550  26.329  16.368  0.00  0.00     0.082 H 
ENDROOT
BRANCH   1   4
ATOM      4  C10 O4D d   1     -12.433  25.234  14.725  0.00  0.00     0.237 C 
ATOM      5  N20 O4D d   1     -12.921  23.975  15.055  0.00  0.00    -0.360 N 
ATOM      6  H29 O4D d   1     -12.467  23.442  15.769  0.00  0.00     0.162 HD
ATOM      7  O18 O4D d   1     -12.881  25.939  13.827  0.00  0.00    -0.272 OA
BRANCH   5   8
ATOM      8  C26 O4D d   1     -14.106  23.411  14.364  0.00  0.00    -0.003 C 
ATOM      9  H17 O4D d   1     -14.039  23.624  13.287  0.00  0.00     0.064 H 
ATOM     10  H18 O4D d   1     -14.139  22.323  14.521  0.00  0.00     0.064 H 
BRANCH   8  11
ATOM     11  C23 O4D d   1     -15.399  24.061  14.944  0.00  0.00    -0.028 C 
ATOM     12  H11 O4D d   1     -15.424  25.120  14.648  0.00  0.00     0.037 H 
ATOM     13  H12 O4D d   1     -16.273  23.542  14.524  0.00  0.00     0.037 H 
BRANCH  11  14
ATOM     14  C22 O4D d   1     -15.467  23.975  16.494  0.00  0.00     0.085 C 
ATOM     15  H9  O4D d   1     -15.080  24.907  16.933  0.00  0.00     0.076 H 
ATOM     16  H10 O4D d   1     -14.862  23.126  16.844  0.00  0.00     0.076 H 
BRANCH  14  17
ATOM     17  N11 O4D d   1     -16.910  23.777  16.912  0.00  0.00    -0.067 N 
ATOM     18  C24 O4D d   1     -17.106  23.109  18.312  0.00  0.00     0.103 C 
ATOM     19  C28 O4D d   1     -18.316  23.675  19.177  0.00  0.00     0.042 C 
ATOM     20  H13 O4D d   1     -17.276  22.034  18.154  0.00  0.00     0.079 H 
ATOM     21  H14 O4D d   1     -16.180  23.253  18.889  0.00  0.00     0.079 H 
ATOM     22  O19 O4D d   1     -18.679  24.925  18.856  0.00  0.00    -0.388 OA
ATOM     23  H21 O4D d   1     -18.019  23.662  20.236  0.00  0.00     0.076 H 
ATOM     24  H22 O4D d   1     -19.184  23.015  19.031  0.00  0.00     0.076 H 
ATOM     25  C27 O4D d   1     -18.951  25.127  17.542  0.00  0.00     0.042 C 
ATOM     26  C25 O4D d   1     -17.604  25.115  16.782  0.00  0.00     0.103 C 
ATOM     27  H19 O4D d   1     -19.602  24.324  17.165  0.00  0.00     0.076 H 
ATOM     28  H20 O4D d   1     -19.450  26.098  17.407  0.00  0.00     0.076 H 
ATOM     29  H15 O4D d   1     -16.952  25.898  17.196  0.00  0.00     0.079 H 
ATOM     30  H16 O4D d   1     -17.792  25.319  15.717  0.00  0.00     0.079 H 
ATOM     31  H28 O4D d   1     -17.331  23.151  16.244  0.00  0.00     0.280 HD
ENDBRANCH  14  17
ENDBRANCH  11  14
ENDBRANCH   8  11
ENDBRANCH   5   8
ENDBRANCH   1   4
BRANCH   1  32
ATOM     32  N2  O4D d   1     -10.513  26.621  14.528  0.00  0.00    -0.241 N 
ATOM     33  C3  O4D d   1     -10.448  28.022  14.490  0.00  0.00     0.161 A 
ATOM     34  C5  O4D d   1      -9.583  28.373  13.390  0.00  0.00     0.066 A 
ATOM     35  N7  O4D d   1     -11.100  28.882  15.328  0.00  0.00    -0.234 NA
ATOM     36  C1  O4D d   1      -9.251  27.089  12.823  0.00  0.00     0.168 A 
ATOM     37  C8  O4D d   1      -9.305  29.758  13.158  0.00  0.00    -0.042 A 
ATOM     38  N4  O4D d   1      -9.789  26.074  13.524  0.00  0.00    -0.151 NA
ATOM     39  C12 O4D d   1      -9.955  30.651  14.009  0.00  0.00    -0.053 A 
ATOM     40  C13 O4D d   1     -10.842  30.177  15.040  0.00  0.00     0.033 A 
ATOM     41  H1  O4D d   1      -9.791  31.716  13.893  0.00  0.00     0.087 H 
BRANCH  36  42
ATOM     42  N6  O4D d   1      -8.628  26.832  11.608  0.00  0.00    -0.315 N 
ATOM     43  C14 O4D d   1      -7.610  25.893  11.401  0.00  0.00    -0.014 A 
ATOM     44  C17 O4D d   1      -7.334  25.893  10.040  0.00  0.00    -0.066 A 
ATOM     45  H2  O4D d   1      -7.128  25.280  12.161  0.00  0.00     0.112 H 
ATOM     46  C16 O4D d   1      -8.193  26.848   9.408  0.00  0.00    -0.066 A 
ATOM     47  H5  O4D d   1      -6.592  25.273   9.540  0.00  0.00     0.085 H 
ATOM     48  C15 O4D d   1      -8.986  27.425  10.373  0.00  0.00    -0.014 A 
ATOM     49  H4  O4D d   1      -8.215  27.079   8.344  0.00  0.00     0.085 H 
ATOM     50  H3  O4D d   1      -9.744  28.191  10.217  0.00  0.00     0.112 H 
ENDBRANCH  36  42
BRANCH  37  51
ATOM     51  C21 O4D d   1      -8.366  30.270  12.079  0.00  0.00    -0.050 C 
ATOM     52  H6  O4D d   1      -8.331  31.369  12.115  0.00  0.00     0.033 H 
ATOM     53  H7  O4D d   1      -8.730  29.947  11.093  0.00  0.00     0.033 H 
ATOM     54  H8  O4D d   1      -7.357  29.865  12.248  0.00  0.00     0.033 H 
ENDBRANCH  37  51
BRANCH  40  55
ATOM     55  C29 O4D d   1     -11.654  31.145  15.824  0.00  0.00    -0.035 C 
ATOM     56  H23 O4D d   1     -12.265  30.600  16.559  0.00  0.00     0.035 H 
ATOM     57  H24 O4D d   1     -12.312  31.707  15.145  0.00  0.00     0.035 H 
ATOM     58  H25 O4D d   1     -10.986  31.844  16.349  0.00  0.00     0.035 H 
ENDBRANCH  40  55
ENDBRANCH   1  32
TORSDOF 9
