REMARK  12 active torsions:
REMARK  status: ('A' for Active; 'I' for Inactive)
REMARK    1  A    between atoms: C4_1  and  N35_31 
REMARK    2  A    between atoms: C7_4  and  C6_3 
REMARK    3  A    between atoms: C9_6  and  C33_27 
REMARK    4  A    between atoms: O13_34  and  C11_7 
REMARK    5  A    between atoms: C15_9  and  C14_8 
REMARK    6  A    between atoms: C14_8  and  C16_25 
REMARK    7  A    between atoms: C14_8  and  O13_34 
REMARK    8  A    between atoms: C15_9  and  C21_22 
REMARK    9  A    between atoms: C20_23  and  C15_9 
REMARK   10  A    between atoms: C15_9  and  O19_35 
REMARK   11  A    between atoms: C3_24  and  C34_26 
REMARK   12  A    between atoms: O19_35  and  C32_28 
ROOT
ATOM      1  C14 O6D d   1     -30.530   1.504 -27.555  0.00  0.00     0.169 C 
ATOM      2  H3  O6D d   1     -30.869   1.246 -26.541  0.00  0.00     0.107 H 
ENDROOT
BRANCH   1   3
ATOM      3  C15 O6D d   1     -30.362   0.115 -28.412  0.00  0.00     0.151 C 
BRANCH   3   4
ATOM      4  C21 O6D d   1     -31.633  -0.743 -28.601  0.00  0.00    -0.016 A 
ATOM      5  C22 O6D d   1     -31.561  -1.979 -29.245  0.00  0.00    -0.073 A 
ATOM      6  C23 O6D d   1     -32.700  -2.746 -29.439  0.00  0.00    -0.082 A 
ATOM      7  H11 O6D d   1     -30.603  -2.344 -29.598  0.00  0.00     0.084 H 
ATOM      8  C24 O6D d   1     -33.926  -2.300 -28.986  0.00  0.00    -0.083 A 
ATOM      9  H6  O6D d   1     -32.628  -3.700 -29.949  0.00  0.00     0.083 H 
ATOM     10  C25 O6D d   1     -34.016  -1.083 -28.338  0.00  0.00    -0.082 A 
ATOM     11  H4  O6D d   1     -34.814  -2.902 -29.138  0.00  0.00     0.083 H 
ATOM     12  C26 O6D d   1     -32.880  -0.309 -28.145  0.00  0.00    -0.073 A 
ATOM     13  H7  O6D d   1     -34.977  -0.732 -27.979  0.00  0.00     0.083 H 
ATOM     14  H12 O6D d   1     -32.962   0.644 -27.634  0.00  0.00     0.084 H 
ENDBRANCH   3   4
BRANCH   3  15
ATOM     15  C20 O6D d   1     -29.702   0.453 -29.764  0.00  0.00    -0.016 A 
ATOM     16  C27 O6D d   1     -30.469   0.778 -30.880  0.00  0.00    -0.073 A 
ATOM     17  C28 O6D d   1     -29.867   1.076 -32.093  0.00  0.00    -0.082 A 
ATOM     18  H13 O6D d   1     -31.550   0.798 -30.799  0.00  0.00     0.084 H 
ATOM     19  C29 O6D d   1     -28.490   1.091 -32.202  0.00  0.00    -0.083 A 
ATOM     20  H8  O6D d   1     -30.480   1.298 -32.959  0.00  0.00     0.083 H 
ATOM     21  C30 O6D d   1     -27.714   0.787 -31.101  0.00  0.00    -0.082 A 
ATOM     22  H5  O6D d   1     -28.021   1.340 -33.147  0.00  0.00     0.083 H 
ATOM     23  C31 O6D d   1     -28.313   0.456 -29.894  0.00  0.00    -0.073 A 
ATOM     24  H9  O6D d   1     -26.633   0.807 -31.180  0.00  0.00     0.083 H 
ATOM     25  H14 O6D d   1     -27.695   0.197 -29.042  0.00  0.00     0.084 H 
ENDBRANCH   3  15
BRANCH   3  26
ATOM     26  O19 O6D d   1     -29.401  -0.666 -27.657  0.00  0.00    -0.372 OA
BRANCH  26  27
ATOM     27  C32 O6D d   1     -29.817  -1.227 -26.398  0.00  0.00     0.006 C 
ATOM     28  H22 O6D d   1     -28.982  -1.787 -25.952  0.00  0.00     0.066 H 
ATOM     29  H23 O6D d   1     -30.667  -1.906 -26.562  0.00  0.00     0.066 H 
ATOM     30  H24 O6D d   1     -30.120  -0.417 -25.718  0.00  0.00     0.066 H 
ENDBRANCH  26  27
ENDBRANCH   3  26
ENDBRANCH   1   3
BRANCH   1  31
ATOM     31  C16 O6D d   1     -29.215   2.260 -27.424  0.00  0.00     0.207 C 
ATOM     32  O17 O6D d   1     -28.898   3.137 -28.210  0.00  0.00    -0.646 OA
ATOM     33  O18 O6D d   1     -28.482   1.893 -26.386  0.00  0.00    -0.646 OA
ENDBRANCH   1  31
BRANCH   1  34
ATOM     34  O13 O6D d   1     -31.538   2.299 -28.179  0.00  0.00    -0.299 OA
BRANCH  34  35
ATOM     35  C11 O6D d   1     -32.102   3.311 -27.503  0.00  0.00     0.270 A 
ATOM     36  N12 O6D d   1     -31.664   3.568 -26.272  0.00  0.00    -0.206 NA
ATOM     37  C7  O6D d   1     -32.238   4.601 -25.643  0.00  0.00     0.073 A 
ATOM     38  C8  O6D d   1     -33.267   5.326 -26.231  0.00  0.00    -0.031 A 
ATOM     39  C9  O6D d   1     -33.656   4.971 -27.514  0.00  0.00     0.037 A 
ATOM     40  H2  O6D d   1     -33.749   6.142 -25.705  0.00  0.00     0.090 H 
ATOM     41  N10 O6D d   1     -33.063   3.951 -28.167  0.00  0.00    -0.212 NA
BRANCH  37  42
ATOM     42  C6  O6D d   1     -31.609   4.974 -24.353  0.00  0.00    -0.005 A 
ATOM     43  C5  O6D d   1     -30.322   4.514 -24.065  0.00  0.00    -0.045 A 
ATOM     44  C4  O6D d   1     -29.717   4.758 -22.832  0.00  0.00     0.032 A 
ATOM     45  H1  O6D d   1     -29.780   3.954 -24.818  0.00  0.00     0.088 H 
ATOM     46  C3  O6D d   1     -30.420   5.478 -21.843  0.00  0.00    -0.036 A 
ATOM     47  C2  O6D d   1     -31.703   5.936 -22.139  0.00  0.00    -0.074 A 
ATOM     48  C1  O6D d   1     -32.288   5.694 -23.371  0.00  0.00    -0.070 A 
ATOM     49  H15 O6D d   1     -32.254   6.493 -21.390  0.00  0.00     0.084 H 
ATOM     50  H10 O6D d   1     -33.285   6.069 -23.574  0.00  0.00     0.084 H 
BRANCH  44  51
ATOM     51  N35 O6D d   1     -28.422   4.319 -22.608  0.00  0.00    -0.399 N 
ATOM     52  H25 O6D d   1     -27.922   3.795 -23.340  0.00  0.00     0.156 HD
ATOM     53  H26 O6D d   1     -27.959   4.517 -21.709  0.00  0.00     0.156 HD
ENDBRANCH  44  51
BRANCH  46  54
ATOM     54  C34 O6D d   1     -29.768   5.807 -20.528  0.00  0.00    -0.049 C 
ATOM     55  H16 O6D d   1     -28.766   5.355 -20.492  0.00  0.00     0.033 H 
ATOM     56  H17 O6D d   1     -30.380   5.408 -19.705  0.00  0.00     0.033 H 
ATOM     57  H18 O6D d   1     -29.682   6.899 -20.424  0.00  0.00     0.033 H 
ENDBRANCH  46  54
ENDBRANCH  37  42
BRANCH  39  58
ATOM     58  C33 O6D d   1     -34.708   5.726 -28.262  0.00  0.00    -0.035 C 
ATOM     59  H19 O6D d   1     -34.852   5.270 -29.253  0.00  0.00     0.035 H 
ATOM     60  H20 O6D d   1     -34.392   6.773 -28.383  0.00  0.00     0.035 H 
ATOM     61  H21 O6D d   1     -35.654   5.691 -27.701  0.00  0.00     0.035 H 
ENDBRANCH  39  58
ENDBRANCH  34  35
ENDBRANCH   1  34
TORSDOF 12
