REMARK  6 active torsions:
REMARK  status: ('A' for Active; 'I' for Inactive)
REMARK    1  A    between atoms: C08_9  and  C10_1 
REMARK    2  A    between atoms: C10_1  and  O11_11 
REMARK    3  A    between atoms: C02_3  and  C01_2 
REMARK    4  A    between atoms: C03_4  and  C02_3 
REMARK    5  A    between atoms: C04_5  and  C03_4 
REMARK    6  A    between atoms: C05_6  and  C04_5 
ROOT
ATOM      1  C04 OHJ d   1     -26.032 -12.502 141.285  0.00  0.00    -0.010 C 
ATOM      2  H10 OHJ d   1     -25.168 -12.325 141.943  0.00  0.00     0.044 H 
ATOM      3  H11 OHJ d   1     -26.027 -11.767 140.466  0.00  0.00     0.044 H 
ENDROOT
BRANCH   1   4
ATOM      4  C03 OHJ d   1     -27.291 -12.293 142.096  0.00  0.00    -0.059 C 
ATOM      5  H8  OHJ d   1     -28.145 -12.249 141.404  0.00  0.00     0.033 H 
ATOM      6  H9  OHJ d   1     -27.412 -13.150 142.774  0.00  0.00     0.033 H 
BRANCH   4   7
ATOM      7  C02 OHJ d   1     -27.285 -11.011 142.936  0.00  0.00    -0.068 C 
ATOM      8  H6  OHJ d   1     -26.528 -11.099 143.729  0.00  0.00     0.032 H 
ATOM      9  H7  OHJ d   1     -27.043 -10.154 142.291  0.00  0.00     0.032 H 
BRANCH   7  10
ATOM     10  C01 OHJ d   1     -28.661 -10.794 143.571  0.00  0.00    -0.077 C 
ATOM     11  H3  OHJ d   1     -28.646  -9.872 144.171  0.00  0.00     0.027 H 
ATOM     12  H4  OHJ d   1     -28.905 -11.649 144.218  0.00  0.00     0.027 H 
ATOM     13  H5  OHJ d   1     -29.420 -10.704 142.780  0.00  0.00     0.027 H 
ENDBRANCH   7  10
ENDBRANCH   4   7
ENDBRANCH   1   4
BRANCH   1  14
ATOM     14  C05 OHJ d   1     -25.887 -13.883 140.679  0.00  0.00     0.103 A 
ATOM     15  N06 OHJ d   1     -26.799 -14.543 139.931  0.00  0.00    -0.245 NA
ATOM     16  C07 OHJ d   1     -26.291 -15.734 139.529  0.00  0.00     0.028 A 
ATOM     17  C08 OHJ d   1     -25.015 -15.807 140.088  0.00  0.00     0.052 A 
ATOM     18  H12 OHJ d   1     -26.778 -16.479 138.901  0.00  0.00     0.117 H 
ATOM     19  N09 OHJ d   1     -24.805 -14.653 140.774  0.00  0.00    -0.345 N 
ATOM     20  H13 OHJ d   1     -23.945 -14.412 141.286  0.00  0.00     0.167 HD
BRANCH  17  21
ATOM     21  C10 OHJ d   1     -24.037 -16.963 139.939  0.00  0.00     0.056 C 
ATOM     22  H1  OHJ d   1     -23.776 -17.343 140.938  0.00  0.00     0.083 H 
ATOM     23  H2  OHJ d   1     -23.128 -16.601 139.436  0.00  0.00     0.083 H 
BRANCH  21  24
ATOM     24  O11 OHJ d   1     -24.598 -18.014 139.178  0.00  0.00    -0.395 OA
ATOM     25  H14 OHJ d   1     -25.381 -18.333 139.610  0.00  0.00     0.209 HD
ENDBRANCH  21  24
ENDBRANCH  17  21
ENDBRANCH   1  14
TORSDOF 6
