REMARK  3 active torsions:
REMARK  status: ('A' for Active; 'I' for Inactive)
REMARK    1  A    between atoms: CAA_1  and  CAB_2 
REMARK    2  A    between atoms: CAD_6  and  CAG_7 
REMARK    3  A    between atoms: CAG_7  and  OAH_8 
ROOT
ATOM      1  CAB OHG d   1      49.925  -5.074 101.636  0.00  0.00     0.100 A 
ATOM      2  NAC OHG d   1      50.683  -4.752 102.683  0.00  0.00    -0.345 N 
ATOM      3  NAF OHG d   1      50.541  -4.690 100.493  0.00  0.00    -0.246 NA
ATOM      4  CAE OHG d   1      51.721  -4.148 100.838  0.00  0.00     0.028 A 
ATOM      5  CAD OHG d   1      51.795  -4.180 102.184  0.00  0.00     0.052 A 
ATOM      6  H4  OHG d   1      50.462  -4.909 103.677  0.00  0.00     0.167 HD
ATOM      7  H5  OHG d   1      52.476  -3.756 100.158  0.00  0.00     0.117 H 
ENDROOT
BRANCH   5   8
ATOM      8  CAG OHG d   1      52.954  -3.638 103.088  0.00  0.00     0.056 C 
ATOM      9  H6  OHG d   1      53.228  -4.418 103.814  0.00  0.00     0.083 H 
ATOM     10  H7  OHG d   1      52.594  -2.748 103.625  0.00  0.00     0.083 H 
BRANCH   8  11
ATOM     11  OAH OHG d   1      54.109  -3.284 102.345  0.00  0.00    -0.395 OA
ATOM     12  H8  OHG d   1      54.433  -4.048 101.883  0.00  0.00     0.209 HD
ENDBRANCH   8  11
ENDBRANCH   5   8
BRANCH   1  13
ATOM     13  CAA OHG d   1      48.554  -5.749 101.704  0.00  0.00    -0.021 C 
ATOM     14  H1  OHG d   1      48.297  -5.951 102.754  0.00  0.00     0.037 H 
ATOM     15  H2  OHG d   1      48.583  -6.696 101.145  0.00  0.00     0.037 H 
ATOM     16  H3  OHG d   1      47.796  -5.085 101.262  0.00  0.00     0.037 H 
ENDBRANCH   1  13
TORSDOF 3
