REMARK  10 active torsions:
REMARK  status: ('A' for Active; 'I' for Inactive)
REMARK    1  A    between atoms: C10_1  and  C09_13 
REMARK    2  A    between atoms: N11_14  and  C10_1 
REMARK    3  A    between atoms: C14_17  and  C15_2 
REMARK    4  A    between atoms: C02_6  and  O01_5 
REMARK    5  A    between atoms: C03_7  and  C02_6 
REMARK    6  A    between atoms: C07_11  and  C06_10 
REMARK    7  A    between atoms: C08_12  and  C07_11 
REMARK    8  A    between atoms: C09_13  and  C08_12 
REMARK       I    between atoms: C12_15  and  N11_14 
REMARK    9  A    between atoms: O13_16  and  C12_15 
REMARK   10  A    between atoms: O13_16  and  C14_17 
ROOT
ATOM      1  C10 OHV d   1      23.300  73.799   5.190  0.00  0.00    -0.003 C 
ATOM      2  H1  OHV d   1      24.295  74.262   5.261  0.00  0.00     0.064 H 
ATOM      3  H2  OHV d   1      23.083  73.251   6.119  0.00  0.00     0.064 H 
ENDROOT
BRANCH   1   4
ATOM      4  C09 OHV d   1      23.302  72.797   4.011  0.00  0.00    -0.050 C 
ATOM      5  H13 OHV d   1      24.026  72.001   4.240  0.00  0.00     0.035 H 
ATOM      6  H14 OHV d   1      23.622  73.334   3.106  0.00  0.00     0.035 H 
BRANCH   4   7
ATOM      7  C08 OHV d   1      21.910  72.123   3.714  0.00  0.00    -0.057 C 
ATOM      8  H11 OHV d   1      21.161  72.918   3.585  0.00  0.00     0.033 H 
ATOM      9  H12 OHV d   1      21.997  71.547   2.781  0.00  0.00     0.033 H 
BRANCH   7  10
ATOM     10  C07 OHV d   1      21.429  71.187   4.811  0.00  0.00    -0.010 C 
ATOM     11  H9  OHV d   1      22.199  70.415   4.954  0.00  0.00     0.044 H 
ATOM     12  H10 OHV d   1      21.325  71.777   5.734  0.00  0.00     0.044 H 
BRANCH  10  13
ATOM     13  C06 OHV d   1      20.084  70.470   4.556  0.00  0.00     0.103 A 
ATOM     14  N05 OHV d   1      19.498  70.123   3.389  0.00  0.00    -0.245 NA
ATOM     15  C04 OHV d   1      18.294  69.470   3.704  0.00  0.00     0.028 A 
ATOM     16  C03 OHV d   1      18.160  69.414   5.083  0.00  0.00     0.052 A 
ATOM     17  H8  OHV d   1      17.582  69.073   2.982  0.00  0.00     0.117 H 
ATOM     18  N22 OHV d   1      19.293  70.066   5.623  0.00  0.00    -0.345 N 
ATOM     19  H21 OHV d   1      19.494  70.214   6.622  0.00  0.00     0.167 HD
BRANCH  16  20
ATOM     20  C02 OHV d   1      17.066  68.856   5.934  0.00  0.00     0.056 C 
ATOM     21  H6  OHV d   1      17.421  67.962   6.467  0.00  0.00     0.083 H 
ATOM     22  H7  OHV d   1      16.732  69.609   6.663  0.00  0.00     0.083 H 
BRANCH  20  23
ATOM     23  O01 OHV d   1      15.991  68.511   5.056  0.00  0.00    -0.395 OA
ATOM     24  H5  OHV d   1      15.697  69.289   4.596  0.00  0.00     0.209 HD
ENDBRANCH  20  23
ENDBRANCH  16  20
ENDBRANCH  10  13
ENDBRANCH   7  10
ENDBRANCH   4   7
ENDBRANCH   1   4
BRANCH   1  25
ATOM     25  N11 OHV d   1      22.347  74.808   5.032  0.00  0.00    -0.337 N 
ATOM     26  C12 OHV d   1      21.368  75.131   5.934  0.00  0.00     0.360 C 
ATOM     27  O21 OHV d   1      21.087  74.461   6.910  0.00  0.00    -0.239 OA
ATOM     28  H15 OHV d   1      22.383  75.341   4.187  0.00  0.00     0.164 HD
BRANCH  26  29
ATOM     29  O13 OHV d   1      20.650  76.291   5.661  0.00  0.00    -0.299 OA
BRANCH  29  30
ATOM     30  C14 OHV d   1      19.891  76.925   6.686  0.00  0.00     0.054 C 
ATOM     31  H16 OHV d   1      19.032  76.279   6.921  0.00  0.00     0.082 H 
ATOM     32  H17 OHV d   1      20.533  77.019   7.574  0.00  0.00     0.082 H 
BRANCH  30  33
ATOM     33  C15 OHV d   1      19.357  78.311   6.343  0.00  0.00    -0.034 A 
ATOM     34  C20 OHV d   1      20.194  79.439   6.336  0.00  0.00    -0.075 A 
ATOM     35  C19 OHV d   1      19.703  80.707   6.005  0.00  0.00    -0.082 A 
ATOM     36  H4  OHV d   1      21.241  79.325   6.592  0.00  0.00     0.084 H 
ATOM     37  C18 OHV d   1      18.357  80.881   5.661  0.00  0.00    -0.083 A 
ATOM     38  H20 OHV d   1      20.370  81.561   6.015  0.00  0.00     0.083 H 
ATOM     39  C17 OHV d   1      17.508  79.766   5.647  0.00  0.00    -0.082 A 
ATOM     40  H19 OHV d   1      17.977  81.864   5.409  0.00  0.00     0.083 H 
ATOM     41  C16 OHV d   1      18.006  78.500   5.976  0.00  0.00    -0.075 A 
ATOM     42  H3  OHV d   1      16.464  79.884   5.381  0.00  0.00     0.083 H 
ATOM     43  H18 OHV d   1      17.340  77.645   5.949  0.00  0.00     0.084 H 
ENDBRANCH  30  33
ENDBRANCH  29  30
ENDBRANCH  26  29
ENDBRANCH   1  25
TORSDOF 10
