REMARK  8 active torsions:
REMARK  status: ('A' for Active; 'I' for Inactive)
REMARK    1  A    between atoms: C10_1  and  C09_11 
REMARK    2  A    between atoms: N11_12  and  C10_1 
REMARK    3  A    between atoms: C12_13  and  C13_2 
REMARK    4  A    between atoms: C02_4  and  O01_3 
REMARK    5  A    between atoms: C03_5  and  C02_4 
REMARK    6  A    between atoms: C07_9  and  C06_8 
REMARK    7  A    between atoms: C08_10  and  C07_9 
REMARK    8  A    between atoms: C09_11  and  C08_10 
REMARK       I    between atoms: N11_12  and  C12_13 
ROOT
ATOM      1  C08 OH7 d   1     134.873 -26.259  23.033  0.00  0.00    -0.057 C 
ATOM      2  H13 OH7 d   1     134.760 -26.996  23.842  0.00  0.00     0.033 H 
ATOM      3  H14 OH7 d   1     134.042 -26.367  22.320  0.00  0.00     0.033 H 
ENDROOT
BRANCH   1   4
ATOM      4  C07 OH7 d   1     136.194 -26.539  22.294  0.00  0.00    -0.010 C 
ATOM      5  H11 OH7 d   1     136.299 -25.788  21.497  0.00  0.00     0.044 H 
ATOM      6  H12 OH7 d   1     137.015 -26.424  23.017  0.00  0.00     0.044 H 
BRANCH   4   7
ATOM      7  C06 OH7 d   1     136.324 -27.922  21.655  0.00  0.00     0.104 A 
ATOM      8  N05 OH7 d   1     135.421 -28.521  20.830  0.00  0.00    -0.352 N 
ATOM      9  C04 OH7 d   1     135.926 -29.711  20.431  0.00  0.00     0.004 A 
ATOM     10  H10 OH7 d   1     134.507 -28.133  20.556  0.00  0.00     0.166 HD
ATOM     11  C03 OH7 d   1     137.155 -29.837  21.061  0.00  0.00     0.075 A 
ATOM     12  H9  OH7 d   1     135.462 -30.425  19.753  0.00  0.00     0.114 H 
ATOM     13  N15 OH7 d   1     137.373 -28.737  21.766  0.00  0.00    -0.236 NA
BRANCH  11  14
ATOM     14  C02 OH7 d   1     138.149 -31.007  20.931  0.00  0.00     0.058 C 
ATOM     15  H7  OH7 d   1     139.076 -30.635  20.470  0.00  0.00     0.083 H 
ATOM     16  H8  OH7 d   1     138.370 -31.398  21.935  0.00  0.00     0.083 H 
BRANCH  14  17
ATOM     17  O01 OH7 d   1     137.632 -32.065  20.131  0.00  0.00    -0.395 OA
ATOM     18  H6  OH7 d   1     136.834 -32.397  20.525  0.00  0.00     0.209 HD
ENDBRANCH  14  17
ENDBRANCH  11  14
ENDBRANCH   4   7
ENDBRANCH   1   4
BRANCH   1  19
ATOM     19  C09 OH7 d   1     134.816 -24.847  23.643  0.00  0.00    -0.050 C 
ATOM     20  H15 OH7 d   1     135.216 -24.136  22.905  0.00  0.00     0.035 H 
ATOM     21  H16 OH7 d   1     133.764 -24.605  23.853  0.00  0.00     0.035 H 
BRANCH  19  22
ATOM     22  C10 OH7 d   1     135.616 -24.689  24.946  0.00  0.00    -0.005 C 
ATOM     23  H1  OH7 d   1     135.505 -23.660  25.317  0.00  0.00     0.064 H 
ATOM     24  H2  OH7 d   1     136.678 -24.894  24.747  0.00  0.00     0.064 H 
BRANCH  22  25
ATOM     25  N11 OH7 d   1     135.130 -25.615  25.951  0.00  0.00    -0.361 N 
ATOM     26  C12 OH7 d   1     135.885 -26.754  26.435  0.00  0.00     0.213 C 
ATOM     27  O14 OH7 d   1     136.959 -26.997  26.011  0.00  0.00    -0.274 OA
ATOM     28  H17 OH7 d   1     134.219 -25.458  26.333  0.00  0.00     0.162 HD
BRANCH  26  29
ATOM     29  C13 OH7 d   1     135.231 -27.647  27.488  0.00  0.00    -0.003 C 
ATOM     30  H3  OH7 d   1     135.919 -28.463  27.755  0.00  0.00     0.040 H 
ATOM     31  H4  OH7 d   1     134.300 -28.070  27.083  0.00  0.00     0.040 H 
ATOM     32  H5  OH7 d   1     135.003 -27.051  28.384  0.00  0.00     0.040 H 
ENDBRANCH  26  29
ENDBRANCH  22  25
ENDBRANCH  19  22
ENDBRANCH   1  19
TORSDOF 8
