REMARK  8 active torsions:
REMARK  status: ('A' for Active; 'I' for Inactive)
REMARK    1  A    between atoms: C03_7  and  C13_2 
REMARK    2  A    between atoms: O02_6  and  C01_5 
REMARK    3  A    between atoms: C03_7  and  O02_6 
REMARK    4  A    between atoms: C04_8  and  C03_7 
REMARK    5  A    between atoms: C05_9  and  C04_8 
REMARK    6  A    between atoms: C05_9  and  C06_10 
REMARK    7  A    between atoms: C08_12  and  C09_13 
REMARK    8  A    between atoms: C09_13  and  O10_14 
ROOT
ATOM      1  C03 OH4 d   1      16.931   8.081  -4.500  0.00  0.00     0.063 C 
ATOM      2  H6  OH4 d   1      16.285   7.446  -5.124  0.00  0.00     0.090 H 
ENDROOT
BRANCH   1   3
ATOM      3  C13 OH4 d   1      16.225   8.315  -3.160  0.00  0.00    -0.029 A 
ATOM      4  C14 OH4 d   1      16.894   8.878  -2.062  0.00  0.00    -0.074 A 
ATOM      5  C15 OH4 d   1      16.224   9.104  -0.861  0.00  0.00    -0.082 A 
ATOM      6  H16 OH4 d   1      17.942   9.140  -2.149  0.00  0.00     0.084 H 
ATOM      7  C16 OH4 d   1      14.882   8.769  -0.752  0.00  0.00    -0.083 A 
ATOM      8  H1  OH4 d   1      16.748   9.539  -0.018  0.00  0.00     0.083 H 
ATOM      9  C17 OH4 d   1      14.204   8.215  -1.850  0.00  0.00    -0.082 A 
ATOM     10  H17 OH4 d   1      14.356   8.935   0.181  0.00  0.00     0.083 H 
ATOM     11  C18 OH4 d   1      14.874   7.991  -3.053  0.00  0.00    -0.074 A 
ATOM     12  H2  OH4 d   1      13.154   7.960  -1.762  0.00  0.00     0.083 H 
ATOM     13  H18 OH4 d   1      14.347   7.567  -3.900  0.00  0.00     0.084 H 
ENDBRANCH   1   3
BRANCH   1  14
ATOM     14  O02 OH4 d   1      17.105   9.347  -5.100  0.00  0.00    -0.386 OA
BRANCH  14  15
ATOM     15  C01 OH4 d   1      15.946  10.099  -5.418  0.00  0.00     0.005 C 
ATOM     16  H3  OH4 d   1      16.243  11.054  -5.876  0.00  0.00     0.066 H 
ATOM     17  H4  OH4 d   1      15.373  10.295  -4.500  0.00  0.00     0.066 H 
ATOM     18  H5  OH4 d   1      15.323   9.531  -6.125  0.00  0.00     0.066 H 
ENDBRANCH  14  15
ENDBRANCH   1  14
BRANCH   1  19
ATOM     19  C04 OH4 d   1      18.326   7.445  -4.441  0.00  0.00    -0.031 C 
ATOM     20  H7  OH4 d   1      18.768   7.676  -3.461  0.00  0.00     0.037 H 
ATOM     21  H8  OH4 d   1      18.942   7.892  -5.236  0.00  0.00     0.037 H 
BRANCH  19  22
ATOM     22  C05 OH4 d   1      18.337   5.931  -4.624  0.00  0.00    -0.007 C 
ATOM     23  H9  OH4 d   1      17.896   5.692  -5.603  0.00  0.00     0.044 H 
ATOM     24  H10 OH4 d   1      17.729   5.476  -3.828  0.00  0.00     0.044 H 
BRANCH  22  25
ATOM     25  C06 OH4 d   1      19.736   5.340  -4.564  0.00  0.00     0.104 A 
ATOM     26  N12 OH4 d   1      20.414   5.071  -3.448  0.00  0.00    -0.245 NA
ATOM     27  C11 OH4 d   1      21.592   4.574  -3.775  0.00  0.00     0.028 A 
ATOM     28  C08 OH4 d   1      21.661   4.516  -5.156  0.00  0.00     0.052 A 
ATOM     29  H15 OH4 d   1      22.372   4.264  -3.081  0.00  0.00     0.117 H 
ATOM     30  N07 OH4 d   1      20.511   4.994  -5.625  0.00  0.00    -0.345 N 
ATOM     31  H11 OH4 d   1      20.254   5.086  -6.618  0.00  0.00     0.167 HD
BRANCH  28  32
ATOM     32  C09 OH4 d   1      22.820   4.005  -6.019  0.00  0.00     0.056 C 
ATOM     33  H12 OH4 d   1      23.254   4.851  -6.572  0.00  0.00     0.083 H 
ATOM     34  H13 OH4 d   1      22.434   3.261  -6.731  0.00  0.00     0.083 H 
BRANCH  32  35
ATOM     35  O10 OH4 d   1      23.827   3.407  -5.234  0.00  0.00    -0.395 OA
ATOM     36  H14 OH4 d   1      24.169   4.046  -4.619  0.00  0.00     0.209 HD
ENDBRANCH  32  35
ENDBRANCH  28  32
ENDBRANCH  22  25
ENDBRANCH  19  22
ENDBRANCH   1  19
TORSDOF 8
