REMARK  8 active torsions:
REMARK  status: ('A' for Active; 'I' for Inactive)
REMARK    1  A    between atoms: C10_1  and  C09_13 
REMARK    2  A    between atoms: N11_14  and  C10_1 
REMARK    3  A    between atoms: C12_15  and  C13_2 
REMARK    4  A    between atoms: C02_6  and  O01_5 
REMARK    5  A    between atoms: C03_7  and  C02_6 
REMARK    6  A    between atoms: C07_11  and  C06_10 
REMARK    7  A    between atoms: C08_12  and  C07_11 
REMARK    8  A    between atoms: C09_13  and  C08_12 
REMARK       I    between atoms: N11_14  and  C12_15 
ROOT
ATOM      1  C09 OH1 d   1      18.695 -88.484  28.089  0.00  0.00    -0.050 C 
ATOM      2  H14 OH1 d   1      17.995 -88.098  27.333  0.00  0.00     0.035 H 
ATOM      3  H15 OH1 d   1      18.463 -89.538  28.299  0.00  0.00     0.035 H 
ENDROOT
BRANCH   1   4
ATOM      4  C10 OH1 d   1      18.524 -87.676  29.378  0.00  0.00    -0.004 C 
ATOM      5  H1  OH1 d   1      17.458 -87.643  29.646  0.00  0.00     0.064 H 
ATOM      6  H2  OH1 d   1      18.893 -86.653  29.215  0.00  0.00     0.064 H 
BRANCH   4   7
ATOM      7  N11 OH1 d   1      19.271 -88.286  30.464  0.00  0.00    -0.357 N 
ATOM      8  C12 OH1 d   1      20.378 -87.621  31.064  0.00  0.00     0.251 C 
ATOM      9  O19 OH1 d   1      20.659 -86.539  30.717  0.00  0.00    -0.268 OA
ATOM     10  H16 OH1 d   1      19.003 -89.190  30.797  0.00  0.00     0.162 HD
BRANCH   8  11
ATOM     11  C13 OH1 d   1      21.133 -88.257  32.229  0.00  0.00     0.032 A 
ATOM     12  C14 OH1 d   1      20.948 -89.582  32.539  0.00  0.00    -0.068 A 
ATOM     13  C15 OH1 d   1      21.596 -90.147  33.638  0.00  0.00    -0.082 A 
ATOM     14  H17 OH1 d   1      20.295 -90.193  31.926  0.00  0.00     0.085 H 
ATOM     15  C16 OH1 d   1      22.438 -89.375  34.423  0.00  0.00    -0.083 A 
ATOM     16  H3  OH1 d   1      21.441 -91.192  33.879  0.00  0.00     0.083 H 
ATOM     17  C17 OH1 d   1      22.626 -88.045  34.109  0.00  0.00    -0.082 A 
ATOM     18  H18 OH1 d   1      22.944 -89.812  35.276  0.00  0.00     0.083 H 
ATOM     19  C18 OH1 d   1      21.970 -87.470  33.009  0.00  0.00    -0.068 A 
ATOM     20  H4  OH1 d   1      23.287 -87.438  34.717  0.00  0.00     0.083 H 
ATOM     21  H19 OH1 d   1      22.115 -86.422  32.771  0.00  0.00     0.085 H 
ENDBRANCH   8  11
ENDBRANCH   4   7
ENDBRANCH   1   4
BRANCH   1  22
ATOM     22  C08 OH1 d   1      20.136 -88.393  27.527  0.00  0.00    -0.057 C 
ATOM     23  H12 OH1 d   1      20.845 -88.600  28.342  0.00  0.00     0.033 H 
ATOM     24  H13 OH1 d   1      20.254 -89.149  26.737  0.00  0.00     0.033 H 
BRANCH  22  25
ATOM     25  C07 OH1 d   1      20.459 -86.996  26.930  0.00  0.00    -0.010 C 
ATOM     26  H10 OH1 d   1      19.693 -86.765  26.175  0.00  0.00     0.044 H 
ATOM     27  H11 OH1 d   1      20.405 -86.259  27.745  0.00  0.00     0.044 H 
BRANCH  25  28
ATOM     28  C06 OH1 d   1      21.840 -86.862  26.260  0.00  0.00     0.104 A 
ATOM     29  N05 OH1 d   1      22.428 -87.778  25.460  0.00  0.00    -0.352 N 
ATOM     30  C04 OH1 d   1      23.611 -87.309  25.075  0.00  0.00     0.004 A 
ATOM     31  H9  OH1 d   1      22.027 -88.688  25.193  0.00  0.00     0.166 HD
ATOM     32  C03 OH1 d   1      23.755 -86.043  25.612  0.00  0.00     0.075 A 
ATOM     33  H8  OH1 d   1      24.336 -87.828  24.450  0.00  0.00     0.114 H 
ATOM     34  N20 OH1 d   1      22.670 -85.818  26.340  0.00  0.00    -0.236 NA
BRANCH  32  35
ATOM     35  C02 OH1 d   1      24.941 -85.081  25.426  0.00  0.00     0.058 C 
ATOM     36  H6  OH1 d   1      24.612 -84.236  24.803  0.00  0.00     0.083 H 
ATOM     37  H7  OH1 d   1      25.249 -84.709  26.415  0.00  0.00     0.083 H 
BRANCH  35  38
ATOM     38  O01 OH1 d   1      26.060 -85.691  24.805  0.00  0.00    -0.395 OA
ATOM     39  H5  OH1 d   1      26.359 -86.418  25.338  0.00  0.00     0.209 HD
ENDBRANCH  35  38
ENDBRANCH  32  35
ENDBRANCH  25  28
ENDBRANCH  22  25
ENDBRANCH   1  22
TORSDOF 8
