REMARK  9 active torsions:
REMARK  status: ('A' for Active; 'I' for Inactive)
REMARK    1  A    between atoms: C01_1  and  O02_2 
REMARK    2  A    between atoms: O02_2  and  C03_3 
REMARK       I    between atoms: C03_3  and  N04_4 
REMARK    3  A    between atoms: N04_4  and  C05_5 
REMARK    4  A    between atoms: C05_5  and  C06_6 
REMARK    5  A    between atoms: C06_6  and  C07_7 
REMARK    6  A    between atoms: C07_7  and  C08_8 
REMARK    7  A    between atoms: C08_8  and  C09_9 
REMARK    8  A    between atoms: C11_11  and  C12_12 
REMARK    9  A    between atoms: C12_12  and  O13_13 
ROOT
ATOM      1  C07 OGM d   1       5.081  71.991   3.747  0.00  0.00    -0.057 C 
ATOM      2  H9  OGM d   1       4.932  71.568   2.743  0.00  0.00     0.033 H 
ATOM      3  H10 OGM d   1       4.358  72.803   3.914  0.00  0.00     0.033 H 
ENDROOT
BRANCH   1   4
ATOM      4  C06 OGM d   1       6.493  72.575   3.823  0.00  0.00    -0.050 C 
ATOM      5  H7  OGM d   1       7.213  71.745   3.863  0.00  0.00     0.035 H 
ATOM      6  H8  OGM d   1       6.673  73.174   2.918  0.00  0.00     0.035 H 
BRANCH   4   7
ATOM      7  C05 OGM d   1       6.709  73.460   5.038  0.00  0.00    -0.003 C 
ATOM      8  H5  OGM d   1       6.385  72.926   5.943  0.00  0.00     0.064 H 
ATOM      9  H6  OGM d   1       7.776  73.712   5.123  0.00  0.00     0.064 H 
BRANCH   7  10
ATOM     10  N04 OGM d   1       5.942  74.667   4.893  0.00  0.00    -0.337 N 
ATOM     11  C03 OGM d   1       4.827  74.969   5.773  0.00  0.00     0.360 C 
ATOM     12  O16 OGM d   1       4.601  74.278   6.707  0.00  0.00    -0.239 OA
ATOM     13  H4  OGM d   1       6.182  75.314   4.169  0.00  0.00     0.164 HD
BRANCH  11  14
ATOM     14  O02 OGM d   1       4.013  76.096   5.484  0.00  0.00    -0.309 OA
BRANCH  14  15
ATOM     15  C01 OGM d   1       3.289  76.582   6.580  0.00  0.00     0.015 C 
ATOM     16  H1  OGM d   1       2.690  77.450   6.268  0.00  0.00     0.067 H 
ATOM     17  H2  OGM d   1       3.986  76.885   7.375  0.00  0.00     0.067 H 
ATOM     18  H3  OGM d   1       2.622  75.793   6.958  0.00  0.00     0.067 H 
ENDBRANCH  14  15
ENDBRANCH  11  14
ENDBRANCH   7  10
ENDBRANCH   4   7
ENDBRANCH   1   4
BRANCH   1  19
ATOM     19  C08 OGM d   1       4.823  70.892   4.780  0.00  0.00    -0.010 C 
ATOM     20  H11 OGM d   1       4.879  71.337   5.784  0.00  0.00     0.044 H 
ATOM     21  H12 OGM d   1       5.603  70.124   4.675  0.00  0.00     0.044 H 
BRANCH  19  22
ATOM     22  C09 OGM d   1       3.465  70.225   4.623  0.00  0.00     0.103 A 
ATOM     23  N10 OGM d   1       2.676  69.809   5.632  0.00  0.00    -0.345 N 
ATOM     24  C11 OGM d   1       1.574  69.298   5.123  0.00  0.00     0.052 A 
ATOM     25  H13 OGM d   1       2.898  69.879   6.635  0.00  0.00     0.167 HD
ATOM     26  C14 OGM d   1       1.671  69.383   3.767  0.00  0.00     0.028 A 
ATOM     27  N15 OGM d   1       2.818  69.942   3.484  0.00  0.00    -0.245 NA
ATOM     28  H17 OGM d   1       0.926  69.046   3.048  0.00  0.00     0.117 H 
BRANCH  24  29
ATOM     29  C12 OGM d   1       0.439  68.714   5.939  0.00  0.00     0.056 C 
ATOM     30  H14 OGM d   1       0.091  69.465   6.663  0.00  0.00     0.083 H 
ATOM     31  H15 OGM d   1       0.801  67.826   6.477  0.00  0.00     0.083 H 
BRANCH  29  32
ATOM     32  O13 OGM d   1      -0.638  68.343   5.101  0.00  0.00    -0.395 OA
ATOM     33  H16 OGM d   1      -0.955  69.109   4.637  0.00  0.00     0.209 HD
ENDBRANCH  29  32
ENDBRANCH  24  29
ENDBRANCH  19  22
ENDBRANCH   1  19
TORSDOF 9
