REMARK  11 active torsions:
REMARK  status: ('A' for Active; 'I' for Inactive)
REMARK    1  A    between atoms: O01_1  and  C02_2 
REMARK    2  A    between atoms: C02_2  and  C03_3 
REMARK    3  A    between atoms: C06_6  and  C07_7 
REMARK    4  A    between atoms: C07_7  and  C08_8 
REMARK    5  A    between atoms: C08_8  and  C09_9 
REMARK    6  A    between atoms: C09_9  and  C10_10 
REMARK    7  A    between atoms: C10_10  and  N11_11 
REMARK       I    between atoms: N11_11  and  C12_12 
REMARK    8  A    between atoms: N11_11  and  C16_16 
REMARK    9  A    between atoms: C12_12  and  O13_13 
REMARK   10  A    between atoms: O13_13  and  C14_14 
REMARK   11  A    between atoms: C16_16  and  C17_17 
ROOT
ATOM      1  C10 OJJ d   1      16.808   8.476  -5.282  0.00  0.00     0.000 C 
ATOM      2  H11 OJJ d   1      15.767   8.732  -5.527  0.00  0.00     0.064 H 
ATOM      3  H12 OJJ d   1      17.250   7.905  -6.112  0.00  0.00     0.064 H 
ENDROOT
BRANCH   1   4
ATOM      4  C09 OJJ d   1      16.820   7.598  -4.011  0.00  0.00    -0.050 C 
ATOM      5  H9  OJJ d   1      16.555   8.233  -3.153  0.00  0.00     0.035 H 
ATOM      6  H10 OJJ d   1      16.062   6.810  -4.131  0.00  0.00     0.035 H 
BRANCH   4   7
ATOM      7  C08 OJJ d   1      18.164   6.926  -3.711  0.00  0.00    -0.057 C 
ATOM      8  H7  OJJ d   1      18.941   7.704  -3.665  0.00  0.00     0.033 H 
ATOM      9  H8  OJJ d   1      18.092   6.421  -2.736  0.00  0.00     0.033 H 
BRANCH   7  10
ATOM     10  C07 OJJ d   1      18.574   5.888  -4.770  0.00  0.00    -0.010 C 
ATOM     11  H5  OJJ d   1      17.828   5.079  -4.771  0.00  0.00     0.044 H 
ATOM     12  H6  OJJ d   1      18.582   6.380  -5.754  0.00  0.00     0.044 H 
BRANCH  10  13
ATOM     13  C06 OJJ d   1      19.945   5.277  -4.527  0.00  0.00     0.103 A 
ATOM     14  N05 OJJ d   1      20.512   4.970  -3.359  0.00  0.00    -0.245 NA
ATOM     15  C04 OJJ d   1      21.709   4.420  -3.599  0.00  0.00     0.028 A 
ATOM     16  C03 OJJ d   1      21.876   4.404  -4.963  0.00  0.00     0.052 A 
ATOM     17  H4  OJJ d   1      22.416   4.055  -2.855  0.00  0.00     0.117 H 
ATOM     18  N23 OJJ d   1      20.779   4.918  -5.512  0.00  0.00    -0.345 N 
ATOM     19  H23 OJJ d   1      20.601   5.022  -6.521  0.00  0.00     0.167 HD
BRANCH  16  20
ATOM     20  C02 OJJ d   1      23.053   3.933  -5.815  0.00  0.00     0.056 C 
ATOM     21  H2  OJJ d   1      22.711   3.118  -6.470  0.00  0.00     0.083 H 
ATOM     22  H3  OJJ d   1      23.404   4.775  -6.429  0.00  0.00     0.083 H 
BRANCH  20  23
ATOM     23  O01 OJJ d   1      24.129   3.464  -5.034  0.00  0.00    -0.395 OA
ATOM     24  H1  OJJ d   1      24.437   4.163  -4.469  0.00  0.00     0.209 HD
ENDBRANCH  20  23
ENDBRANCH  16  20
ENDBRANCH  10  13
ENDBRANCH   7  10
ENDBRANCH   4   7
ENDBRANCH   1   4
BRANCH   1  25
ATOM     25  N11 OJJ d   1      17.564   9.706  -5.104  0.00  0.00    -0.324 N 
ATOM     26  C12 OJJ d   1      18.742   9.990  -5.915  0.00  0.00     0.362 C 
ATOM     27  O15 OJJ d   1      19.031   9.353  -6.854  0.00  0.00    -0.238 OA
BRANCH  26  28
ATOM     28  O13 OJJ d   1      19.577  11.059  -5.588  0.00  0.00    -0.309 OA
BRANCH  28  29
ATOM     29  C14 OJJ d   1      20.273  11.613  -6.678  0.00  0.00     0.015 C 
ATOM     30  H13 OJJ d   1      20.902  12.444  -6.327  0.00  0.00     0.067 H 
ATOM     31  H14 OJJ d   1      19.553  11.986  -7.421  0.00  0.00     0.067 H 
ATOM     32  H15 OJJ d   1      20.908  10.841  -7.138  0.00  0.00     0.067 H 
ENDBRANCH  28  29
ENDBRANCH  26  28
BRANCH  25  33
ATOM     33  C16 OJJ d   1      17.165  10.641  -4.041  0.00  0.00     0.023 C 
ATOM     34  H16 OJJ d   1      17.823  11.521  -4.091  0.00  0.00     0.071 H 
ATOM     35  H17 OJJ d   1      17.298  10.138  -3.072  0.00  0.00     0.071 H 
BRANCH  33  36
ATOM     36  C17 OJJ d   1      15.709  11.123  -4.137  0.00  0.00    -0.040 A 
ATOM     37  C18 OJJ d   1      14.704  10.583  -3.300  0.00  0.00    -0.075 A 
ATOM     38  C19 OJJ d   1      13.387  11.044  -3.383  0.00  0.00    -0.082 A 
ATOM     39  H18 OJJ d   1      14.957   9.805  -2.589  0.00  0.00     0.084 H 
ATOM     40  C20 OJJ d   1      13.086  12.057  -4.300  0.00  0.00    -0.083 A 
ATOM     41  H19 OJJ d   1      12.614  10.625  -2.749  0.00  0.00     0.083 H 
ATOM     42  C21 OJJ d   1      14.085  12.601  -5.129  0.00  0.00    -0.082 A 
ATOM     43  H20 OJJ d   1      12.070  12.428  -4.373  0.00  0.00     0.083 H 
ATOM     44  C22 OJJ d   1      15.392  12.142  -5.046  0.00  0.00    -0.075 A 
ATOM     45  H21 OJJ d   1      13.832  13.383  -5.836  0.00  0.00     0.083 H 
ATOM     46  H22 OJJ d   1      16.162  12.568  -5.679  0.00  0.00     0.084 H 
ENDBRANCH  33  36
ENDBRANCH  25  33
ENDBRANCH   1  25
TORSDOF 11
