REMARK  19 active torsions:
REMARK  status: ('A' for Active; 'I' for Inactive)
REMARK    1  A    between atoms: C1_1  and  O6_22 
REMARK    2  A    between atoms: C2_2  and  O2_7 
REMARK    3  A    between atoms: C3_3  and  O3_8 
REMARK    4  A    between atoms: C4_4  and  O4_9 
REMARK    5  A    between atoms: C5_5  and  C6_6 
REMARK    6  A    between atoms: C6_6  and  O6_11 
REMARK    7  A    between atoms: C1_12  and  O2_30 
REMARK    8  A    between atoms: C2_13  and  O2_18 
REMARK    9  A    between atoms: C3_14  and  O3_19 
REMARK   10  A    between atoms: C4_15  and  O4_20 
REMARK   11  A    between atoms: C5_16  and  C6_17 
REMARK   12  A    between atoms: C6_17  and  O6_22 
REMARK   13  A    between atoms: C2_24  and  C1_23 
REMARK   14  A    between atoms: C1_23  and  O1_29 
REMARK   15  A    between atoms: C2_24  and  O2_30 
REMARK   16  A    between atoms: C3_25  and  O3_31 
REMARK   17  A    between atoms: C4_26  and  O4_32 
REMARK   18  A    between atoms: C5_27  and  C6_28 
REMARK   19  A    between atoms: C6_28  and  O6_34 
ROOT
ATOM      1  C1  GLC d   1     -31.858 -62.271 -24.032  0.00  0.00     0.162 C 
ATOM      2  C2  GLC d   1     -30.857 -63.299 -24.593  0.00  0.00     0.110 C 
ATOM      3  C3  GLC d   1     -29.423 -62.827 -24.369  0.00  0.00     0.092 C 
ATOM      4  C4  GLC d   1     -29.252 -61.371 -24.847  0.00  0.00     0.090 C 
ATOM      5  C5  GLC d   1     -30.305 -60.374 -24.353  0.00  0.00     0.089 C 
ATOM      6  O5  GLC d   1     -31.639 -60.920 -24.501  0.00  0.00    -0.348 OA
ATOM      7  H12 GLC d   1     -32.772 -62.539 -24.582  0.00  0.00     0.133 H 
ATOM      8  H13 GLC d   1     -31.029 -63.413 -25.674  0.00  0.00     0.094 H 
ATOM      9  H14 GLC d   1     -29.185 -62.878 -23.296  0.00  0.00     0.091 H 
ATOM     10  H15 GLC d   1     -29.321 -61.394 -25.945  0.00  0.00     0.091 H 
ATOM     11  H16 GLC d   1     -30.121 -60.111 -23.301  0.00  0.00     0.090 H 
ENDROOT
BRANCH   5  12
ATOM     12  C6  GLC d   1     -30.183 -59.146 -25.252  0.00  0.00     0.049 C 
ATOM     13  H17 GLC d   1     -31.048 -59.127 -25.932  0.00  0.00     0.078 H 
ATOM     14  H18 GLC d   1     -29.257 -59.236 -25.839  0.00  0.00     0.078 H 
BRANCH  12  15
ATOM     15  O6  GLC d   1     -30.144 -57.902 -24.533  0.00  0.00    -0.356 OA
BRANCH  15  16
ATOM     16  C1  GLA d   1     -30.217 -56.770 -25.425  0.00  0.00     0.158 C 
ATOM     17  O5  GLA d   1     -31.399 -56.718 -26.242  0.00  0.00    -0.348 OA
ATOM     18  C5  GLA d   1     -32.638 -56.736 -25.545  0.00  0.00     0.089 C 
ATOM     19  C4  GLA d   1     -32.631 -55.557 -24.538  0.00  0.00     0.090 C 
ATOM     20  H5  GLA d   1     -32.734 -57.677 -24.984  0.00  0.00     0.090 H 
ATOM     21  C3  GLA d   1     -31.368 -55.511 -23.671  0.00  0.00     0.092 C 
ATOM     22  H4  GLA d   1     -33.507 -55.662 -23.881  0.00  0.00     0.091 H 
ATOM     23  C2  GLA d   1     -30.176 -55.492 -24.602  0.00  0.00     0.110 C 
ATOM     24  H3  GLA d   1     -31.336 -56.398 -23.021  0.00  0.00     0.091 H 
ATOM     25  H2  GLA d   1     -30.235 -54.617 -25.266  0.00  0.00     0.094 H 
ATOM     26  H1  GLA d   1     -29.341 -56.806 -26.090  0.00  0.00     0.133 H 
BRANCH  18  27
ATOM     27  C6  GLA d   1     -33.777 -56.664 -26.577  0.00  0.00     0.043 C 
ATOM     28  H6  GLA d   1     -33.694 -55.728 -27.149  0.00  0.00     0.078 H 
ATOM     29  H7  GLA d   1     -34.745 -56.690 -26.056  0.00  0.00     0.078 H 
BRANCH  27  30
ATOM     30  O6  GLA d   1     -33.687 -57.783 -27.475  0.00  0.00    -0.398 OA
ATOM     31  H11 GLA d   1     -34.392 -57.735 -28.110  0.00  0.00     0.209 HD
ENDBRANCH  27  30
ENDBRANCH  18  27
BRANCH  19  32
ATOM     32  O4  GLA d   1     -32.709 -54.314 -25.237  0.00  0.00    -0.390 OA
ATOM     33  H10 GLA d   1     -33.484 -54.309 -25.786  0.00  0.00     0.210 HD
ENDBRANCH  19  32
BRANCH  21  34
ATOM     34  O3  GLA d   1     -31.301 -54.324 -22.869  0.00  0.00    -0.390 OA
ATOM     35  H9  GLA d   1     -32.039 -54.305 -22.271  0.00  0.00     0.210 HD
ENDBRANCH  21  34
BRANCH  23  36
ATOM     36  O2  GLA d   1     -28.972 -55.434 -23.856  0.00  0.00    -0.388 OA
ATOM     37  H8  GLA d   1     -28.925 -56.183 -23.274  0.00  0.00     0.210 HD
ENDBRANCH  23  36
ENDBRANCH  15  16
ENDBRANCH  12  15
ENDBRANCH   5  12
BRANCH   4  38
ATOM     38  O4  GLC d   1     -27.969 -60.867 -24.498  0.00  0.00    -0.390 OA
ATOM     39  H21 GLC d   1     -27.913 -60.772 -23.554  0.00  0.00     0.210 HD
ENDBRANCH   4  38
BRANCH   3  40
ATOM     40  O3  GLC d   1     -28.551 -63.712 -25.092  0.00  0.00    -0.390 OA
ATOM     41  H20 GLC d   1     -27.649 -63.449 -24.953  0.00  0.00     0.210 HD
ENDBRANCH   3  40
BRANCH   1  42
ATOM     42  O2  FRU d   1     -32.301 -62.462 -22.684  0.00  0.00    -0.318 OA
BRANCH  42  43
ATOM     43  C2  FRU d   1     -33.405 -62.051 -21.824  0.00  0.00     0.217 C 
ATOM     44  C3  FRU d   1     -33.277 -62.739 -20.450  0.00  0.00     0.118 C 
ATOM     45  C4  FRU d   1     -32.408 -61.782 -19.641  0.00  0.00     0.092 C 
ATOM     46  H24 FRU d   1     -34.268 -62.858 -19.987  0.00  0.00     0.095 H 
ATOM     47  C5  FRU d   1     -32.715 -60.409 -20.247  0.00  0.00     0.089 C 
ATOM     48  H25 FRU d   1     -31.352 -62.018 -19.836  0.00  0.00     0.091 H 
ATOM     49  O5  FRU d   1     -33.249 -60.636 -21.563  0.00  0.00    -0.341 OA
ATOM     50  H26 FRU d   1     -33.441 -59.873 -19.618  0.00  0.00     0.090 H 
BRANCH  43  51
ATOM     51  C1  FRU d   1     -34.796 -62.293 -22.464  0.00  0.00     0.071 C 
ATOM     52  H22 FRU d   1     -34.952 -61.517 -23.228  0.00  0.00     0.082 H 
ATOM     53  H23 FRU d   1     -35.552 -62.184 -21.672  0.00  0.00     0.082 H 
BRANCH  51  54
ATOM     54  O1  FRU d   1     -35.002 -63.576 -23.093  0.00  0.00    -0.395 OA
ATOM     55  H29 FRU d   1     -35.882 -63.615 -23.449  0.00  0.00     0.209 HD
ENDBRANCH  51  54
ENDBRANCH  43  51
BRANCH  44  56
ATOM     56  O3  FRU d   1     -32.639 -64.019 -20.534  0.00  0.00    -0.387 OA
ATOM     57  H30 FRU d   1     -31.795 -63.924 -20.960  0.00  0.00     0.210 HD
ENDBRANCH  44  56
BRANCH  45  58
ATOM     58  O4  FRU d   1     -32.590 -61.880 -18.212  0.00  0.00    -0.390 OA
ATOM     59  H31 FRU d   1     -32.378 -62.761 -17.927  0.00  0.00     0.210 HD
ENDBRANCH  45  58
BRANCH  47  60
ATOM     60  C6  FRU d   1     -31.454 -59.583 -20.400  0.00  0.00     0.043 C 
ATOM     61  H27 FRU d   1     -30.790 -60.038 -21.150  0.00  0.00     0.078 H 
ATOM     62  H28 FRU d   1     -30.926 -59.513 -19.437  0.00  0.00     0.078 H 
BRANCH  60  63
ATOM     63  O6  FRU d   1     -31.865 -58.300 -20.826  0.00  0.00    -0.398 OA
ATOM     64  H32 FRU d   1     -32.443 -57.921 -20.174  0.00  0.00     0.209 HD
ENDBRANCH  60  63
ENDBRANCH  47  60
ENDBRANCH  42  43
ENDBRANCH   1  42
BRANCH   2  65
ATOM     65  O2  GLC d   1     -31.063 -64.567 -23.949  0.00  0.00    -0.388 OA
ATOM     66  H19 GLC d   1     -30.905 -64.477 -23.017  0.00  0.00     0.210 HD
ENDBRANCH   2  65
TORSDOF 19
