REMARK  1 active torsions:
REMARK  status: ('A' for Active; 'I' for Inactive)
REMARK    1  A    between atoms: C2_8  and  N2_9 
ROOT
ATOM      1  N9  GUN d   1     -10.712   2.299  -2.895  0.00  0.00    -0.223 NA
ATOM      2  C8  GUN d   1     -10.053   3.114  -2.041  0.00  0.00     0.067 A 
ATOM      3  N7  GUN d   1     -10.496   4.362  -2.065  0.00  0.00    -0.343 N 
ATOM      4  C5  GUN d   1     -11.555   4.335  -2.936  0.00  0.00     0.149 A 
ATOM      5  C6  GUN d   1     -12.456   5.324  -3.302  0.00  0.00     0.290 A 
ATOM      6  O6  GUN d   1     -12.446   6.492  -2.924  0.00  0.00    -0.265 OA
ATOM      7  N1  GUN d   1     -13.486   4.853  -4.148  0.00  0.00    -0.154 N 
ATOM      8  C2  GUN d   1     -13.555   3.512  -4.558  0.00  0.00     0.680 A 
ATOM      9  N3  GUN d   1     -12.675   2.614  -4.248  0.00  0.00    -0.172 N 
ATOM     10  C4  GUN d   1     -11.719   3.015  -3.402  0.00  0.00     0.176 A 
ATOM     11  H1  GUN d   1      -9.240   2.778  -1.399  0.00  0.00     0.143 H 
ATOM     12  H2  GUN d   1     -10.128   5.172  -1.546  0.00  0.00     0.167 HD
ATOM     13  H3  GUN d   1     -14.186   5.494  -4.464  0.00  0.00     0.187 HD
ATOM     14  H6  GUN d   1     -12.709   1.657  -4.627  0.00  0.00     0.186 HD
ENDROOT
BRANCH   8  15
ATOM     15  N2  GUN d   1     -14.516   3.104  -5.397  0.00  0.00    -0.234 N 
ATOM     16  H4  GUN d   1     -14.558   2.118  -5.692  0.00  0.00     0.174 HD
ATOM     17  H5  GUN d   1     -15.213   3.776  -5.747  0.00  0.00     0.174 HD
ENDBRANCH   8  15
TORSDOF 1
