REMARK  6 active torsions:
REMARK  status: ('A' for Active; 'I' for Inactive)
REMARK    1  A    between atoms: C12_13  and  C13_1 
REMARK    2  A    between atoms: C02_3  and  C01_2 
REMARK    3  A    between atoms: N03_4  and  C02_3 
REMARK    4  A    between atoms: N11_12  and  C09_10 
REMARK    5  A    between atoms: N11_12  and  C12_13 
REMARK    6  A    between atoms: C12_13  and  C14_14 
ROOT
ATOM      1  N03 OKM d   1     -10.620   2.147  -3.037  0.00  0.00    -0.226 N 
ATOM      2  C04 OKM d   1     -11.521   3.057  -3.408  0.00  0.00     0.696 C 
ATOM      3  N05 OKM d   1     -11.445   4.388  -2.886  0.00  0.00    -0.140 N 
ATOM      4  C06 OKM d   1     -12.413   5.303  -3.337  0.00  0.00     0.352 C 
ATOM      5  O07 OKM d   1     -12.421   6.428  -2.912  0.00  0.00    -0.246 OA
ATOM      6  N08 OKM d   1     -13.498   4.915  -4.131  0.00  0.00    -0.140 N 
ATOM      7  C09 OKM d   1     -13.527   3.573  -4.666  0.00  0.00     0.697 C 
ATOM      8  N10 OKM d   1     -12.579   2.636  -4.199  0.00  0.00    -0.022 N 
ATOM      9  H9  OKM d   1     -10.755   1.185  -3.378  0.00  0.00     0.177 HD
ATOM     10  H10 OKM d   1     -10.737   4.654  -2.232  0.00  0.00     0.189 HD
ATOM     11  H11 OKM d   1     -14.241   5.556  -4.325  0.00  0.00     0.189 HD
ATOM     12  H12 OKM d   1     -12.674   1.641  -4.446  0.00  0.00     0.203 HD
ENDROOT
BRANCH   7  13
ATOM     13  N11 OKM d   1     -14.583   3.187  -5.474  0.00  0.00    -0.222 N 
ATOM     14  H13 OKM d   1     -15.312   3.895  -5.641  0.00  0.00     0.178 HD
BRANCH  13  15
ATOM     15  C12 OKM d   1     -14.781   1.888  -6.118  0.00  0.00     0.019 C 
ATOM     16  H14 OKM d   1     -13.804   1.401  -6.254  0.00  0.00     0.072 H 
BRANCH  15  17
ATOM     17  C13 OKM d   1     -15.469   2.014  -7.525  0.00  0.00    -0.057 C 
ATOM     18  H1  OKM d   1     -15.594   1.013  -7.963  0.00  0.00     0.030 H 
ATOM     19  H2  OKM d   1     -14.841   2.628  -8.187  0.00  0.00     0.030 H 
ATOM     20  H3  OKM d   1     -16.454   2.489  -7.410  0.00  0.00     0.030 H 
ENDBRANCH  15  17
BRANCH  15  21
ATOM     21  C14 OKM d   1     -15.618   1.072  -5.184  0.00  0.00    -0.057 C 
ATOM     22  H15 OKM d   1     -15.114   1.000  -4.209  0.00  0.00     0.030 H 
ATOM     23  H16 OKM d   1     -15.756   0.064  -5.601  0.00  0.00     0.030 H 
ATOM     24  H17 OKM d   1     -16.599   1.553  -5.056  0.00  0.00     0.030 H 
ENDBRANCH  15  21
ENDBRANCH  13  15
ENDBRANCH   7  13
BRANCH   1  25
ATOM     25  C02 OKM d   1      -9.476   2.394  -2.202  0.00  0.00     0.006 C 
ATOM     26  H7  OKM d   1      -8.878   3.209  -2.636  0.00  0.00     0.064 H 
ATOM     27  H8  OKM d   1      -9.815   2.683  -1.196  0.00  0.00     0.064 H 
BRANCH  25  28
ATOM     28  C01 OKM d   1      -8.608   1.118  -2.103  0.00  0.00    -0.061 C 
ATOM     29  H4  OKM d   1      -7.736   1.317  -1.463  0.00  0.00     0.029 H 
ATOM     30  H5  OKM d   1      -8.267   0.828  -3.108  0.00  0.00     0.029 H 
ATOM     31  H6  OKM d   1      -9.204   0.302  -1.668  0.00  0.00     0.029 H 
ENDBRANCH  25  28
ENDBRANCH   1  25
TORSDOF 6
