REMARK  11 active torsions:
REMARK  status: ('A' for Active; 'I' for Inactive)
REMARK    1  A    between atoms: C3_2  and  C2_1 
REMARK    2  A    between atoms: C2_1  and  N1_10 
REMARK    3  A    between atoms: C4_3  and  C3_2 
REMARK    4  A    between atoms: N5_11  and  C4_3 
REMARK    5  A    between atoms: C6_4  and  C7_5 
REMARK    6  A    between atoms: C6_4  and  N5_11 
REMARK    7  A    between atoms: C7_5  and  C8_6 
REMARK    8  A    between atoms: C8_6  and  C9_7 
REMARK    9  A    between atoms: C9_7  and  C10_8 
REMARK   10  A    between atoms: C10_8  and  C11_9 
REMARK       I    between atoms: C11_9  and  N13_12 
REMARK   11  A    between atoms: N13_12  and  O14_14 
ROOT
ATOM      1  C6  XS6 d   1     -15.661  39.601 -12.774  0.00  0.00     0.082 C 
ATOM      2  H7  XS6 d   1     -14.860  39.908 -12.086  0.00  0.00     0.075 H 
ATOM      3  H8  XS6 d   1     -16.478  39.137 -12.202  0.00  0.00     0.075 H 
ENDROOT
BRANCH   1   4
ATOM      4  C7  XS6 d   1     -15.083  38.534 -13.754  0.00  0.00    -0.043 C 
ATOM      5  H9  XS6 d   1     -15.092  37.563 -13.237  0.00  0.00     0.035 H 
ATOM      6  H10 XS6 d   1     -14.045  38.817 -13.984  0.00  0.00     0.035 H 
BRANCH   4   7
ATOM      7  C8  XS6 d   1     -15.832  38.361 -15.093  0.00  0.00    -0.063 C 
ATOM      8  H11 XS6 d   1     -15.946  39.352 -15.558  0.00  0.00     0.033 H 
ATOM      9  H12 XS6 d   1     -16.826  37.938 -14.883  0.00  0.00     0.033 H 
BRANCH   7  10
ATOM     10  C9  XS6 d   1     -15.113  37.438 -16.089  0.00  0.00    -0.057 C 
ATOM     11  H13 XS6 d   1     -15.877  36.979 -16.734  0.00  0.00     0.033 H 
ATOM     12  H14 XS6 d   1     -14.601  36.654 -15.512  0.00  0.00     0.033 H 
BRANCH  10  13
ATOM     13  C10 XS6 d   1     -14.073  38.105 -16.997  0.00  0.00     0.011 C 
ATOM     14  H15 XS6 d   1     -13.481  38.781 -16.363  0.00  0.00     0.047 H 
ATOM     15  H16 XS6 d   1     -14.629  38.694 -17.741  0.00  0.00     0.047 H 
BRANCH  13  16
ATOM     16  C11 XS6 d   1     -13.084  37.240 -17.766  0.00  0.00     0.240 C 
ATOM     17  N13 XS6 d   1     -13.141  35.892 -17.766  0.00  0.00    -0.237 N 
ATOM     18  H22 XS6 d   1     -13.838  35.388 -17.256  0.00  0.00     0.197 HD
ATOM     19  O12 XS6 d   1     -12.176  37.824 -18.436  0.00  0.00    -0.271 OA
BRANCH  17  20
ATOM     20  O14 XS6 d   1     -12.212  35.279 -18.487  0.00  0.00    -0.287 OA
ATOM     21  H23 XS6 d   1     -12.334  34.339 -18.425  0.00  0.00     0.244 HD
ENDBRANCH  17  20
ENDBRANCH  13  16
ENDBRANCH  10  13
ENDBRANCH   7  10
ENDBRANCH   4   7
ENDBRANCH   1   4
BRANCH   1  22
ATOM     22  N5  XS6 d   1     -16.200  40.836 -13.453  0.00  0.00    -0.075 N 
ATOM     23  H20 XS6 d   1     -16.019  40.762 -14.442  0.00  0.00     0.277 HD
ATOM     24  H21 XS6 d   1     -17.195  40.879 -13.296  0.00  0.00     0.277 HD
BRANCH  22  25
ATOM     25  C4  XS6 d   1     -15.576  42.126 -12.944  0.00  0.00     0.083 C 
ATOM     26  H5  XS6 d   1     -14.537  41.922 -12.646  0.00  0.00     0.075 H 
ATOM     27  H6  XS6 d   1     -15.585  42.868 -13.756  0.00  0.00     0.075 H 
BRANCH  25  28
ATOM     28  C3  XS6 d   1     -16.336  42.707 -11.732  0.00  0.00    -0.020 C 
ATOM     29  H3  XS6 d   1     -16.075  42.108 -10.847  0.00  0.00     0.037 H 
ATOM     30  H4  XS6 d   1     -16.000  43.744 -11.585  0.00  0.00     0.037 H 
BRANCH  28  31
ATOM     31  C2  XS6 d   1     -17.884  42.717 -11.866  0.00  0.00     0.081 C 
ATOM     32  H1  XS6 d   1     -18.322  42.685 -10.858  0.00  0.00     0.075 H 
ATOM     33  H2  XS6 d   1     -18.192  41.823 -12.429  0.00  0.00     0.075 H 
BRANCH  31  34
ATOM     34  N1  XS6 d   1     -18.395  43.900 -12.557  0.00  0.00    -0.079 N 
ATOM     35  H17 XS6 d   1     -19.400  43.849 -12.612  0.00  0.00     0.274 HD
ATOM     36  H18 XS6 d   1     -18.009  43.939 -13.487  0.00  0.00     0.274 HD
ATOM     37  H19 XS6 d   1     -18.128  44.728 -12.048  0.00  0.00     0.274 HD
ENDBRANCH  31  34
ENDBRANCH  28  31
ENDBRANCH  25  28
ENDBRANCH  22  25
ENDBRANCH   1  22
TORSDOF 11
