REMARK  9 active torsions:
REMARK  status: ('A' for Active; 'I' for Inactive)
REMARK    1  A    between atoms: C02_1  and  C03_2 
REMARK    2  A    between atoms: C02_1  and  N01_9 
REMARK    3  A    between atoms: C03_2  and  C04_3 
REMARK    4  A    between atoms: C04_3  and  C05_4 
REMARK    5  A    between atoms: C05_4  and  C06_5 
REMARK    6  A    between atoms: C06_5  and  C07_6 
REMARK    7  A    between atoms: C07_6  and  C08_7 
REMARK    8  A    between atoms: C08_7  and  C09_8 
REMARK       I    between atoms: C09_8  and  N10_10 
REMARK    9  A    between atoms: N10_10  and  O11_11 
ROOT
ATOM      1  C05 OKS d   1      42.897  40.535  25.940  0.00  0.00    -0.065 C 
ATOM      2  H7  OKS d   1      41.937  40.569  26.475  0.00  0.00     0.033 H 
ATOM      3  H8  OKS d   1      43.720  40.687  26.654  0.00  0.00     0.033 H 
ENDROOT
BRANCH   1   4
ATOM      4  C04 OKS d   1      42.922  41.711  24.913  0.00  0.00    -0.064 C 
ATOM      5  H5  OKS d   1      42.792  41.287  23.906  0.00  0.00     0.033 H 
ATOM      6  H6  OKS d   1      42.080  42.381  25.141  0.00  0.00     0.033 H 
BRANCH   4   7
ATOM      7  C03 OKS d   1      44.242  42.569  24.915  0.00  0.00    -0.043 C 
ATOM      8  H3  OKS d   1      44.095  43.443  25.566  0.00  0.00     0.035 H 
ATOM      9  H4  OKS d   1      45.064  41.953  25.308  0.00  0.00     0.035 H 
BRANCH   7  10
ATOM     10  C02 OKS d   1      44.629  43.069  23.479  0.00  0.00     0.080 C 
ATOM     11  H1  OKS d   1      43.943  43.881  23.196  0.00  0.00     0.075 H 
ATOM     12  H2  OKS d   1      44.515  42.231  22.775  0.00  0.00     0.075 H 
BRANCH  10  13
ATOM     13  N01 OKS d   1      46.071  43.593  23.384  0.00  0.00    -0.079 N 
ATOM     14  H15 OKS d   1      46.256  43.898  22.441  0.00  0.00     0.274 HD
ATOM     15  H16 OKS d   1      46.713  42.856  23.632  0.00  0.00     0.274 HD
ATOM     16  H17 OKS d   1      46.189  44.369  24.017  0.00  0.00     0.274 HD
ENDBRANCH  10  13
ENDBRANCH   7  10
ENDBRANCH   4   7
ENDBRANCH   1   4
BRANCH   1  17
ATOM     17  C06 OKS d   1      43.056  39.097  25.306  0.00  0.00    -0.065 C 
ATOM     18  H9  OKS d   1      44.120  38.943  25.072  0.00  0.00     0.033 H 
ATOM     19  H10 OKS d   1      42.468  39.067  24.377  0.00  0.00     0.033 H 
BRANCH  17  20
ATOM     20  C07 OKS d   1      42.585  37.918  26.216  0.00  0.00    -0.057 C 
ATOM     21  H11 OKS d   1      41.808  37.355  25.679  0.00  0.00     0.033 H 
ATOM     22  H12 OKS d   1      42.160  38.341  27.138  0.00  0.00     0.033 H 
BRANCH  20  23
ATOM     23  C08 OKS d   1      43.718  36.934  26.607  0.00  0.00     0.011 C 
ATOM     24  H13 OKS d   1      44.591  37.539  26.892  0.00  0.00     0.047 H 
ATOM     25  H14 OKS d   1      43.959  36.342  25.712  0.00  0.00     0.047 H 
BRANCH  23  26
ATOM     26  C09 OKS d   1      43.459  35.946  27.747  0.00  0.00     0.240 C 
ATOM     27  N10 OKS d   1      42.743  34.790  27.595  0.00  0.00    -0.237 N 
ATOM     28  H18 OKS d   1      42.342  34.544  26.713  0.00  0.00     0.197 HD
ATOM     29  O12 OKS d   1      43.957  36.258  28.889  0.00  0.00    -0.271 OA
BRANCH  27  30
ATOM     30  O11 OKS d   1      42.587  33.950  28.732  0.00  0.00    -0.287 OA
ATOM     31  H19 OKS d   1      42.074  33.187  28.493  0.00  0.00     0.244 HD
ENDBRANCH  27  30
ENDBRANCH  23  26
ENDBRANCH  20  23
ENDBRANCH  17  20
ENDBRANCH   1  17
TORSDOF 9
