REMARK  7 active torsions:
REMARK  status: ('A' for Active; 'I' for Inactive)
REMARK    1  A    between atoms: C5_2  and  C2_1 
REMARK    2  A    between atoms: N11_21  and  C7_4 
REMARK       I    between atoms: C12_6  and  N11_21 
REMARK       I    between atoms: N14_23  and  C12_6 
REMARK    3  A    between atoms: C15_7  and  N14_23 
REMARK    4  A    between atoms: S19_26  and  C18_8 
REMARK    5  A    between atoms: C21_9  and  C20_27 
REMARK    6  A    between atoms: C26_29  and  C27_13 
REMARK    7  A    between atoms: C20_27  and  S19_26 
ROOT
ATOM      1  C15 OOJ d   1      -6.302  11.711  17.451  0.00  0.00     0.198 A 
ATOM      2  C18 OOJ d   1      -6.634  12.223  19.848  0.00  0.00     0.160 A 
ATOM      3  N16 OOJ d   1      -7.372  12.371  17.738  0.00  0.00    -0.122 NA
ATOM      4  N17 OOJ d   1      -7.548  12.661  19.056  0.00  0.00    -0.133 NA
ATOM      5  S33 OOJ d   1      -5.381  11.365  18.922  0.00  0.00    -0.022 SA
ENDROOT
BRANCH   2   6
ATOM      6  S19 OOJ d   1      -6.768  12.540  21.573  0.00  0.00    -0.095 SA
BRANCH   6   7
ATOM      7  C20 OOJ d   1      -5.803  11.284  22.448  0.00  0.00     0.023 C 
ATOM      8  H12 OOJ d   1      -6.366  10.339  22.480  0.00  0.00     0.059 H 
ATOM      9  H13 OOJ d   1      -4.846  11.123  21.930  0.00  0.00     0.059 H 
BRANCH   7  10
ATOM     10  C21 OOJ d   1      -5.545  11.774  23.857  0.00  0.00     0.051 A 
ATOM     11  N22 OOJ d   1      -5.807  13.033  24.213  0.00  0.00    -0.234 NA
ATOM     12  C23 OOJ d   1      -5.575  13.493  25.452  0.00  0.00     0.137 A 
ATOM     13  C24 OOJ d   1      -5.881  14.834  25.781  0.00  0.00    -0.037 A 
ATOM     14  N29 OOJ d   1      -5.037  12.667  26.414  0.00  0.00    -0.273 N 
ATOM     15  C25 OOJ d   1      -5.635  15.289  27.051  0.00  0.00    -0.072 A 
ATOM     16  H3  OOJ d   1      -6.308  15.499  25.032  0.00  0.00     0.089 H 
ATOM     17  C26 OOJ d   1      -5.074  14.424  28.014  0.00  0.00    -0.046 A 
ATOM     18  H14 OOJ d   1      -5.873  16.318  27.316  0.00  0.00     0.084 H 
ATOM     19  C28 OOJ d   1      -4.784  13.144  27.678  0.00  0.00    -0.004 A 
ATOM     20  H15 OOJ d   1      -4.343  12.482  28.422  0.00  0.00     0.113 H 
ATOM     21  C30 OOJ d   1      -4.776  11.376  26.091  0.00  0.00     0.255 A 
ATOM     22  C32 OOJ d   1      -5.025  10.899  24.795  0.00  0.00     0.008 A 
ATOM     23  O31 OOJ d   1      -4.307  10.621  26.904  0.00  0.00    -0.268 OA
ATOM     24  H7  OOJ d   1      -4.814   9.863  24.533  0.00  0.00     0.095 H 
BRANCH  17  25
ATOM     25  C27 OOJ d   1      -4.787  14.913  29.414  0.00  0.00    -0.050 C 
ATOM     26  H4  OOJ d   1      -5.085  15.968  29.502  0.00  0.00     0.033 H 
ATOM     27  H5  OOJ d   1      -3.711  14.817  29.622  0.00  0.00     0.033 H 
ATOM     28  H6  OOJ d   1      -5.356  14.310  30.137  0.00  0.00     0.033 H 
ENDBRANCH  17  25
ENDBRANCH   7  10
ENDBRANCH   6   7
ENDBRANCH   2   6
BRANCH   1  29
ATOM     29  N14 OOJ d   1      -6.045  11.362  16.134  0.00  0.00    -0.286 N 
ATOM     30  C12 OOJ d   1      -4.846  11.426  15.526  0.00  0.00     0.326 C 
ATOM     31  N11 OOJ d   1      -4.818  11.064  14.216  0.00  0.00    -0.309 N 
ATOM     32  O13 OOJ d   1      -3.854  11.788  16.140  0.00  0.00    -0.247 OA
ATOM     33  H10 OOJ d   1      -5.676  10.750  13.811  0.00  0.00     0.170 HD
ATOM     34  H11 OOJ d   1      -6.817  11.035  15.589  0.00  0.00     0.172 HD
BRANCH  31  35
ATOM     35  C7  OOJ d   1      -3.692  11.093  13.385  0.00  0.00     0.037 A 
ATOM     36  C6  OOJ d   1      -2.415  10.691  13.789  0.00  0.00    -0.043 A 
ATOM     37  C5  OOJ d   1      -1.360  10.757  12.891  0.00  0.00     0.050 A 
ATOM     38  H1  OOJ d   1      -2.251  10.330  14.798  0.00  0.00     0.088 H 
ATOM     39  C10 OOJ d   1      -1.580  11.233  11.600  0.00  0.00    -0.068 A 
ATOM     40  C9  OOJ d   1      -2.845  11.628  11.198  0.00  0.00    -0.080 A 
ATOM     41  H9  OOJ d   1      -0.752  11.295  10.903  0.00  0.00     0.084 H 
ATOM     42  C8  OOJ d   1      -3.901  11.560  12.084  0.00  0.00    -0.057 A 
ATOM     43  H8  OOJ d   1      -3.006  11.990  10.189  0.00  0.00     0.083 H 
ATOM     44  H2  OOJ d   1      -4.892  11.868  11.771  0.00  0.00     0.086 H 
BRANCH  37  45
ATOM     45  C2  OOJ d   1       0.020  10.338  13.339  0.00  0.00     0.417 C 
ATOM     46  F1  OOJ d   1       0.880  10.237  12.254  0.00  0.00    -0.166 F 
ATOM     47  F3  OOJ d   1       0.026   9.131  14.035  0.00  0.00    -0.166 F 
ATOM     48  F4  OOJ d   1       0.503  11.325  14.190  0.00  0.00    -0.166 F 
ENDBRANCH  37  45
ENDBRANCH  31  35
ENDBRANCH   1  29
TORSDOF 7
