REMARK  9 active torsions:
REMARK  status: ('A' for Active; 'I' for Inactive)
REMARK    1  A    between atoms: C3_3  and  C1_1 
REMARK    2  A    between atoms: O2_29  and  C3_3 
REMARK    3  A    between atoms: C4_4  and  O2_29 
REMARK    4  A    between atoms: C12_12  and  C10_10 
REMARK       I    between atoms: N2_25  and  C12_12 
REMARK    5  A    between atoms: C13_13  and  C14_14 
REMARK    6  A    between atoms: C13_13  and  C21_23 
REMARK    7  A    between atoms: C13_13  and  N2_25 
REMARK    8  A    between atoms: C17_17  and  C20_19 
REMARK    9  A    between atoms: C21_23  and  O6_24 
ROOT
ATOM      1  C4  ONV d   1      15.011  25.702  -7.992  0.00  0.00     0.092 A 
ATOM      2  C5  ONV d   1      15.406  25.156  -6.780  0.00  0.00     0.068 A 
ATOM      3  C6  ONV d   1      14.742  27.000  -8.147  0.00  0.00    -0.022 A 
ATOM      4  C7  ONV d   1      14.828  27.800  -7.072  0.00  0.00     0.045 A 
ATOM      5  C8  ONV d   1      15.212  27.273  -5.847  0.00  0.00    -0.005 A 
ATOM      6  C9  ONV d   1      15.539  25.930  -5.692  0.00  0.00    -0.047 A 
ATOM      7  C10 ONV d   1      14.902  29.448  -5.690  0.00  0.00     0.102 A 
ATOM      8  C11 ONV d   1      15.305  28.328  -5.002  0.00  0.00    -0.040 A 
ATOM      9 CL   ONV d   1      15.703  23.389  -6.761  0.00  0.00    -0.081 Cl
ATOM     10  N11 ONV d   1      14.623  29.153  -6.973  0.00  0.00    -0.351 N 
ATOM     11  H6  ONV d   1      14.461  27.398  -9.116  0.00  0.00     0.091 H 
ATOM     12  H7  ONV d   1      15.882  25.531  -4.745  0.00  0.00     0.087 H 
ATOM     13  H8  ONV d   1      15.639  28.295  -3.966  0.00  0.00     0.088 H 
ATOM     14  H18 ONV d   1      14.322  29.800  -7.716  0.00  0.00     0.166 HD
ENDROOT
BRANCH   7  15
ATOM     15  C12 ONV d   1      14.842  30.791  -5.147  0.00  0.00     0.268 C 
ATOM     16  N2  ONV d   1      15.438  30.980  -4.009  0.00  0.00    -0.345 N 
ATOM     17  H17 ONV d   1      15.953  30.226  -3.601  0.00  0.00     0.163 HD
ATOM     18  O3  ONV d   1      14.339  31.663  -5.845  0.00  0.00    -0.266 OA
BRANCH  16  19
ATOM     19  C13 ONV d   1      15.380  32.262  -3.305  0.00  0.00     0.058 C 
ATOM     20  H9  ONV d   1      15.520  33.098  -4.006  0.00  0.00     0.083 H 
BRANCH  19  21
ATOM     21  C14 ONV d   1      14.073  32.375  -2.579  0.00  0.00    -0.033 A 
ATOM     22  C15 ONV d   1      13.631  31.261  -1.845  0.00  0.00    -0.074 A 
ATOM     23  C16 ONV d   1      12.443  31.300  -1.148  0.00  0.00    -0.066 A 
ATOM     24  H10 ONV d   1      14.232  30.359  -1.827  0.00  0.00     0.084 H 
ATOM     25  C17 ONV d   1      11.648  32.446  -1.102  0.00  0.00     0.040 A 
ATOM     26  H11 ONV d   1      12.116  30.413  -0.619  0.00  0.00     0.085 H 
ATOM     27  C18 ONV d   1      12.071  33.571  -1.868  0.00  0.00    -0.066 A 
ATOM     28  C19 ONV d   1      13.255  33.519  -2.620  0.00  0.00    -0.074 A 
ATOM     29  H12 ONV d   1      11.473  34.475  -1.870  0.00  0.00     0.085 H 
ATOM     30  H13 ONV d   1      13.541  34.364  -3.235  0.00  0.00     0.084 H 
BRANCH  25  31
ATOM     31  C20 ONV d   1      10.336  32.450  -0.281  0.00  0.00     0.209 C 
ATOM     32  O5  ONV d   1       9.422  33.120  -0.860  0.00  0.00    -0.644 OA
ATOM     33  O4  ONV d   1      10.163  31.855   0.905  0.00  0.00    -0.644 OA
ENDBRANCH  25  31
ENDBRANCH  19  21
BRANCH  19  34
ATOM     34  C21 ONV d   1      16.452  32.253  -2.225  0.00  0.00     0.039 C 
ATOM     35  H14 ONV d   1      16.335  31.352  -1.605  0.00  0.00     0.077 H 
ATOM     36  H15 ONV d   1      16.341  33.148  -1.596  0.00  0.00     0.077 H 
BRANCH  34  37
ATOM     37  O6  ONV d   1      17.752  32.252  -2.818  0.00  0.00    -0.399 OA
ATOM     38  H16 ONV d   1      17.851  31.479  -3.361  0.00  0.00     0.209 HD
ENDBRANCH  34  37
ENDBRANCH  19  34
ENDBRANCH  16  19
ENDBRANCH   7  15
BRANCH   1  39
ATOM     39  O2  ONV d   1      14.759  25.021  -9.138  0.00  0.00    -0.347 OA
BRANCH  39  40
ATOM     40  C3  ONV d   1      15.575  24.082  -9.770  0.00  0.00     0.052 C 
ATOM     41  H4  ONV d   1      16.511  23.948  -9.208  0.00  0.00     0.079 H 
ATOM     42  H5  ONV d   1      15.055  23.116  -9.852  0.00  0.00     0.079 H 
BRANCH  40  43
ATOM     43  C1  ONV d   1      15.862  24.646 -11.146  0.00  0.00     0.086 C 
ATOM     44  C2  ONV d   1      14.784  24.169 -12.108  0.00  0.00     0.024 C 
ATOM     45  N   ONV d   1      15.425  22.929 -12.540  0.00  0.00    -0.334 N 
ATOM     46  H2  ONV d   1      14.630  24.870 -12.942  0.00  0.00     0.068 H 
ATOM     47  H3  ONV d   1      13.825  23.987 -11.601  0.00  0.00     0.068 H 
ATOM     48  C   ONV d   1      16.727  22.897 -12.310  0.00  0.00     0.361 C 
ATOM     49  H19 ONV d   1      14.926  22.176 -12.969  0.00  0.00     0.164 HD
ATOM     50  O1  ONV d   1      17.091  24.009 -11.446  0.00  0.00    -0.295 OA
ATOM     51  O   ONV d   1      17.561  22.116 -12.771  0.00  0.00    -0.239 OA
ATOM     52  H1  ONV d   1      15.940  25.743 -11.151  0.00  0.00     0.090 H 
ENDBRANCH  40  43
ENDBRANCH  39  40
ENDBRANCH   1  39
TORSDOF 9
