REMARK  16 active torsions:
REMARK  status: ('A' for Active; 'I' for Inactive)
REMARK    1  A    between atoms: C01_1  and  C02_2 
REMARK       I    between atoms: N01_12  and  C01_1 
REMARK    2  A    between atoms: C03_3  and  C04_4 
REMARK    3  A    between atoms: C03_3  and  C08_8 
REMARK    4  A    between atoms: C03_3  and  N01_12 
REMARK    5  A    between atoms: C04_4  and  C05_5 
REMARK    6  A    between atoms: C04_4  and  O02_15 
REMARK    7  A    between atoms: C05_5  and  C06_6 
REMARK    8  A    between atoms: C05_5  and  O03_16 
REMARK    9  A    between atoms: C06_6  and  C07_7 
REMARK   10  A    between atoms: C06_6  and  O04_17 
REMARK   11  A    between atoms: C07_7  and  O05_18 
REMARK   12  A    between atoms: C08_8  and  C09_9 
REMARK   13  A    between atoms: C08_8  and  O06_19 
REMARK   14  A    between atoms: C09_9  and  C10_10 
REMARK   15  A    between atoms: C10_10  and  C11_11 
REMARK   16  A    between atoms: N02_13  and  O09_22 
ROOT
ATOM      1  C03 OVY d   1     -20.818  23.395 -12.651  0.00  0.00     0.064 C 
ATOM      2  H4  OVY d   1     -19.916  24.024 -12.681  0.00  0.00     0.080 H 
ENDROOT
BRANCH   1   3
ATOM      3  C04 OVY d   1     -21.397  23.429 -11.209  0.00  0.00     0.084 C 
ATOM      4  H5  OVY d   1     -22.241  22.726 -11.163  0.00  0.00     0.090 H 
BRANCH   3   5
ATOM      5  C05 OVY d   1     -21.889  24.831 -10.822  0.00  0.00     0.089 C 
ATOM      6  H6  OVY d   1     -22.607  25.113 -11.606  0.00  0.00     0.091 H 
BRANCH   5   7
ATOM      7  C06 OVY d   1     -22.588  25.117  -9.495  0.00  0.00     0.083 C 
ATOM      8  H7  OVY d   1     -22.056  24.661  -8.647  0.00  0.00     0.090 H 
BRANCH   7   9
ATOM      9  C07 OVY d   1     -22.693  26.620  -9.291  0.00  0.00     0.043 C 
ATOM     10  H8  OVY d   1     -22.683  27.129 -10.266  0.00  0.00     0.078 H 
ATOM     11  H9  OVY d   1     -21.846  26.973  -8.684  0.00  0.00     0.078 H 
BRANCH   9  12
ATOM     12  O05 OVY d   1     -23.937  26.900  -8.605  0.00  0.00    -0.398 OA
ATOM     13  H17 OVY d   1     -24.664  26.591  -9.132  0.00  0.00     0.209 HD
ENDBRANCH   9  12
ENDBRANCH   7   9
BRANCH   7  14
ATOM     14  O04 OVY d   1     -23.879  24.511  -9.689  0.00  0.00    -0.391 OA
ATOM     15  H16 OVY d   1     -23.773  23.575  -9.813  0.00  0.00     0.210 HD
ENDBRANCH   7  14
ENDBRANCH   5   7
BRANCH   5  16
ATOM     16  O03 OVY d   1     -20.767  25.736 -10.876  0.00  0.00    -0.390 OA
ATOM     17  H15 OVY d   1     -20.292  25.601 -11.687  0.00  0.00     0.210 HD
ENDBRANCH   5  16
ENDBRANCH   3   5
BRANCH   3  18
ATOM     18  O02 OVY d   1     -20.415  23.051 -10.230  0.00  0.00    -0.391 OA
ATOM     19  H14 OVY d   1     -20.815  23.043  -9.368  0.00  0.00     0.210 HD
ENDBRANCH   3  18
ENDBRANCH   1   3
BRANCH   1  20
ATOM     20  C08 OVY d   1     -20.448  21.952 -13.067  0.00  0.00     0.063 C 
ATOM     21  H10 OVY d   1     -19.741  21.530 -12.338  0.00  0.00     0.086 H 
BRANCH  20  22
ATOM     22  C09 OVY d   1     -19.809  21.937 -14.456  0.00  0.00     0.010 C 
ATOM     23  H11 OVY d   1     -19.125  22.798 -14.495  0.00  0.00     0.046 H 
ATOM     24  H12 OVY d   1     -20.626  22.084 -15.178  0.00  0.00     0.046 H 
BRANCH  22  25
ATOM     25  C10 OVY d   1     -19.022  20.740 -14.935  0.00  0.00     0.140 C 
ATOM     26  N02 OVY d   1     -19.473  19.870 -15.759  0.00  0.00    -0.134 NA
BRANCH  25  27
ATOM     27  C11 OVY d   1     -17.572  20.534 -14.480  0.00  0.00     0.227 C 
ATOM     28  O07 OVY d   1     -17.301  21.071 -13.361  0.00  0.00    -0.643 OA
ATOM     29  O08 OVY d   1     -16.819  19.909 -15.227  0.00  0.00    -0.643 OA
ENDBRANCH  25  27
BRANCH  26  30
ATOM     30  O09 OVY d   1     -20.836  20.050 -16.219  0.00  0.00    -0.266 OA
ATOM     31  H19 OVY d   1     -21.061  19.351 -16.822  0.00  0.00     0.247 HD
ENDBRANCH  26  30
ENDBRANCH  22  25
ENDBRANCH  20  22
BRANCH  20  32
ATOM     32  O06 OVY d   1     -21.641  21.173 -13.086  0.00  0.00    -0.393 OA
ATOM     33  H18 OVY d   1     -22.247  21.540 -13.719  0.00  0.00     0.210 HD
ENDBRANCH  20  32
ENDBRANCH   1  20
BRANCH   1  34
ATOM     34  N01 OVY d   1     -21.796  23.903 -13.630  0.00  0.00    -0.352 N 
ATOM     35  C01 OVY d   1     -21.642  24.858 -14.582  0.00  0.00     0.214 C 
ATOM     36  O01 OVY d   1     -20.549  25.458 -14.741  0.00  0.00    -0.274 OA
ATOM     37  H13 OVY d   1     -22.703  23.484 -13.586  0.00  0.00     0.163 HD
BRANCH  35  38
ATOM     38  C02 OVY d   1     -22.869  25.171 -15.462  0.00  0.00    -0.003 C 
ATOM     39  H1  OVY d   1     -22.610  25.957 -16.186  0.00  0.00     0.040 H 
ATOM     40  H2  OVY d   1     -23.697  25.517 -14.826  0.00  0.00     0.040 H 
ATOM     41  H3  OVY d   1     -23.175  24.262 -16.001  0.00  0.00     0.040 H 
ENDBRANCH  35  38
ENDBRANCH   1  34
TORSDOF 16
