REMARK  17 active torsions:
REMARK  status: ('A' for Active; 'I' for Inactive)
REMARK    1  A    between atoms: C32_18  and  C07_2 
REMARK    2  A    between atoms: C1_4  and  N2_38 
REMARK    3  A    between atoms: C12_7  and  C13_8 
REMARK    4  A    between atoms: N11_37  and  C12_7 
REMARK    5  A    between atoms: C13_8  and  C14_9 
REMARK    6  A    between atoms: C13_8  and  C15_10 
REMARK    7  A    between atoms: C16_11  and  C17_12 
REMARK    8  A    between atoms: N11_37  and  C16_11 
REMARK    9  A    between atoms: C17_12  and  C19_13 
REMARK   10  A    between atoms: C17_12  and  O18_42 
REMARK   11  A    between atoms: C19_13  and  C32_18 
REMARK   12  A    between atoms: C19_13  and  N20_39 
REMARK       I    between atoms: N20_39  and  C21_15 
REMARK   13  A    between atoms: C21_15  and  O23_45 
REMARK   14  A    between atoms: O23_45  and  C49_25 
REMARK   15  A    between atoms: S8_48  and  C5_26 
REMARK   16  A    between atoms: N2_38  and  C79_31 
REMARK   17  A    between atoms: N11_37  and  S8_48 
ROOT
ATOM      1  C17 MOL d   1     -19.433  -0.248   1.593  0.00  0.00     0.071 C 
ATOM      2  H18 MOL d   1     -19.201   0.676   2.143  0.00  0.00     0.088 H 
ENDROOT
BRANCH   1   3
ATOM      3  C16 MOL d   1     -19.254   0.069   0.120  0.00  0.00     0.031 C 
ATOM      4  H16 MOL d   1     -20.060   0.744  -0.204  0.00  0.00     0.069 H 
ATOM      5  H17 MOL d   1     -19.304  -0.866  -0.458  0.00  0.00     0.069 H 
BRANCH   3   6
ATOM      6  N11 MOL d   1     -17.960   0.716  -0.124  0.00  0.00    -0.304 N 
BRANCH   6   7
ATOM      7  C12 MOL d   1     -17.964   2.193  -0.221  0.00  0.00     0.008 C 
ATOM      8  H7  MOL d   1     -16.983   2.502  -0.611  0.00  0.00     0.066 H 
ATOM      9  H8  MOL d   1     -18.749   2.476  -0.938  0.00  0.00     0.066 H 
BRANCH   7  10
ATOM     10  C13 MOL d   1     -18.214   2.972   1.066  0.00  0.00    -0.045 C 
ATOM     11  H9  MOL d   1     -19.181   2.662   1.489  0.00  0.00     0.041 H 
BRANCH  10  12
ATOM     12  C14 MOL d   1     -17.119   2.728   2.111  0.00  0.00    -0.072 C 
ATOM     13  H10 MOL d   1     -17.342   3.309   3.018  0.00  0.00     0.028 H 
ATOM     14  H11 MOL d   1     -16.147   3.043   1.704  0.00  0.00     0.028 H 
ATOM     15  H12 MOL d   1     -17.082   1.657   2.361  0.00  0.00     0.028 H 
ENDBRANCH  10  12
BRANCH  10  16
ATOM     16  C15 MOL d   1     -18.261   4.447   0.726  0.00  0.00    -0.072 C 
ATOM     17  H13 MOL d   1     -19.046   4.626  -0.024  0.00  0.00     0.028 H 
ATOM     18  H14 MOL d   1     -17.288   4.761   0.320  0.00  0.00     0.028 H 
ATOM     19  H15 MOL d   1     -18.483   5.026   1.635  0.00  0.00     0.028 H 
ENDBRANCH  10  16
ENDBRANCH   7  10
ENDBRANCH   6   7
BRANCH   6  20
ATOM     20  S8  MOL d   1     -16.847  -0.080  -0.980  0.00  0.00     0.261 S 
ATOM     21  O10 MOL d   1     -15.577   0.505  -0.671  0.00  0.00    -0.200 OA
ATOM     22  O9  MOL d   1     -17.058  -1.472  -0.703  0.00  0.00    -0.200 OA
BRANCH  20  23
ATOM     23  C5  MOL d   1     -17.170   0.212  -2.692  0.00  0.00     0.081 A 
ATOM     24  C4  MOL d   1     -18.113  -0.567  -3.343  0.00  0.00    -0.058 A 
ATOM     25  C3  MOL d   1     -18.474  -0.287  -4.650  0.00  0.00    -0.052 A 
ATOM     26  H28 MOL d   1     -18.571  -1.402  -2.825  0.00  0.00     0.086 H 
ATOM     27  C2  MOL d   1     -17.888   0.806  -5.296  0.00  0.00     0.077 A 
ATOM     28  H22 MOL d   1     -19.200  -0.906  -5.165  0.00  0.00     0.087 H 
ATOM     29  C39 MOL d   1     -16.926   1.575  -4.632  0.00  0.00     0.038 A 
ATOM     30  N1  MOL d   1     -18.134   1.185  -6.609  0.00  0.00    -0.224 NA
ATOM     31  C6  MOL d   1     -16.613   1.318  -3.301  0.00  0.00    -0.041 A 
ATOM     32  S1  MOL d   1     -16.395   2.891  -5.626  0.00  0.00    -0.050 SA
ATOM     33  H31 MOL d   1     -15.945   1.973  -2.753  0.00  0.00     0.088 H 
ATOM     34  C1  MOL d   1     -17.422   2.236  -6.915  0.00  0.00     0.168 A 
BRANCH  34  35
ATOM     35  N2  MOL d   1     -17.503   2.807  -8.133  0.00  0.00    -0.364 N 
ATOM     36  H38 MOL d   1     -18.440   3.042  -8.490  0.00  0.00     0.162 HD
BRANCH  35  37
ATOM     37  C79 MOL d   1     -16.368   3.113  -8.973  0.00  0.00     0.011 A 
ATOM     38  C29 MOL d   1     -16.485   4.340  -9.803  0.00  0.00    -0.044 A 
ATOM     39  C36 MOL d   1     -15.519   4.286  -8.664  0.00  0.00    -0.044 A 
ATOM     40  H20 MOL d   1     -16.116   4.342 -10.839  0.00  0.00     0.036 H 
ATOM     41  H21 MOL d   1     -17.385   4.969  -9.733  0.00  0.00     0.036 H 
ATOM     42  H26 MOL d   1     -15.706   4.877  -7.755  0.00  0.00     0.036 H 
ATOM     43  H27 MOL d   1     -14.437   4.250  -8.861  0.00  0.00     0.036 H 
ATOM     44  H34 MOL d   1     -15.918   2.191  -9.370  0.00  0.00     0.072 H 
ENDBRANCH  35  37
ENDBRANCH  34  35
ENDBRANCH  20  23
ENDBRANCH   6  20
ENDBRANCH   3   6
ENDBRANCH   1   3
BRANCH   1  45
ATOM     45  C19 MOL d   1     -18.512  -1.347   2.151  0.00  0.00     0.044 C 
ATOM     46  H19 MOL d   1     -17.488  -1.137   1.810  0.00  0.00     0.077 H 
BRANCH  45  47
ATOM     47  C32 MOL d   1     -18.899  -2.764   1.699  0.00  0.00    -0.019 C 
ATOM     48  H23 MOL d   1     -19.912  -3.004   2.054  0.00  0.00     0.043 H 
ATOM     49  H24 MOL d   1     -18.871  -2.825   0.601  0.00  0.00     0.043 H 
BRANCH  47  50
ATOM     50  C07 MOL d   1     -17.901  -3.745   2.293  0.00  0.00    -0.050 A 
ATOM     51  C06 MOL d   1     -18.239  -4.487   3.422  0.00  0.00    -0.039 A 
ATOM     52  C33 MOL d   1     -17.292  -5.297   3.994  0.00  0.00     0.119 A 
ATOM     53  H1  MOL d   1     -19.236  -4.425   3.842  0.00  0.00     0.089 H 
ATOM     54  C35 MOL d   1     -15.997  -5.384   3.539  0.00  0.00    -0.009 A 
ATOM     55  F1  MOL d   1     -17.620  -6.033   5.091  0.00  0.00    -0.206 F 
ATOM     56  C34 MOL d   1     -15.714  -4.694   2.393  0.00  0.00     0.119 A 
ATOM     57  H25 MOL d   1     -15.244  -5.966   4.059  0.00  0.00     0.092 H 
ATOM     58  C08 MOL d   1     -16.607  -3.844   1.789  0.00  0.00    -0.039 A 
ATOM     59  F2  MOL d   1     -14.462  -4.774   1.881  0.00  0.00    -0.206 F 
ATOM     60  H2  MOL d   1     -16.308  -3.256   0.929  0.00  0.00     0.089 H 
ENDBRANCH  47  50
ENDBRANCH  45  47
BRANCH  45  61
ATOM     61  N20 MOL d   1     -18.546  -1.339   3.617  0.00  0.00    -0.329 N 
ATOM     62  C21 MOL d   1     -17.433  -1.191   4.343  0.00  0.00     0.361 C 
ATOM     63  O22 MOL d   1     -16.320  -0.912   3.931  0.00  0.00    -0.238 OA
ATOM     64  H39 MOL d   1     -19.423  -1.447   4.085  0.00  0.00     0.165 HD
BRANCH  62  65
ATOM     65  O23 MOL d   1     -17.724  -1.445   5.638  0.00  0.00    -0.298 OA
BRANCH  65  66
ATOM     66  C49 MOL d   1     -16.597  -1.539   6.547  0.00  0.00     0.061 C 
ATOM     67  C59 MOL d   1     -16.631  -2.902   7.300  0.00  0.00     0.001 C 
ATOM     68  C11 MOL d   1     -17.942  -3.660   7.270  0.00  0.00     0.029 C 
ATOM     69  C69 MOL d   1     -16.491  -2.559   8.799  0.00  0.00     0.002 C 
ATOM     70  H30 MOL d   1     -15.813  -3.542   6.937  0.00  0.00     0.048 H 
ATOM     71  O2  MOL d   1     -18.759  -3.029   8.265  0.00  0.00    -0.360 OA
ATOM     72  H5  MOL d   1     -17.782  -4.720   7.517  0.00  0.00     0.075 H 
ATOM     73  H6  MOL d   1     -18.411  -3.582   6.278  0.00  0.00     0.075 H 
ATOM     74  C7  MOL d   1     -17.955  -2.409   9.252  0.00  0.00     0.135 C 
ATOM     75  O1  MOL d   1     -18.362  -1.057   9.373  0.00  0.00    -0.360 OA
ATOM     76  H33 MOL d   1     -18.088  -2.911  10.222  0.00  0.00     0.129 H 
ATOM     77  C8  MOL d   1     -18.087  -0.239   8.226  0.00  0.00     0.028 C 
ATOM     78  C9  MOL d   1     -16.694  -0.482   7.659  0.00  0.00    -0.007 C 
ATOM     79  H35 MOL d   1     -18.830  -0.463   7.446  0.00  0.00     0.075 H 
ATOM     80  H36 MOL d   1     -18.170   0.818   8.518  0.00  0.00     0.075 H 
ATOM     81  C10 MOL d   1     -15.843  -1.172   8.734  0.00  0.00    -0.049 C 
ATOM     82  H37 MOL d   1     -16.264   0.476   7.331  0.00  0.00     0.047 H 
ATOM     83  H3  MOL d   1     -14.788  -1.236   8.430  0.00  0.00     0.034 H 
ATOM     84  H4  MOL d   1     -15.916  -0.650   9.699  0.00  0.00     0.034 H 
ATOM     85  H32 MOL d   1     -15.920  -3.288   9.393  0.00  0.00     0.048 H 
ATOM     86  H29 MOL d   1     -15.659  -1.425   5.984  0.00  0.00     0.085 H 
ENDBRANCH  65  66
ENDBRANCH  62  65
ENDBRANCH  45  61
ENDBRANCH   1  45
BRANCH   1  87
ATOM     87  O18 MOL d   1     -20.814  -0.606   1.880  0.00  0.00    -0.392 OA
ATOM     88  H40 MOL d   1     -21.017  -1.438   1.468  0.00  0.00     0.210 HD
ENDBRANCH   1  87
TORSDOF 17
