REMARK  16 active torsions:
REMARK  status: ('A' for Active; 'I' for Inactive)
REMARK    1  A    between atoms: N_1  and  CA_2 
REMARK    2  A    between atoms: CA_2  and  C_3 
REMARK    3  A    between atoms: CA_2  and  CB_5 
REMARK       I    between atoms: C_3  and  N_7 
REMARK    4  A    between atoms: CB_5  and  OG_6 
REMARK    5  A    between atoms: N_7  and  CA_8 
REMARK    6  A    between atoms: CA_8  and  C_9 
REMARK    7  A    between atoms: CA_8  and  CB_11 
REMARK       I    between atoms: C_9  and  N_14 
REMARK    8  A    between atoms: CB_11  and  OG1_12 
REMARK    9  A    between atoms: CB_11  and  CG2_13 
REMARK   10  A    between atoms: N_14  and  CA_15 
REMARK   11  A    between atoms: CA_15  and  C_16 
REMARK   12  A    between atoms: CA_15  and  CB_18 
REMARK       I    between atoms: C_16  and  N_20 
REMARK   13  A    between atoms: CB_18  and  OG_19 
REMARK   14  A    between atoms: N_20  and  CA_21 
REMARK   15  A    between atoms: CA_21  and  C_22 
REMARK   16  A    between atoms: CA_21  and  CB_24 
ROOT
ATOM      1  CA  SER d   1      62.553   1.795  11.681  0.00  0.00     0.113 C 
ATOM      2  H9  SER d   1      61.651   1.443  12.204  0.00  0.00     0.091 H 
ENDROOT
BRANCH   1   3
ATOM      3  N   SER d   1      63.232   2.766  12.499  0.00  0.00    -0.344 N 
ATOM      4  C   SER d   1      63.594   2.510  13.752  0.00  0.00     0.251 C 
ATOM      5  O   SER d   1      63.294   1.464  14.323  0.00  0.00    -0.271 OA
ATOM      6  H8  SER d   1      63.438   3.664  12.111  0.00  0.00     0.163 HD
BRANCH   4   7
ATOM      7  CA  SER d   1      64.372   3.626  14.441  0.00  0.00     0.195 C 
ATOM      8  H4  SER d   1      64.044   4.587  14.019  0.00  0.00     0.102 H 
BRANCH   7   9
ATOM      9  N   SER d   1      64.027   3.607  15.886  0.00  0.00    -0.064 N 
ATOM     10  H1  SER d   1      64.532   4.339  16.361  0.00  0.00     0.275 HD
ATOM     11  H2  SER d   1      64.279   2.714  16.280  0.00  0.00     0.275 HD
ATOM     12  H3  SER d   1      63.036   3.755  15.997  0.00  0.00     0.275 HD
ENDBRANCH   7   9
BRANCH   7  13
ATOM     13  CB  SER d   1      65.895   3.510  14.207  0.00  0.00     0.051 C 
ATOM     14  H5  SER d   1      66.401   4.409  14.588  0.00  0.00     0.077 H 
ATOM     15  H6  SER d   1      66.101   3.401  13.132  0.00  0.00     0.077 H 
BRANCH  13  16
ATOM     16  OG  SER d   1      66.361   2.355  14.911  0.00  0.00    -0.398 OA
ATOM     17  H7  SER d   1      67.298   2.263  14.781  0.00  0.00     0.209 HD
ENDBRANCH  13  16
ENDBRANCH   7  13
ENDBRANCH   4   7
ENDBRANCH   1   3
BRANCH   1  18
ATOM     18  C   SER d   1      63.454   0.601  11.334  0.00  0.00     0.243 C 
ATOM     19  O   SER d   1      64.620   0.789  10.961  0.00  0.00    -0.271 OA
ATOM     20  N   SER d   1      62.894  -0.598  11.476  0.00  0.00    -0.344 N 
ATOM     21  H15 SER d   1      61.937  -0.635  11.763  0.00  0.00     0.163 HD
BRANCH  20  22
ATOM     22  CA  SER d   1      63.591  -1.873  11.238  0.00  0.00     0.109 C 
ATOM     23  H16 SER d   1      64.566  -1.674  10.769  0.00  0.00     0.090 H 
BRANCH  22  24
ATOM     24  C   SER d   1      62.732  -2.797  10.377  0.00  0.00     0.243 C 
ATOM     25  O   SER d   1      61.504  -2.721  10.430  0.00  0.00    -0.271 OA
ATOM     26  N   SER d   1      63.409  -3.681   9.648  0.00  0.00    -0.345 N 
ATOM     27  H20 SER d   1      64.394  -3.752   9.807  0.00  0.00     0.163 HD
BRANCH  26  28
ATOM     28  CA  SER d   1      62.822  -4.560   8.629  0.00  0.00     0.093 C 
ATOM     29  H21 SER d   1      61.805  -4.229   8.374  0.00  0.00     0.089 H 
BRANCH  28  30
ATOM     30  C   SER d   1      62.799  -5.944   9.243  0.00  0.00     0.196 C 
ATOM     31  O   SER d   1      62.084  -6.412  10.124  0.00  0.00    -0.646 OA
ATOM     32  OXT SER d   1      63.727  -6.588   8.774  0.00  0.00    -0.646 OA
ENDBRANCH  28  30
BRANCH  28  33
ATOM     33  CB  SER d   1      63.695  -4.583   7.364  0.00  0.00    -0.048 C 
ATOM     34  H22 SER d   1      63.238  -5.246   6.615  0.00  0.00     0.030 H 
ATOM     35  H23 SER d   1      64.699  -4.954   7.618  0.00  0.00     0.030 H 
ATOM     36  H24 SER d   1      63.773  -3.565   6.954  0.00  0.00     0.030 H 
ENDBRANCH  28  33
ENDBRANCH  26  28
ENDBRANCH  22  24
BRANCH  22  37
ATOM     37  CB  SER d   1      63.754  -2.707  12.522  0.00  0.00     0.044 C 
ATOM     38  H17 SER d   1      64.341  -3.611  12.302  0.00  0.00     0.077 H 
ATOM     39  H18 SER d   1      62.763  -2.997  12.901  0.00  0.00     0.077 H 
BRANCH  37  40
ATOM     40  OG  SER d   1      64.418  -1.940  13.487  0.00  0.00    -0.398 OA
ATOM     41  H19 SER d   1      64.520  -2.451  14.281  0.00  0.00     0.209 HD
ENDBRANCH  37  40
ENDBRANCH  22  37
ENDBRANCH  20  22
ENDBRANCH   1  18
BRANCH   1  42
ATOM     42  CB  SER d   1      62.179   2.453  10.344  0.00  0.00     0.060 C 
ATOM     43  H10 SER d   1      63.092   2.620   9.753  0.00  0.00     0.086 H 
BRANCH  42  44
ATOM     44  OG1 SER d   1      61.528   3.698  10.606  0.00  0.00    -0.393 OA
ATOM     45  H11 SER d   1      60.743   3.542  11.118  0.00  0.00     0.210 HD
ENDBRANCH  42  44
BRANCH  42  46
ATOM     46  CG2 SER d   1      61.242   1.620   9.579  0.00  0.00    -0.050 C 
ATOM     47  H12 SER d   1      60.997   2.120   8.631  0.00  0.00     0.031 H 
ATOM     48  H13 SER d   1      60.322   1.471  10.164  0.00  0.00     0.031 H 
ATOM     49  H14 SER d   1      61.705   0.644   9.370  0.00  0.00     0.031 H 
ENDBRANCH  42  46
ENDBRANCH   1  42
TORSDOF 16
