REMARK  16 active torsions:
REMARK  status: ('A' for Active; 'I' for Inactive)
REMARK    1  A    between atoms: C6_4  and  N17_27 
REMARK    2  A    between atoms: C10_6  and  N9_32 
REMARK    3  A    between atoms: C15_10  and  C12_7 
REMARK    4  A    between atoms: C13_8  and  O22_34 
REMARK    5  A    between atoms: C14_9  and  O23_35 
REMARK    6  A    between atoms: N16_26  and  C15_10 
REMARK    7  A    between atoms: C18_11  and  C19_12 
REMARK    8  A    between atoms: N16_26  and  C18_11 
REMARK    9  A    between atoms: C19_12  and  C20_13 
REMARK   10  A    between atoms: C20_13  and  N21_14 
REMARK   11  A    between atoms: C20_13  and  C36_25 
REMARK   12  A    between atoms: C24_15  and  C25_16 
REMARK   13  A    between atoms: C24_15  and  N16_26 
REMARK   14  A    between atoms: C25_16  and  C26_17 
REMARK   15  A    between atoms: C26_17  and  C27_18 
REMARK   16  A    between atoms: C29_20  and  C33_24 
REMARK       I    between atoms: C33_24  and  N34_29 
ROOT
ATOM      1  N16 OZP d   1      -3.301   2.780  -6.494  0.00  0.00    -0.069 N 
ATOM      2  H27 OZP d   1      -3.057   3.758  -6.510  0.00  0.00     0.280 HD
ENDROOT
BRANCH   1   3
ATOM      3  C15 OZP d   1      -2.343   2.085  -7.375  0.00  0.00     0.110 C 
ATOM      4  H7  OZP d   1      -2.093   1.096  -6.964  0.00  0.00     0.080 H 
ATOM      5  H8  OZP d   1      -2.766   1.967  -8.383  0.00  0.00     0.080 H 
BRANCH   3   6
ATOM      6  C12 OZP d   1      -1.069   2.995  -7.421  0.00  0.00     0.091 C 
ATOM      7  C13 OZP d   1      -1.301   4.064  -8.147  0.00  0.00     0.091 C 
ATOM      8  C14 OZP d   1      -0.407   3.949  -9.547  0.00  0.00     0.105 C 
ATOM      9  H5  OZP d   1      -2.372   4.139  -8.386  0.00  0.00     0.091 H 
ATOM     10  C10 OZP d   1      -0.070   2.675  -9.583  0.00  0.00     0.139 C 
ATOM     11  H6  OZP d   1      -1.025   4.191 -10.424  0.00  0.00     0.093 H 
ATOM     12  O11 OZP d   1       0.137   2.266  -8.092  0.00  0.00    -0.354 OA
ATOM     13  H3  OZP d   1      -0.948   2.136  -9.970  0.00  0.00     0.122 H 
ATOM     14  H4  OZP d   1      -0.802   3.287  -6.395  0.00  0.00     0.090 H 
BRANCH   7  15
ATOM     15  O22 OZP d   1      -0.880   5.213  -7.406  0.00  0.00    -0.390 OA
ATOM     16  H32 OZP d   1       0.041   5.128  -7.189  0.00  0.00     0.210 HD
ENDBRANCH   7  15
BRANCH   8  17
ATOM     17  O23 OZP d   1       0.679   4.868  -9.500  0.00  0.00    -0.388 OA
ATOM     18  H33 OZP d   1       0.341   5.752  -9.413  0.00  0.00     0.210 HD
ENDBRANCH   8  17
BRANCH  10  19
ATOM     19  N9  OZP d   1       1.069   2.212 -10.416  0.00  0.00    -0.294 N 
ATOM     20  C2  OZP d   1       2.362   2.073 -10.074  0.00  0.00     0.167 A 
ATOM     21  C1  OZP d   1       3.019   1.551 -11.190  0.00  0.00     0.149 A 
ATOM     22  N3  OZP d   1       3.078   2.340  -8.973  0.00  0.00    -0.222 NA
ATOM     23  C6  OZP d   1       4.406   1.318 -11.124  0.00  0.00     0.155 A 
ATOM     24  N7  OZP d   1       2.091   1.382 -12.126  0.00  0.00    -0.236 NA
ATOM     25  N5  OZP d   1       5.041   1.606  -9.999  0.00  0.00    -0.222 NA
ATOM     26  C4  OZP d   1       4.386   2.108  -8.945  0.00  0.00     0.091 A 
ATOM     27  H1  OZP d   1       4.940   2.332  -8.041  0.00  0.00     0.146 H 
ATOM     28  C8  OZP d   1       0.914   1.769 -11.658  0.00  0.00     0.071 A 
ATOM     29  H2  OZP d   1      -0.028   1.730 -12.203  0.00  0.00     0.144 H 
BRANCH  23  30
ATOM     30  N17 OZP d   1       5.154   0.741 -12.330  0.00  0.00    -0.382 N 
ATOM     31  H28 OZP d   1       6.169   0.573 -12.274  0.00  0.00     0.157 HD
ATOM     32  H29 OZP d   1       4.642   0.521 -13.196  0.00  0.00     0.157 HD
ENDBRANCH  23  30
ENDBRANCH  10  19
ENDBRANCH   3   6
ENDBRANCH   1   3
BRANCH   1  33
ATOM     33  C18 OZP d   1      -3.188   2.331  -5.079  0.00  0.00     0.086 C 
ATOM     34  H9  OZP d   1      -4.119   1.833  -4.772  0.00  0.00     0.076 H 
ATOM     35  H10 OZP d   1      -2.346   1.630  -4.978  0.00  0.00     0.076 H 
BRANCH  33  36
ATOM     36  C19 OZP d   1      -2.941   3.582  -4.186  0.00  0.00    -0.006 C 
ATOM     37  H11 OZP d   1      -3.766   4.289  -4.358  0.00  0.00     0.039 H 
ATOM     38  H12 OZP d   1      -1.993   4.042  -4.502  0.00  0.00     0.039 H 
BRANCH  36  39
ATOM     39  C20 OZP d   1      -2.855   3.308  -2.656  0.00  0.00     0.184 C 
ATOM     40  H13 OZP d   1      -2.724   4.269  -2.137  0.00  0.00     0.101 H 
BRANCH  39  41
ATOM     41  N21 OZP d   1      -1.715   2.447  -2.335  0.00  0.00    -0.065 N 
ATOM     42  H14 OZP d   1      -1.684   2.287  -1.340  0.00  0.00     0.275 HD
ATOM     43  H15 OZP d   1      -0.862   2.896  -2.630  0.00  0.00     0.275 HD
ATOM     44  H16 OZP d   1      -1.814   1.566  -2.814  0.00  0.00     0.275 HD
ENDBRANCH  39  41
BRANCH  39  45
ATOM     45  C36 OZP d   1      -4.121   2.671  -2.178  0.00  0.00     0.204 C 
ATOM     46  O37 OZP d   1      -5.212   3.054  -2.622  0.00  0.00    -0.646 OA
ATOM     47  O38 OZP d   1      -4.080   1.775  -1.337  0.00  0.00    -0.646 OA
ENDBRANCH  39  45
ENDBRANCH  36  39
ENDBRANCH  33  36
ENDBRANCH   1  33
BRANCH   1  48
ATOM     48  C24 OZP d   1      -4.722   2.672  -7.011  0.00  0.00     0.084 C 
ATOM     49  H17 OZP d   1      -5.336   3.450  -6.535  0.00  0.00     0.076 H 
ATOM     50  H18 OZP d   1      -4.719   2.823  -8.101  0.00  0.00     0.076 H 
BRANCH  48  51
ATOM     51  C25 OZP d   1      -5.328   1.301  -6.701  0.00  0.00    -0.039 C 
ATOM     52  H19 OZP d   1      -5.484   1.206  -5.616  0.00  0.00     0.035 H 
ATOM     53  H20 OZP d   1      -4.642   0.512  -7.043  0.00  0.00     0.035 H 
BRANCH  51  54
ATOM     54  C26 OZP d   1      -6.706   1.154  -7.442  0.00  0.00    -0.040 C 
ATOM     55  H21 OZP d   1      -6.507   1.068  -8.520  0.00  0.00     0.040 H 
ATOM     56  H22 OZP d   1      -7.297   2.062  -7.249  0.00  0.00     0.040 H 
BRANCH  54  57
ATOM     57  C27 OZP d   1      -7.543  -0.062  -7.011  0.00  0.00    -0.057 A 
ATOM     58  C28 OZP d   1      -7.364  -1.281  -7.680  0.00  0.00    -0.062 A 
ATOM     59  C29 OZP d   1      -8.120  -2.385  -7.321  0.00  0.00     0.032 A 
ATOM     60  H23 OZP d   1      -6.634  -1.360  -8.478  0.00  0.00     0.085 H 
ATOM     61  C30 OZP d   1      -9.050  -2.291  -6.289  0.00  0.00    -0.068 A 
ATOM     62  C31 OZP d   1      -9.224  -1.073  -5.620  0.00  0.00    -0.082 A 
ATOM     63  H24 OZP d   1      -9.637  -3.157  -6.005  0.00  0.00     0.085 H 
ATOM     64  C32 OZP d   1      -8.468   0.043  -5.985  0.00  0.00    -0.077 A 
ATOM     65  H25 OZP d   1      -9.948  -0.996  -4.816  0.00  0.00     0.083 H 
ATOM     66  H26 OZP d   1      -8.604   0.986  -5.468  0.00  0.00     0.084 H 
BRANCH  59  67
ATOM     67  C33 OZP d   1      -7.920  -3.713  -8.068  0.00  0.00     0.249 C 
ATOM     68  N34 OZP d   1      -6.600  -4.130  -8.447  0.00  0.00    -0.366 N 
ATOM     69  H30 OZP d   1      -6.469  -4.994  -8.933  0.00  0.00     0.159 HD
ATOM     70  H31 OZP d   1      -5.811  -3.557  -8.225  0.00  0.00     0.159 HD
ATOM     71  O35 OZP d   1      -8.851  -4.372  -8.337  0.00  0.00    -0.268 OA
ENDBRANCH  59  67
ENDBRANCH  54  57
ENDBRANCH  51  54
ENDBRANCH  48  51
ENDBRANCH   1  48
TORSDOF 16
