REMARK  15 active torsions:
REMARK  status: ('A' for Active; 'I' for Inactive)
REMARK    1  A    between atoms: C1'_19  and  N9_1 
REMARK    2  A    between atoms: C6_5  and  N6_6 
REMARK    3  A    between atoms: C5'_12  and  O5'_11 
REMARK    4  A    between atoms: O5'_11  and  PA_20 
REMARK    5  A    between atoms: C4'_13  and  C5'_12 
REMARK    6  A    between atoms: C3'_15  and  O3'_16 
REMARK    7  A    between atoms: C2'_17  and  O2'_18 
REMARK    8  A    between atoms: PA_20  and  O3A_23 
REMARK    9  A    between atoms: O3A_23  and  PB_24 
REMARK   10  A    between atoms: PB_24  and  O3B_27 
REMARK   11  A    between atoms: O3B_27  and  PG_28 
REMARK   12  A    between atoms: PG_28  and  O3G_31 
REMARK   13  A    between atoms: O3G_31  and  PD_32 
REMARK   14  A    between atoms: PD_32  and  O3D_35 
REMARK   15  A    between atoms: O3D_35  and  PE_36 
ROOT
ATOM      1  C4' MOL d   1       9.800  -3.472  16.341  0.00  0.00     0.089 C 
ATOM      2  O4' MOL d   1      10.996  -3.237  17.070  0.00  0.00    -0.353 OA
ATOM      3  C3' MOL d   1       9.113  -4.675  17.064  0.00  0.00     0.091 C 
ATOM      4  C2' MOL d   1       9.654  -4.504  18.496  0.00  0.00     0.105 C 
ATOM      5  C1' MOL d   1      11.104  -4.129  18.174  0.00  0.00     0.139 C 
ATOM      6  H7  MOL d   1       9.948  -3.669  15.269  0.00  0.00     0.090 H 
ATOM      7  H8  MOL d   1       8.017  -4.594  17.009  0.00  0.00     0.091 H 
ATOM      8  H10 MOL d   1       9.131  -3.679  19.002  0.00  0.00     0.093 H 
ATOM      9  H12 MOL d   1      11.698  -5.019  17.919  0.00  0.00     0.122 H 
ENDROOT
BRANCH   1  10
ATOM     10  C5' MOL d   1       9.087  -2.144  16.612  0.00  0.00     0.058 C 
ATOM     11  H5  MOL d   1       8.415  -2.298  17.469  0.00  0.00     0.079 H 
ATOM     12  H6  MOL d   1       9.856  -1.403  16.877  0.00  0.00     0.079 H 
BRANCH  10  13
ATOM     13  O5' MOL d   1       8.317  -1.600  15.561  0.00  0.00    -0.287 OA
BRANCH  13  14
ATOM     14  PA  MOL d   1       8.764  -0.185  14.880  0.00  0.00     0.417 P 
ATOM     15  O1A MOL d   1       7.985   0.895  15.381  0.00  0.00    -0.624 OA
ATOM     16  O2A MOL d   1      10.244   0.327  15.000  0.00  0.00    -0.624 OA
BRANCH  14  17
ATOM     17  O3A MOL d   1       8.790  -0.533  13.301  0.00  0.00    -0.180 OA
BRANCH  17  18
ATOM     18  PB  MOL d   1       7.778  -1.544  12.555  0.00  0.00     0.427 P 
ATOM     19  O1B MOL d   1       8.296  -1.499  11.214  0.00  0.00    -0.624 OA
ATOM     20  O2B MOL d   1       6.421  -0.799  12.532  0.00  0.00    -0.624 OA
BRANCH  18  21
ATOM     21  O3B MOL d   1       7.540  -3.050  12.998  0.00  0.00    -0.180 OA
BRANCH  21  22
ATOM     22  PG  MOL d   1       8.655  -3.939  12.253  0.00  0.00     0.427 P 
ATOM     23  O2G MOL d   1       8.405  -4.089  10.839  0.00  0.00    -0.624 OA
ATOM     24  O1G MOL d   1       8.689  -5.328  13.024  0.00  0.00    -0.624 OA
BRANCH  22  25
ATOM     25  O3G MOL d   1       9.955  -3.082  12.355  0.00  0.00    -0.180 OA
BRANCH  25  26
ATOM     26  PD  MOL d   1      11.060  -4.120  12.698  0.00  0.00     0.428 P 
ATOM     27  O1D MOL d   1      10.921  -4.610  14.060  0.00  0.00    -0.624 OA
ATOM     28  O2D MOL d   1      10.888  -5.437  11.792  0.00  0.00    -0.624 OA
BRANCH  26  29
ATOM     29  O3D MOL d   1      12.482  -3.530  12.249  0.00  0.00    -0.173 OA
BRANCH  29  30
ATOM     30  PE  MOL d   1      13.242  -2.763  13.324  0.00  0.00     0.431 P 
ATOM     31  O1E MOL d   1      13.128  -3.463  14.618  0.00  0.00    -0.616 OA
ATOM     32  O2E MOL d   1      12.401  -1.400  13.305  0.00  0.00    -0.616 OA
ATOM     33  O3E MOL d   1      14.785  -2.403  13.084  0.00  0.00    -0.616 OA
ENDBRANCH  29  30
ENDBRANCH  26  29
ENDBRANCH  25  26
ENDBRANCH  22  25
ENDBRANCH  21  22
ENDBRANCH  18  21
ENDBRANCH  17  18
ENDBRANCH  14  17
ENDBRANCH  13  14
ENDBRANCH  10  13
ENDBRANCH   1  10
BRANCH   3  34
ATOM     34  O3' MOL d   1       9.521  -5.951  16.632  0.00  0.00    -0.390 OA
ATOM     35  H9  MOL d   1       9.053  -6.615  17.124  0.00  0.00     0.210 HD
ENDBRANCH   3  34
BRANCH   5  36
ATOM     36  N9  MOL d   1      11.704  -3.427  19.281  0.00  0.00    -0.294 N 
ATOM     37  C8  MOL d   1      11.425  -2.185  19.693  0.00  0.00     0.071 A 
ATOM     38  N7  MOL d   1      12.139  -1.846  20.668  0.00  0.00    -0.236 NA
ATOM     39  H1  MOL d   1      10.670  -1.546  19.238  0.00  0.00     0.144 H 
ATOM     40  C5  MOL d   1      12.920  -2.876  20.993  0.00  0.00     0.149 A 
ATOM     41  C6  MOL d   1      13.869  -3.138  21.976  0.00  0.00     0.155 A 
ATOM     42  C4  MOL d   1      12.639  -3.916  20.083  0.00  0.00     0.167 A 
ATOM     43  N1  MOL d   1      14.466  -4.337  21.985  0.00  0.00    -0.222 NA
ATOM     44  C2  MOL d   1      14.181  -5.243  21.085  0.00  0.00     0.091 A 
ATOM     45  N3  MOL d   1      13.286  -5.038  20.163  0.00  0.00    -0.222 NA
ATOM     46  H4  MOL d   1      14.705  -6.191  21.108  0.00  0.00     0.146 H 
BRANCH  41  47
ATOM     47  N6  MOL d   1      14.116  -2.176  22.858  0.00  0.00    -0.382 N 
ATOM     48  H2  MOL d   1      14.811  -2.326  23.603  0.00  0.00     0.157 HD
ATOM     49  H3  MOL d   1      13.613  -1.280  22.797  0.00  0.00     0.157 HD
ENDBRANCH  41  47
ENDBRANCH   5  36
BRANCH   4  50
ATOM     50  O2' MOL d   1       9.592  -5.644  19.341  0.00  0.00    -0.388 OA
ATOM     51  H11 MOL d   1       9.950  -5.425  20.193  0.00  0.00     0.210 HD
ENDBRANCH   4  50
TORSDOF 15
