REMARK  9 active torsions:
REMARK  status: ('A' for Active; 'I' for Inactive)
REMARK    1  A    between atoms: C6_4  and  N6_10 
REMARK    2  A    between atoms: C1'_13  and  N9_19 
REMARK    3  A    between atoms: C2'_14  and  O2'_25 
REMARK    4  A    between atoms: C3'_15  and  O3'_27 
REMARK    5  A    between atoms: C5'_17  and  C4'_16 
REMARK    6  A    between atoms: O5'_32  and  C5'_17 
REMARK    7  A    between atoms: O3A_28  and  P2_37 
REMARK    8  A    between atoms: PA_38  and  O3A_28 
REMARK    9  A    between atoms: O5'_32  and  PA_38 
ROOT
ATOM      1  C1' OZV d   1     -11.635 -11.660  18.466  0.00  0.00     0.139 C 
ATOM      2  C2' OZV d   1     -10.365 -10.834  18.795  0.00  0.00     0.105 C 
ATOM      3  C3' OZV d   1      -9.237 -11.681  18.167  0.00  0.00     0.091 C 
ATOM      4  C4' OZV d   1     -10.011 -12.268  16.972  0.00  0.00     0.089 C 
ATOM      5  O4' OZV d   1     -11.214 -12.740  17.602  0.00  0.00    -0.353 OA
ATOM      6  H5  OZV d   1     -12.372 -11.023  17.955  0.00  0.00     0.122 H 
ATOM      7  H6  OZV d   1     -10.227 -10.719  19.880  0.00  0.00     0.093 H 
ATOM      8  H7  OZV d   1      -8.878 -12.461  18.854  0.00  0.00     0.091 H 
ATOM      9  H8  OZV d   1     -10.230 -11.493  16.223  0.00  0.00     0.090 H 
ENDROOT
BRANCH   4  10
ATOM     10  C5' OZV d   1      -9.252 -13.411  16.308  0.00  0.00     0.058 C 
ATOM     11  H9  OZV d   1      -9.889 -13.898  15.555  0.00  0.00     0.079 H 
ATOM     12  H10 OZV d   1      -8.948 -14.150  17.064  0.00  0.00     0.079 H 
BRANCH  10  13
ATOM     13  O5' OZV d   1      -8.100 -12.851  15.683  0.00  0.00    -0.287 OA
BRANCH  13  14
ATOM     14  PA  OZV d   1      -7.910 -13.526  14.231  0.00  0.00     0.417 P 
ATOM     15  O1A OZV d   1      -8.513 -14.870  14.163  0.00  0.00    -0.624 OA
ATOM     16  O2A OZV d   1      -6.328 -13.698  13.966  0.00  0.00    -0.624 OA
BRANCH  14  17
ATOM     17  O3A OZV d   1      -8.497 -12.566  13.090  0.00  0.00    -0.183 OA
BRANCH  17  18
ATOM     18  P2  OZV d   1     -10.000 -12.580  13.064  0.00  0.00     0.505 P 
ATOM     19  O01 OZV d   1     -10.478 -13.998  12.796  0.00  0.00    -0.182 OA
ATOM     20  P02 OZV d   1     -11.432 -14.908  13.520  0.00  0.00     0.426 P 
ATOM     21  O   OZV d   1     -12.679 -14.071  14.091  0.00  0.00    -0.180 OA
ATOM     22  O5  OZV d   1     -10.895 -15.532  14.783  0.00  0.00    -0.624 OA
ATOM     23  O6  OZV d   1     -12.050 -15.951  12.634  0.00  0.00    -0.624 OA
ATOM     24  P1  OZV d   1     -13.555 -13.138  13.315  0.00  0.00     0.427 P 
ATOM     25  O3  OZV d   1     -14.932 -13.027  13.913  0.00  0.00    -0.624 OA
ATOM     26  O1  OZV d   1     -13.634 -13.487  11.858  0.00  0.00    -0.624 OA
ATOM     27  O2  OZV d   1     -12.847 -11.822  13.580  0.00  0.00    -0.180 OA
ATOM     28  P01 OZV d   1     -11.852 -11.264  14.557  0.00  0.00     0.426 P 
ATOM     29  O02 OZV d   1     -11.716  -9.804  14.214  0.00  0.00    -0.624 OA
ATOM     30  O04 OZV d   1     -12.560 -11.441  15.867  0.00  0.00    -0.624 OA
ATOM     31  O4  OZV d   1     -10.599 -12.063  14.342  0.00  0.00    -0.182 OA
ATOM     32  O03 OZV d   1     -10.451 -11.793  11.869  0.00  0.00    -0.226 OA
ENDBRANCH  17  18
ENDBRANCH  14  17
ENDBRANCH  13  14
ENDBRANCH  10  13
ENDBRANCH   4  10
BRANCH   3  33
ATOM     33  O3' OZV d   1      -8.136 -10.887  17.727  0.00  0.00    -0.390 OA
ATOM     34  H12 OZV d   1      -7.543 -11.425  17.216  0.00  0.00     0.210 HD
ENDBRANCH   3  33
BRANCH   2  35
ATOM     35  O2' OZV d   1     -10.436  -9.550  18.173  0.00  0.00    -0.388 OA
ATOM     36  H11 OZV d   1      -9.609  -9.097  18.289  0.00  0.00     0.210 HD
ENDBRANCH   2  35
BRANCH   1  37
ATOM     37  N9  OZV d   1     -12.236 -12.232  19.668  0.00  0.00    -0.294 N 
ATOM     38  C4  OZV d   1     -13.210 -11.654  20.429  0.00  0.00     0.167 A 
ATOM     39  C5  OZV d   1     -13.473 -12.567  21.455  0.00  0.00     0.149 A 
ATOM     40  N3  OZV d   1     -13.881 -10.506  20.389  0.00  0.00    -0.222 NA
ATOM     41  C6  OZV d   1     -14.443 -12.214  22.401  0.00  0.00     0.155 A 
ATOM     42  N7  OZV d   1     -12.674 -13.644  21.266  0.00  0.00    -0.236 NA
ATOM     43  N1  OZV d   1     -15.069 -11.039  22.286  0.00  0.00    -0.222 NA
ATOM     44  C2  OZV d   1     -14.786 -10.217  21.299  0.00  0.00     0.091 A 
ATOM     45  H2  OZV d   1     -15.315  -9.273  21.233  0.00  0.00     0.146 H 
ATOM     46  C8  OZV d   1     -11.941 -13.443  20.213  0.00  0.00     0.071 A 
ATOM     47  H1  OZV d   1     -11.200 -14.140  19.824  0.00  0.00     0.144 H 
BRANCH  41  48
ATOM     48  N6  OZV d   1     -14.723 -13.086  23.425  0.00  0.00    -0.382 N 
ATOM     49  H3  OZV d   1     -15.434 -12.842  24.129  0.00  0.00     0.157 HD
ATOM     50  H4  OZV d   1     -14.222 -13.984  23.488  0.00  0.00     0.157 HD
ENDBRANCH  41  48
ENDBRANCH   1  37
TORSDOF 9
