REMARK  4 active torsions:
REMARK  status: ('A' for Active; 'I' for Inactive)
REMARK    1  A    between atoms: C10_1  and  C09_11 
REMARK    2  A    between atoms: C11_12  and  C10_1 
REMARK    3  A    between atoms: C03_6  and  C02_5 
REMARK    4  A    between atoms: C04_7  and  C03_6 
ROOT
ATOM      1  C17 OZM d   1      18.481 -11.715   3.576  0.00  0.00    -0.076 A 
ATOM      2  C04 OZM d   1      20.790  -9.359   1.421  0.00  0.00    -0.013 A 
ATOM      3  C05 OZM d   1      22.125  -9.214   1.976  0.00  0.00     0.027 A 
ATOM      4  C07 OZM d   1      21.080 -10.613   3.413  0.00  0.00     0.086 A 
ATOM      5  C08 OZM d   1      20.739 -11.486   4.484  0.00  0.00    -0.043 A 
ATOM      6  C09 OZM d   1      19.449 -12.039   4.586  0.00  0.00    -0.051 A 
ATOM      7  C18 OZM d   1      18.820 -10.837   2.494  0.00  0.00    -0.069 A 
ATOM      8  C19 OZM d   1      20.134 -10.282   2.416  0.00  0.00     0.006 A 
ATOM      9  O06 OZM d   1      22.213  -9.966   3.104  0.00  0.00    -0.321 OA
ATOM     10  H5  OZM d   1      17.485 -12.138   3.632  0.00  0.00     0.084 H 
ATOM     11  H8  OZM d   1      22.923  -8.603   1.557  0.00  0.00     0.124 H 
ATOM     12  H9  OZM d   1      21.484 -11.729   5.233  0.00  0.00     0.088 H 
ATOM     13  H13 OZM d   1      18.082 -10.595   1.738  0.00  0.00     0.085 H 
ENDROOT
BRANCH   6  14
ATOM     14  C10 OZM d   1      19.073 -12.998   5.751  0.00  0.00    -0.017 C 
ATOM     15  H1  OZM d   1      18.357 -12.481   6.407  0.00  0.00     0.047 H 
ATOM     16  H2  OZM d   1      19.987 -13.230   6.317  0.00  0.00     0.047 H 
BRANCH  14  17
ATOM     17  C11 OZM d   1      18.439 -14.324   5.292  0.00  0.00    -0.054 A 
ATOM     18  C12 OZM d   1      17.169 -14.724   5.761  0.00  0.00    -0.077 A 
ATOM     19  C13 OZM d   1      16.585 -15.947   5.330  0.00  0.00    -0.082 A 
ATOM     20  H10 OZM d   1      16.632 -14.091   6.458  0.00  0.00     0.084 H 
ATOM     21  C14 OZM d   1      17.273 -16.776   4.415  0.00  0.00    -0.083 A 
ATOM     22  H3  OZM d   1      15.612 -16.244   5.704  0.00  0.00     0.083 H 
ATOM     23  C15 OZM d   1      18.543 -16.379   3.934  0.00  0.00    -0.082 A 
ATOM     24  H11 OZM d   1      16.831 -17.709   4.084  0.00  0.00     0.083 H 
ATOM     25  C16 OZM d   1      19.115 -15.158   4.371  0.00  0.00    -0.077 A 
ATOM     26  H4  OZM d   1      19.078 -17.008   3.232  0.00  0.00     0.083 H 
ATOM     27  H12 OZM d   1      20.086 -14.859   3.993  0.00  0.00     0.084 H 
ENDBRANCH  14  17
ENDBRANCH   6  14
BRANCH   2  28
ATOM     28  C03 OZM d   1      20.293  -8.693   0.234  0.00  0.00     0.042 C 
ATOM     29  H6  OZM d   1      21.128  -8.142  -0.224  0.00  0.00     0.056 H 
ATOM     30  H7  OZM d   1      19.933  -9.462  -0.465  0.00  0.00     0.056 H 
BRANCH  28  31
ATOM     31  C02 OZM d   1      19.126  -7.684   0.490  0.00  0.00     0.177 C 
ATOM     32  O01 OZM d   1      19.381  -6.501   0.947  0.00  0.00    -0.648 OA
ATOM     33  O20 OZM d   1      17.901  -8.023   0.287  0.00  0.00    -0.648 OA
ENDBRANCH  28  31
ENDBRANCH   2  28
TORSDOF 4
