REMARK  11 active torsions:
REMARK  status: ('A' for Active; 'I' for Inactive)
REMARK    1  A    between atoms: C1_1  and  C16_17 
REMARK    2  A    between atoms: C1_1  and  C17_18 
REMARK    3  A    between atoms: C5_5  and  C18_19 
REMARK    4  A    between atoms: C6_6  and  C7_7 
REMARK    5  A    between atoms: C8_8  and  C9_9 
REMARK    6  A    between atoms: C9_9  and  C19_20 
REMARK    7  A    between atoms: C10_10  and  C11_11 
REMARK    8  A    between atoms: C12_12  and  C13_13 
REMARK    9  A    between atoms: C13_13  and  C20_21 
REMARK   10  A    between atoms: C14_14  and  C15_15 
REMARK   11  A    between atoms: C15_15  and  O1_16 
ROOT
ATOM      1  C7  RTL d   1      -7.580   0.807 -11.206  0.00  0.00    -0.097 C 
ATOM      2  C8  RTL d   1      -7.445   0.443  -9.952  0.00  0.00    -0.080 C 
ATOM      3  H9  RTL d   1      -8.539   1.178 -11.565  0.00  0.00     0.077 H 
ATOM      4  H10 RTL d   1      -6.469   0.061  -9.655  0.00  0.00     0.083 H 
ENDROOT
BRANCH   1   5
ATOM      5  C6  RTL d   1      -6.435   0.714 -12.127  0.00  0.00    -0.028 C 
ATOM      6  C1  RTL d   1      -5.081   1.349 -11.894  0.00  0.00    -0.041 C 
ATOM      7  C2  RTL d   1      -3.893   0.454 -12.245  0.00  0.00    -0.058 C 
ATOM      8  C3  RTL d   1      -4.206  -0.551 -13.368  0.00  0.00    -0.064 C 
ATOM      9  H1  RTL d   1      -3.599  -0.107 -11.345  0.00  0.00     0.034 H 
ATOM     10  H2  RTL d   1      -3.058   1.092 -12.569  0.00  0.00     0.034 H 
ATOM     11  C4  RTL d   1      -5.600  -1.147 -13.240  0.00  0.00    -0.061 C 
ATOM     12  H3  RTL d   1      -3.468  -1.366 -13.329  0.00  0.00     0.033 H 
ATOM     13  H4  RTL d   1      -4.130  -0.034 -14.336  0.00  0.00     0.033 H 
ATOM     14  C5  RTL d   1      -6.522   0.037 -13.239  0.00  0.00    -0.050 C 
ATOM     15  H5  RTL d   1      -5.695  -1.713 -12.302  0.00  0.00     0.033 H 
ATOM     16  H6  RTL d   1      -5.819  -1.808 -14.091  0.00  0.00     0.033 H 
ATOM     17  H7  RTL d   1      -7.366  -0.565 -12.871  0.00  0.00     0.040 H 
ATOM     18  H8  RTL d   1      -6.787   1.628 -12.628  0.00  0.00     0.047 H 
BRANCH   6  19
ATOM     19  C16 RTL d   1      -4.990   2.574 -12.772  0.00  0.00    -0.069 C 
ATOM     20  H18 RTL d   1      -4.014   3.059 -12.625  0.00  0.00     0.028 H 
ATOM     21  H19 RTL d   1      -5.793   3.277 -12.505  0.00  0.00     0.028 H 
ATOM     22  H20 RTL d   1      -5.097   2.278 -13.826  0.00  0.00     0.028 H 
ENDBRANCH   6  19
BRANCH   6  23
ATOM     23  C17 RTL d   1      -4.947   1.725 -10.436  0.00  0.00    -0.069 C 
ATOM     24  H21 RTL d   1      -5.016   0.819  -9.816  0.00  0.00     0.028 H 
ATOM     25  H22 RTL d   1      -5.754   2.420 -10.161  0.00  0.00     0.028 H 
ATOM     26  H23 RTL d   1      -3.973   2.209 -10.270  0.00  0.00     0.028 H 
ENDBRANCH   6  23
BRANCH  14  27
ATOM     27  C18 RTL d   1      -7.346   0.493 -14.398  0.00  0.00    -0.072 C 
ATOM     28  H24 RTL d   1      -7.263  -0.237 -15.216  0.00  0.00     0.028 H 
ATOM     29  H25 RTL d   1      -6.983   1.473 -14.743  0.00  0.00     0.028 H 
ATOM     30  H26 RTL d   1      -8.398   0.580 -14.088  0.00  0.00     0.028 H 
ENDBRANCH  14  27
ENDBRANCH   1   5
BRANCH   2  31
ATOM     31  C9  RTL d   1      -8.476   0.499  -8.911  0.00  0.00    -0.062 C 
ATOM     32  C10 RTL d   1      -8.326   1.406  -7.952  0.00  0.00    -0.077 C 
ATOM     33  H11 RTL d   1      -7.486   2.095  -8.031  0.00  0.00     0.084 H 
BRANCH  32  34
ATOM     34  C11 RTL d   1      -9.201   1.539  -6.813  0.00  0.00    -0.082 C 
ATOM     35  C12 RTL d   1      -8.726   0.926  -5.734  0.00  0.00    -0.077 C 
ATOM     36  H13 RTL d   1      -7.771   0.419  -5.865  0.00  0.00     0.084 H 
ATOM     37  H12 RTL d   1     -10.145   2.081  -6.835  0.00  0.00     0.083 H 
BRANCH  35  38
ATOM     38  C13 RTL d   1      -9.308   0.838  -4.394  0.00  0.00    -0.064 C 
ATOM     39  C14 RTL d   1      -8.853  -0.087  -3.546  0.00  0.00    -0.075 C 
ATOM     40  H14 RTL d   1      -8.064  -0.766  -3.865  0.00  0.00     0.081 H 
BRANCH  39  41
ATOM     41  C15 RTL d   1      -9.417  -0.204  -2.153  0.00  0.00     0.032 C 
ATOM     42  H15 RTL d   1     -10.468  -0.525  -2.210  0.00  0.00     0.080 H 
ATOM     43  H16 RTL d   1      -9.359   0.773  -1.652  0.00  0.00     0.080 H 
BRANCH  41  44
ATOM     44  O1  RTL d   1      -8.663  -1.170  -1.404  0.00  0.00    -0.397 OA
ATOM     45  H17 RTL d   1      -9.022  -1.240  -0.527  0.00  0.00     0.209 HD
ENDBRANCH  41  44
ENDBRANCH  39  41
BRANCH  38  46
ATOM     46  C20 RTL d   1     -10.370   1.781  -3.968  0.00  0.00    -0.051 C 
ATOM     47  H30 RTL d   1     -10.610   2.462  -4.798  0.00  0.00     0.033 H 
ATOM     48  H31 RTL d   1     -10.018   2.365  -3.105  0.00  0.00     0.033 H 
ATOM     49  H32 RTL d   1     -11.271   1.216  -3.686  0.00  0.00     0.033 H 
ENDBRANCH  38  46
ENDBRANCH  35  38
ENDBRANCH  32  34
BRANCH  31  50
ATOM     50  C19 RTL d   1      -9.614  -0.463  -8.918  0.00  0.00    -0.051 C 
ATOM     51  H27 RTL d   1      -9.537  -1.116  -9.800  0.00  0.00     0.033 H 
ATOM     52  H28 RTL d   1     -10.563   0.092  -8.955  0.00  0.00     0.033 H 
ATOM     53  H29 RTL d   1      -9.582  -1.075  -8.005  0.00  0.00     0.033 H 
ENDBRANCH  31  50
ENDBRANCH   2  31
TORSDOF 11
