REMARK WARNING: 32 MAX_TORS EXCEEDED!!!
REMARK  38 active torsions:
REMARK  status: ('A' for Active; 'I' for Inactive)
REMARK    1  A    between atoms: N_1  and  CA_2 
REMARK    2  A    between atoms: CA_2  and  C_3 
REMARK       I    between atoms: C_3  and  N_5 
REMARK    3  A    between atoms: N_5  and  CA_6 
REMARK    4  A    between atoms: CA_6  and  C_7 
REMARK    5  A    between atoms: CA_6  and  CB_9 
REMARK       I    between atoms: C_7  and  N_11 
REMARK    6  A    between atoms: CB_9  and  OG_10 
REMARK    7  A    between atoms: N_11  and  CA_12 
REMARK    8  A    between atoms: CA_12  and  C_13 
REMARK    9  A    between atoms: CA_12  and  CB_15 
REMARK       I    between atoms: C_13  and  N_20 
REMARK   10  A    between atoms: CB_15  and  CG_16 
REMARK   11  A    between atoms: CG_16  and  CD_17 
REMARK   12  A    between atoms: CD_17  and  CE_18 
REMARK   13  A    between atoms: CE_18  and  NZ_19 
REMARK   14  A    between atoms: N_20  and  CA_21 
REMARK   15  A    between atoms: CA_21  and  C_22 
REMARK   16  A    between atoms: CA_21  and  CB_24 
REMARK       I    between atoms: C_22  and  N_28 
REMARK   17  A    between atoms: CB_24  and  CG_25 
REMARK   18  A    between atoms: CG_25  and  SD_26 
REMARK   19  A    between atoms: SD_26  and  CE_27 
REMARK   20  A    between atoms: N_28  and  CA_29 
REMARK   21  A    between atoms: CA_29  and  C_30 
REMARK   22  A    between atoms: CA_29  and  CB_32 
REMARK       I    between atoms: C_30  and  N_37 
REMARK   23  A    between atoms: CB_32  and  CG_33 
REMARK   24  A    between atoms: CG_33  and  CD_34 
REMARK   25  A    between atoms: N_37  and  CA_38 
REMARK   26  A    between atoms: CA_38  and  C_39 
REMARK   27  A    between atoms: CA_38  and  CB_41 
REMARK       I    between atoms: C_39  and  N_46 
REMARK   28  A    between atoms: CB_41  and  CG_42 
REMARK   29  A    between atoms: CG_42  and  CD_43 
REMARK   30  A    between atoms: N_46  and  CA_47 
REMARK   31  A    between atoms: CA_47  and  C_48 
REMARK   32  A    between atoms: CA_47  and  CB_50 
REMARK       I    between atoms: C_48  and  N_53 
REMARK   33  A    between atoms: CB_50  and  CG1_51 
REMARK   34  A    between atoms: CB_50  and  CG2_52 
REMARK   35  A    between atoms: N_53  and  CA_54 
REMARK   36  A    between atoms: CA_54  and  C_55 
REMARK   37  A    between atoms: CA_54  and  CB_57 
REMARK   38  A    between atoms: CB_57  and  CG_58 
ROOT
ATOM      1  C   MET d   1     -60.858  -9.021   0.512  0.00  0.00     0.241 C 
ATOM      2  O   MET d   1     -61.883  -8.304   0.573  0.00  0.00    -0.271 OA
ATOM      3  N   GLU d   1     -59.828  -8.905   1.338  0.00  0.00    -0.346 N 
ATOM      4  H33 GLU d   1     -59.071  -9.555   1.272  0.00  0.00     0.163 HD
ENDROOT
BRANCH   1   5
ATOM      5  CA  MET d   1     -60.783 -10.189  -0.446  0.00  0.00     0.090 C 
ATOM      6  H25 MET d   1     -61.365  -9.952  -1.349  0.00  0.00     0.087 H 
BRANCH   5   7
ATOM      7  N   MET d   1     -59.436 -10.593  -0.863  0.00  0.00    -0.346 N 
ATOM      8  C   LYS d   1     -58.545  -9.761  -1.402  0.00  0.00     0.241 C 
ATOM      9  O   LYS d   1     -58.780  -8.566  -1.686  0.00  0.00    -0.271 OA
ATOM     10  H24 MET d   1     -59.171 -11.549  -0.735  0.00  0.00     0.163 HD
BRANCH   8  11
ATOM     11  CA  LYS d   1     -57.197 -10.364  -1.718  0.00  0.00     0.089 C 
ATOM     12  H12 LYS d   1     -57.164 -11.395  -1.337  0.00  0.00     0.087 H 
BRANCH  11  13
ATOM     13  N   LYS d   1     -57.053 -10.386  -3.186  0.00  0.00    -0.346 N 
ATOM     14  C   SER d   1     -57.534 -11.403  -3.898  0.00  0.00     0.243 C 
ATOM     15  O   SER d   1     -58.006 -12.437  -3.401  0.00  0.00    -0.271 OA
ATOM     16  H11 LYS d   1     -56.590  -9.631  -3.650  0.00  0.00     0.163 HD
BRANCH  14  17
ATOM     17  CA  SER d   1     -57.454 -11.281  -5.384  0.00  0.00     0.109 C 
ATOM     18  H7  SER d   1     -57.234 -10.243  -5.672  0.00  0.00     0.090 H 
BRANCH  17  19
ATOM     19  N   SER d   1     -56.376 -12.154  -5.830  0.00  0.00    -0.344 N 
ATOM     20  C   GLY d   1     -55.140 -11.686  -6.021  0.00  0.00     0.243 C 
ATOM     21  O   GLY d   1     -54.756 -10.586  -5.581  0.00  0.00    -0.272 OA
ATOM     22  H6  SER d   1     -56.565 -13.122  -5.996  0.00  0.00     0.163 HD
BRANCH  20  23
ATOM     23  CA  GLY d   1     -54.191 -12.584  -6.818  0.00  0.00     0.152 C 
ATOM     24  H4  GLY d   1     -54.663 -13.572  -6.920  0.00  0.00     0.090 H 
ATOM     25  H5  GLY d   1     -54.056 -12.137  -7.814  0.00  0.00     0.090 H 
BRANCH  23  26
ATOM     26  N   GLY d   1     -52.838 -12.779  -6.212  0.00  0.00    -0.071 N 
ATOM     27  H1  GLY d   1     -52.288 -13.381  -6.805  0.00  0.00     0.274 HD
ATOM     28  H2  GLY d   1     -52.935 -13.201  -5.302  0.00  0.00     0.274 HD
ATOM     29  H3  GLY d   1     -52.379 -11.886  -6.121  0.00  0.00     0.274 HD
ENDBRANCH  23  26
ENDBRANCH  20  23
ENDBRANCH  17  19
BRANCH  17  30
ATOM     30  CB  SER d   1     -58.802 -11.699  -5.973  0.00  0.00     0.044 C 
ATOM     31  H8  SER d   1     -59.601 -11.128  -5.478  0.00  0.00     0.077 H 
ATOM     32  H9  SER d   1     -58.953 -12.774  -5.793  0.00  0.00     0.077 H 
BRANCH  30  33
ATOM     33  OG  SER d   1     -58.855 -11.457  -7.348  0.00  0.00    -0.398 OA
ATOM     34  H10 SER d   1     -58.170 -11.951  -7.782  0.00  0.00     0.209 HD
ENDBRANCH  30  33
ENDBRANCH  17  30
ENDBRANCH  14  17
ENDBRANCH  11  13
BRANCH  11  35
ATOM     35  CB  LYS d   1     -56.071  -9.572  -1.061  0.00  0.00    -0.038 C 
ATOM     36  H13 LYS d   1     -56.120  -9.719   0.028  0.00  0.00     0.036 H 
ATOM     37  H14 LYS d   1     -56.202  -8.505  -1.294  0.00  0.00     0.036 H 
BRANCH  35  38
ATOM     38  CG  LYS d   1     -54.711 -10.020  -1.557  0.00  0.00    -0.061 C 
ATOM     39  H15 LYS d   1     -54.477  -9.482  -2.488  0.00  0.00     0.033 H 
ATOM     40  H16 LYS d   1     -54.743 -11.101  -1.756  0.00  0.00     0.033 H 
BRANCH  38  41
ATOM     41  CD  LYS d   1     -53.624  -9.742  -0.545  0.00  0.00    -0.043 C 
ATOM     42  H17 LYS d   1     -53.835 -10.297   0.381  0.00  0.00     0.035 H 
ATOM     43  H18 LYS d   1     -53.594  -8.664  -0.327  0.00  0.00     0.035 H 
BRANCH  41  44
ATOM     44  CE  LYS d   1     -52.279 -10.183  -1.104  0.00  0.00     0.080 C 
ATOM     45  H19 LYS d   1     -52.051  -9.578  -1.994  0.00  0.00     0.075 H 
ATOM     46  H20 LYS d   1     -52.346 -11.243  -1.389  0.00  0.00     0.075 H 
BRANCH  44  47
ATOM     47  NZ  LYS d   1     -51.172 -10.022  -0.121  0.00  0.00    -0.079 N 
ATOM     48  H21 LYS d   1     -50.306 -10.326  -0.537  0.00  0.00     0.274 HD
ATOM     49  H22 LYS d   1     -51.365 -10.578   0.697  0.00  0.00     0.274 HD
ATOM     50  H23 LYS d   1     -51.095  -9.052   0.143  0.00  0.00     0.274 HD
ENDBRANCH  44  47
ENDBRANCH  41  44
ENDBRANCH  38  41
ENDBRANCH  35  38
ENDBRANCH  11  35
ENDBRANCH   8  11
ENDBRANCH   5   7
BRANCH   5  51
ATOM     51  CB  MET d   1     -61.428 -11.340   0.322  0.00  0.00    -0.030 C 
ATOM     52  H26 MET d   1     -62.187 -10.924   1.001  0.00  0.00     0.037 H 
ATOM     53  H27 MET d   1     -60.649 -11.847   0.910  0.00  0.00     0.037 H 
BRANCH  51  54
ATOM     54  CG  MET d   1     -62.077 -12.336  -0.550  0.00  0.00    -0.021 C 
ATOM     55  H28 MET d   1     -61.327 -12.928  -1.095  0.00  0.00     0.049 H 
ATOM     56  H29 MET d   1     -62.751 -11.847  -1.269  0.00  0.00     0.049 H 
BRANCH  54  57
ATOM     57  SD  MET d   1     -62.989 -13.357   0.576  0.00  0.00    -0.173 SA
BRANCH  57  58
ATOM     58  CE  MET d   1     -64.505 -12.436   0.770  0.00  0.00    -0.035 C 
ATOM     59  H30 MET d   1     -65.174 -12.972   1.459  0.00  0.00     0.041 H 
ATOM     60  H31 MET d   1     -64.996 -12.329  -0.208  0.00  0.00     0.041 H 
ATOM     61  H32 MET d   1     -64.279 -11.440   1.178  0.00  0.00     0.041 H 
ENDBRANCH  57  58
ENDBRANCH  54  57
ENDBRANCH  51  54
ENDBRANCH   5  51
ENDBRANCH   1   5
BRANCH   3  62
ATOM     62  CA  GLU d   1     -59.776  -7.853   2.337  0.00  0.00     0.090 C 
ATOM     63  H34 GLU d   1     -60.800  -7.705   2.712  0.00  0.00     0.087 H 
BRANCH  62  64
ATOM     64  C   GLU d   1     -59.306  -6.499   1.723  0.00  0.00     0.241 C 
ATOM     65  O   GLU d   1     -59.104  -5.540   2.474  0.00  0.00    -0.271 OA
ATOM     66  N   GLU d   1     -59.086  -6.464   0.405  0.00  0.00    -0.346 N 
ATOM     67  H39 GLU d   1     -59.182  -7.317  -0.108  0.00  0.00     0.163 HD
BRANCH  66  68
ATOM     68  CA  GLU d   1     -58.717  -5.270  -0.329  0.00  0.00     0.090 C 
ATOM     69  H40 GLU d   1     -58.544  -4.451   0.384  0.00  0.00     0.087 H 
BRANCH  68  70
ATOM     70  C   GLU d   1     -59.838  -4.885  -1.274  0.00  0.00     0.241 C 
ATOM     71  O   GLU d   1     -60.418  -5.719  -1.988  0.00  0.00    -0.271 OA
ATOM     72  N   VAL d   1     -60.101  -3.589  -1.296  0.00  0.00    -0.346 N 
ATOM     73  H45 VAL d   1     -59.624  -2.991  -0.652  0.00  0.00     0.163 HD
BRANCH  72  74
ATOM     74  CA  VAL d   1     -61.046  -3.005  -2.210  0.00  0.00     0.092 C 
ATOM     75  H46 VAL d   1     -61.727  -3.795  -2.558  0.00  0.00     0.088 H 
BRANCH  74  76
ATOM     76  C   VAL d   1     -60.261  -2.478  -3.437  0.00  0.00     0.241 C 
ATOM     77  O   VAL d   1     -59.025  -2.415  -3.401  0.00  0.00    -0.271 OA
ATOM     78  N   ASP d   1     -60.985  -2.149  -4.511  0.00  0.00    -0.344 N 
ATOM     79  H54 ASP d   1     -61.981  -2.128  -4.426  0.00  0.00     0.163 HD
BRANCH  78  80
ATOM     80  CA  ASP d   1     -60.386  -1.817  -5.809  0.00  0.00     0.105 C 
ATOM     81  H55 ASP d   1     -59.294  -1.776  -5.684  0.00  0.00     0.090 H 
BRANCH  80  82
ATOM     82  C   ASP d   1     -60.851  -0.479  -6.331  0.00  0.00     0.197 C 
ATOM     83  O   ASP d   1     -60.403  -0.111  -7.411  0.00  0.00    -0.646 OA
ATOM     84  OXT ASP d   1     -61.671   0.224  -5.725  0.00  0.00    -0.646 OA
ENDBRANCH  80  82
BRANCH  80  85
ATOM     85  CB  ASP d   1     -60.722  -2.906  -6.816  0.00  0.00     0.044 C 
ATOM     86  H56 ASP d   1     -60.333  -2.614  -7.803  0.00  0.00     0.053 H 
ATOM     87  H57 ASP d   1     -61.815  -3.018  -6.872  0.00  0.00     0.053 H 
BRANCH  85  88
ATOM     88  CG  ASP d   1     -60.104  -4.246  -6.413  0.00  0.00     0.175 C 
ATOM     89  OD1 ASP d   1     -58.953  -4.479  -6.788  0.00  0.00    -0.648 OA
ATOM     90  OD2 ASP d   1     -60.724  -5.019  -5.650  0.00  0.00    -0.648 OA
ENDBRANCH  85  88
ENDBRANCH  80  85
ENDBRANCH  78  80
ENDBRANCH  74  76
BRANCH  74  91
ATOM     91  CB  VAL d   1     -61.913  -1.924  -1.508  0.00  0.00    -0.033 C 
ATOM     92  H47 VAL d   1     -62.448  -1.367  -2.291  0.00  0.00     0.042 H 
BRANCH  91  93
ATOM     93  CG1 VAL d   1     -62.963  -2.573  -0.606  0.00  0.00    -0.071 C 
ATOM     94  H48 VAL d   1     -63.564  -1.790  -0.120  0.00  0.00     0.028 H 
ATOM     95  H49 VAL d   1     -62.462  -3.180   0.162  0.00  0.00     0.028 H 
ATOM     96  H50 VAL d   1     -63.619  -3.216  -1.211  0.00  0.00     0.028 H 
ENDBRANCH  91  93
BRANCH  91  97
ATOM     97  CG2 VAL d   1     -61.051  -0.924  -0.747  0.00  0.00    -0.071 C 
ATOM     98  H51 VAL d   1     -60.312  -0.482  -1.431  0.00  0.00     0.028 H 
ATOM     99  H52 VAL d   1     -60.530  -1.439   0.073  0.00  0.00     0.028 H 
ATOM    100  H53 VAL d   1     -61.689  -0.129  -0.334  0.00  0.00     0.028 H 
ENDBRANCH  91  97
ENDBRANCH  74  91
ENDBRANCH  72  74
ENDBRANCH  68  70
BRANCH  68 101
ATOM    101  CB  GLU d   1     -57.442  -5.505  -1.142  0.00  0.00    -0.029 C 
ATOM    102  H41 GLU d   1     -57.219  -4.596  -1.719  0.00  0.00     0.037 H 
ATOM    103  H42 GLU d   1     -57.613  -6.345  -1.832  0.00  0.00     0.037 H 
BRANCH 101 104
ATOM    104  CG  GLU d   1     -56.249  -5.830  -0.269  0.00  0.00     0.018 C 
ATOM    105  H43 GLU d   1     -56.438  -6.790   0.235  0.00  0.00     0.049 H 
ATOM    106  H44 GLU d   1     -56.143  -5.035   0.484  0.00  0.00     0.049 H 
BRANCH 104 107
ATOM    107  CD  GLU d   1     -54.940  -5.941  -1.038  0.00  0.00     0.172 C 
ATOM    108  OE1 GLU d   1     -54.914  -6.443  -2.183  0.00  0.00    -0.648 OA
ATOM    109  OE2 GLU d   1     -53.925  -5.533  -0.463  0.00  0.00    -0.648 OA
ENDBRANCH 104 107
ENDBRANCH 101 104
ENDBRANCH  68 101
ENDBRANCH  66  68
ENDBRANCH  62  64
BRANCH  62 110
ATOM    110  CB  GLU d   1     -58.894  -8.266   3.547  0.00  0.00    -0.029 C 
ATOM    111  H35 GLU d   1     -59.147  -9.306   3.800  0.00  0.00     0.037 H 
ATOM    112  H36 GLU d   1     -59.159  -7.609   4.388  0.00  0.00     0.037 H 
BRANCH 110 113
ATOM    113  CG  GLU d   1     -57.366  -8.193   3.368  0.00  0.00     0.018 C 
ATOM    114  H37 GLU d   1     -56.910  -8.047   4.358  0.00  0.00     0.049 H 
ATOM    115  H38 GLU d   1     -57.135  -7.330   2.727  0.00  0.00     0.049 H 
BRANCH 113 116
ATOM    116  CD  GLU d   1     -56.747  -9.436   2.736  0.00  0.00     0.172 C 
ATOM    117  OE1 GLU d   1     -55.515  -9.568   2.836  0.00  0.00    -0.648 OA
ATOM    118  OE2 GLU d   1     -57.482 -10.283   2.154  0.00  0.00    -0.648 OA
ENDBRANCH 113 116
ENDBRANCH 110 113
ENDBRANCH  62 110
ENDBRANCH   3  62
TORSDOF 38
