REMARK  12 active torsions:
REMARK  status: ('A' for Active; 'I' for Inactive)
REMARK    1  A    between atoms: N_3  and  C_4 
REMARK    2  A    between atoms: C11_5  and  C12_6 
REMARK    3  A    between atoms: C12_6  and  C13_7 
REMARK    4  A    between atoms: N2_8  and  C4_9 
REMARK    5  A    between atoms: C4_9  and  C5_10 
REMARK    6  A    between atoms: C14_19  and  N4_22 
REMARK    7  A    between atoms: N4_22  and  C15_23 
REMARK    8  A    between atoms: C20_26  and  C21_32 
REMARK    9  A    between atoms: C16_28  and  O_29 
REMARK   10  A    between atoms: O_29  and  C17_30 
REMARK   11  A    between atoms: C17_30  and  C18_31 
REMARK   12  A    between atoms: N5_35  and  C24_36 
ROOT
ATOM      1  N4  HG5 d   1      17.468   8.418  28.503  0.00  0.00    -0.185 N 
ATOM      2  H18 HG5 d   1      18.097   7.918  27.859  0.00  0.00     0.184 HD
ENDROOT
BRANCH   1   3
ATOM      3  C14 HG5 d   1      18.126   9.108  29.483  0.00  0.00     0.728 A 
ATOM      4  N3  HG5 d   1      19.442   9.312  29.244  0.00  0.00    -0.043 NA
ATOM      5  C3  HG5 d   1      20.074  10.137  30.100  0.00  0.00     0.174 A 
ATOM      6  N2  HG5 d   1      21.465  10.254  30.007  0.00  0.00    -0.346 N 
ATOM      7  C1  HG5 d   1      19.401  10.792  31.160  0.00  0.00     0.102 A 
ATOM      8  C11 HG5 d   1      22.242  10.782  31.137  0.00  0.00     0.091 C 
ATOM      9  C29 HG5 d   1      21.484  11.758  32.021  0.00  0.00     0.247 C 
ATOM     10  H4  HG5 d   1      23.088  11.337  30.706  0.00  0.00     0.087 H 
ATOM     11  O1  HG5 d   1      22.080  12.473  32.817  0.00  0.00    -0.271 OA
ATOM     12  N   HG5 d   1      20.105  11.726  31.956  0.00  0.00    -0.316 N 
ATOM     13  C2  HG5 d   1      18.061  10.437  31.333  0.00  0.00     0.051 A 
ATOM     14  N1  HG5 d   1      17.405   9.606  30.508  0.00  0.00    -0.073 NA
ATOM     15  H17 HG5 d   1      17.523  10.854  32.177  0.00  0.00     0.119 H 
BRANCH   6  16
ATOM     16  C4  HG5 d   1      22.184  10.054  28.744  0.00  0.00     0.021 C 
ATOM     17  H10 HG5 d   1      22.902  10.880  28.628  0.00  0.00     0.071 H 
ATOM     18  H11 HG5 d   1      21.449  10.090  27.926  0.00  0.00     0.071 H 
BRANCH  16  19
ATOM     19  C5  HG5 d   1      22.946   8.756  28.628  0.00  0.00    -0.040 A 
ATOM     20  C10 HG5 d   1      24.333   8.734  28.707  0.00  0.00    -0.075 A 
ATOM     21  C9  HG5 d   1      25.034   7.560  28.495  0.00  0.00    -0.082 A 
ATOM     22  H12 HG5 d   1      24.872   9.646  28.937  0.00  0.00     0.084 H 
ATOM     23  C8  HG5 d   1      24.362   6.396  28.201  0.00  0.00    -0.083 A 
ATOM     24  H13 HG5 d   1      26.116   7.557  28.561  0.00  0.00     0.083 H 
ATOM     25  C7  HG5 d   1      22.984   6.400  28.140  0.00  0.00    -0.082 A 
ATOM     26  H14 HG5 d   1      24.913   5.480  28.018  0.00  0.00     0.083 H 
ATOM     27  C6  HG5 d   1      22.280   7.569  28.357  0.00  0.00    -0.075 A 
ATOM     28  H15 HG5 d   1      22.451   5.482  27.921  0.00  0.00     0.083 H 
ATOM     29  H16 HG5 d   1      21.197   7.559  28.315  0.00  0.00     0.084 H 
ENDBRANCH  16  19
ENDBRANCH   6  16
BRANCH   8  30
ATOM     30  C12 HG5 d   1      22.821   9.642  31.977  0.00  0.00    -0.041 C 
ATOM     31  H5  HG5 d   1      23.424  10.073  32.789  0.00  0.00     0.036 H 
ATOM     32  H6  HG5 d   1      23.462   9.021  31.334  0.00  0.00     0.036 H 
BRANCH  30  33
ATOM     33  C13 HG5 d   1      21.743   8.763  32.585  0.00  0.00    -0.074 C 
ATOM     34  H7  HG5 d   1      22.212   7.963  33.176  0.00  0.00     0.027 H 
ATOM     35  H8  HG5 d   1      21.137   8.318  31.782  0.00  0.00     0.027 H 
ATOM     36  H9  HG5 d   1      21.099   9.371  33.237  0.00  0.00     0.027 H 
ENDBRANCH  30  33
ENDBRANCH   8  30
BRANCH  12  37
ATOM     37  C   HG5 d   1      19.373  12.544  32.919  0.00  0.00    -0.011 C 
ATOM     38  H1  HG5 d   1      20.075  13.208  33.445  0.00  0.00     0.057 H 
ATOM     39  H2  HG5 d   1      18.870  11.891  33.648  0.00  0.00     0.057 H 
ATOM     40  H3  HG5 d   1      18.622  13.150  32.390  0.00  0.00     0.057 H 
ENDBRANCH  12  37
ENDBRANCH   1   3
BRANCH   1  41
ATOM     41  C15 HG5 d   1      16.112   8.254  28.199  0.00  0.00     0.082 A 
ATOM     42  C28 HG5 d   1      15.098   8.932  28.871  0.00  0.00    -0.053 A 
ATOM     43  C27 HG5 d   1      13.792   8.842  28.423  0.00  0.00    -0.074 A 
ATOM     44  H19 HG5 d   1      15.332   9.530  29.744  0.00  0.00     0.087 H 
ATOM     45  C20 HG5 d   1      13.461   8.079  27.311  0.00  0.00    -0.051 A 
ATOM     46  H20 HG5 d   1      13.011   9.378  28.951  0.00  0.00     0.084 H 
ATOM     47  C19 HG5 d   1      14.462   7.345  26.675  0.00  0.00    -0.042 A 
ATOM     48  C16 HG5 d   1      15.779   7.441  27.112  0.00  0.00     0.096 A 
ATOM     49  H21 HG5 d   1      14.214   6.700  25.840  0.00  0.00     0.088 H 
BRANCH  45  50
ATOM     50  C21 HG5 d   1      12.071   8.174  26.709  0.00  0.00    -0.025 C 
ATOM     51  C26 HG5 d   1      11.745   9.589  26.218  0.00  0.00    -0.035 C 
ATOM     52  C25 HG5 d   1      10.335   9.654  25.637  0.00  0.00     0.084 C 
ATOM     53  H28 HG5 d   1      12.468   9.876  25.440  0.00  0.00     0.036 H 
ATOM     54  H29 HG5 d   1      11.819  10.289  27.063  0.00  0.00     0.036 H 
ATOM     55  N5  HG5 d   1       9.339   9.244  26.625  0.00  0.00    -0.075 N 
ATOM     56  H30 HG5 d   1      10.274   8.985  24.766  0.00  0.00     0.076 H 
ATOM     57  H31 HG5 d   1      10.124  10.686  25.321  0.00  0.00     0.076 H 
ATOM     58  C23 HG5 d   1       9.584   7.857  27.018  0.00  0.00     0.084 C 
ATOM     59  H32 HG5 d   1       9.430   9.831  27.439  0.00  0.00     0.279 HD
ATOM     60  C22 HG5 d   1      10.965   7.702  27.662  0.00  0.00    -0.035 C 
ATOM     61  H36 HG5 d   1       9.530   7.216  26.126  0.00  0.00     0.076 H 
ATOM     62  H37 HG5 d   1       8.814   7.547  27.740  0.00  0.00     0.076 H 
ATOM     63  H38 HG5 d   1      11.002   8.303  28.582  0.00  0.00     0.036 H 
ATOM     64  H39 HG5 d   1      11.130   6.643  27.909  0.00  0.00     0.036 H 
ATOM     65  H27 HG5 d   1      12.057   7.508  25.834  0.00  0.00     0.047 H 
BRANCH  55  66
ATOM     66  C24 HG5 d   1       7.983   9.400  26.089  0.00  0.00     0.066 C 
ATOM     67  H33 HG5 d   1       7.251   9.086  26.848  0.00  0.00     0.068 H 
ATOM     68  H34 HG5 d   1       7.870   8.776  25.190  0.00  0.00     0.068 H 
ATOM     69  H35 HG5 d   1       7.811  10.454  25.827  0.00  0.00     0.068 H 
ENDBRANCH  55  66
ENDBRANCH  45  50
BRANCH  48  70
ATOM     70  O   HG5 d   1      16.850   6.802  26.536  0.00  0.00    -0.349 OA
BRANCH  70  71
ATOM     71  C17 HG5 d   1      16.610   5.648  25.711  0.00  0.00     0.023 C 
ATOM     72  H22 HG5 d   1      15.977   5.924  24.855  0.00  0.00     0.074 H 
ATOM     73  H23 HG5 d   1      16.110   4.864  26.299  0.00  0.00     0.074 H 
BRANCH  71  74
ATOM     74  C18 HG5 d   1      17.960   5.146  25.218  0.00  0.00    -0.056 C 
ATOM     75  H24 HG5 d   1      17.812   4.261  24.582  0.00  0.00     0.030 H 
ATOM     76  H25 HG5 d   1      18.588   4.877  26.080  0.00  0.00     0.030 H 
ATOM     77  H26 HG5 d   1      18.455   5.937  24.636  0.00  0.00     0.030 H 
ENDBRANCH  71  74
ENDBRANCH  70  71
ENDBRANCH  48  70
ENDBRANCH   1  41
TORSDOF 12
