REMARK  13 active torsions:
REMARK  status: ('A' for Active; 'I' for Inactive)
REMARK    1  A    between atoms: N_3  and  C_4 
REMARK    2  A    between atoms: C10_5  and  C11_6 
REMARK    3  A    between atoms: C11_6  and  C12_7 
REMARK    4  A    between atoms: N2_8  and  C4_9 
REMARK    5  A    between atoms: C4_9  and  C5_10 
REMARK    6  A    between atoms: C7_13  and  C8_14 
REMARK    7  A    between atoms: C13_19  and  N4_22 
REMARK    8  A    between atoms: N4_22  and  C14_23 
REMARK    9  A    between atoms: C19_26  and  C20_32 
REMARK   10  A    between atoms: C15_28  and  O_29 
REMARK   11  A    between atoms: O_29  and  C16_30 
REMARK   12  A    between atoms: C16_30  and  C17_31 
REMARK   13  A    between atoms: N5_35  and  C23_36 
ROOT
ATOM      1  N4  HG8 d   1      22.432 -17.741  20.331  0.00  0.00    -0.185 N 
ATOM      2  H18 HG8 d   1      21.823 -18.280  20.963  0.00  0.00     0.184 HD
ENDROOT
BRANCH   1   3
ATOM      3  C13 HG8 d   1      21.749 -16.997  19.404  0.00  0.00     0.728 A 
ATOM      4  N3  HG8 d   1      20.450 -16.892  19.622  0.00  0.00    -0.043 NA
ATOM      5  C3  HG8 d   1      19.778 -16.082  18.799  0.00  0.00     0.174 A 
ATOM      6  N2  HG8 d   1      18.455 -16.023  18.958  0.00  0.00    -0.345 N 
ATOM      7  C1  HG8 d   1      20.385 -15.328  17.779  0.00  0.00     0.102 A 
ATOM      8  C10 HG8 d   1      17.575 -15.310  18.033  0.00  0.00     0.091 C 
ATOM      9  C28 HG8 d   1      18.267 -14.306  17.132  0.00  0.00     0.247 C 
ATOM     10  H4  HG8 d   1      16.864 -14.742  18.651  0.00  0.00     0.087 H 
ATOM     11  O1  HG8 d   1      17.613 -13.540  16.445  0.00  0.00    -0.271 OA
ATOM     12  N   HG8 d   1      19.637 -14.377  17.045  0.00  0.00    -0.316 N 
ATOM     13  C2  HG8 d   1      21.733 -15.591  17.619  0.00  0.00     0.051 A 
ATOM     14  N1  HG8 d   1      22.437 -16.414  18.415  0.00  0.00    -0.073 NA
ATOM     15  H17 HG8 d   1      22.253 -15.104  16.802  0.00  0.00     0.119 H 
BRANCH   6  16
ATOM     16  C4  HG8 d   1      17.857 -16.625  20.140  0.00  0.00     0.027 C 
ATOM     17  H10 HG8 d   1      18.413 -17.542  20.384  0.00  0.00     0.072 H 
ATOM     18  H11 HG8 d   1      16.812 -16.880  19.911  0.00  0.00     0.072 H 
BRANCH  16  19
ATOM     19  C5  HG8 d   1      17.876 -15.724  21.336  0.00  0.00     0.001 A 
ATOM     20  S   HG8 d   1      16.457 -15.392  22.185  0.00  0.00    -0.104 SA
ATOM     21  C9  HG8 d   1      17.254 -14.348  23.286  0.00  0.00    -0.039 A 
ATOM     22  C7  HG8 d   1      18.532 -14.270  23.048  0.00  0.00    -0.054 A 
ATOM     23  H12 HG8 d   1      16.751 -13.813  24.090  0.00  0.00     0.095 H 
ATOM     24  C6  HG8 d   1      18.933 -15.073  21.877  0.00  0.00    -0.062 A 
ATOM     25  H16 HG8 d   1      19.951 -15.134  21.496  0.00  0.00     0.086 H 
BRANCH  22  26
ATOM     26  C8  HG8 d   1      19.473 -13.513  23.924  0.00  0.00    -0.051 C 
ATOM     27  H13 HG8 d   1      20.493 -13.592  23.521  0.00  0.00     0.033 H 
ATOM     28  H14 HG8 d   1      19.446 -13.933  24.940  0.00  0.00     0.033 H 
ATOM     29  H15 HG8 d   1      19.173 -12.455  23.957  0.00  0.00     0.033 H 
ENDBRANCH  22  26
ENDBRANCH  16  19
ENDBRANCH   6  16
BRANCH   8  30
ATOM     30  C11 HG8 d   1      16.765 -16.301  17.189  0.00  0.00    -0.041 C 
ATOM     31  H5  HG8 d   1      15.985 -15.747  16.646  0.00  0.00     0.036 H 
ATOM     32  H6  HG8 d   1      16.294 -17.034  17.861  0.00  0.00     0.036 H 
BRANCH  30  33
ATOM     33  C12 HG8 d   1      17.617 -17.041  16.188  0.00  0.00    -0.074 C 
ATOM     34  H7  HG8 d   1      16.987 -17.735  15.613  0.00  0.00     0.027 H 
ATOM     35  H8  HG8 d   1      18.397 -17.607  16.718  0.00  0.00     0.027 H 
ATOM     36  H9  HG8 d   1      18.088 -16.320  15.504  0.00  0.00     0.027 H 
ENDBRANCH  30  33
ENDBRANCH   8  30
BRANCH  12  37
ATOM     37  C   HG8 d   1      20.325 -13.506  16.091  0.00  0.00    -0.011 C 
ATOM     38  H1  HG8 d   1      19.595 -12.835  15.615  0.00  0.00     0.057 H 
ATOM     39  H2  HG8 d   1      20.815 -14.120  15.321  0.00  0.00     0.057 H 
ATOM     40  H3  HG8 d   1      21.082 -12.908  16.620  0.00  0.00     0.057 H 
ENDBRANCH  12  37
ENDBRANCH   1   3
BRANCH   1  41
ATOM     41  C14 HG8 d   1      23.791 -17.907  20.581  0.00  0.00     0.082 A 
ATOM     42  C27 HG8 d   1      24.753 -17.046  20.071  0.00  0.00    -0.053 A 
ATOM     43  C26 HG8 d   1      26.088 -17.274  20.321  0.00  0.00    -0.074 A 
ATOM     44  H19 HG8 d   1      24.453 -16.192  19.474  0.00  0.00     0.087 H 
ATOM     45  C19 HG8 d   1      26.503 -18.359  21.081  0.00  0.00    -0.051 A 
ATOM     46  H20 HG8 d   1      26.829 -16.593  19.917  0.00  0.00     0.084 H 
ATOM     47  C18 HG8 d   1      25.551 -19.249  21.564  0.00  0.00    -0.042 A 
ATOM     48  C15 HG8 d   1      24.205 -19.025  21.320  0.00  0.00     0.096 A 
ATOM     49  H21 HG8 d   1      25.861 -20.119  22.132  0.00  0.00     0.088 H 
BRANCH  45  50
ATOM     50  C20 HG8 d   1      27.967 -18.530  21.421  0.00  0.00    -0.025 C 
ATOM     51  C25 HG8 d   1      28.620 -17.209  21.848  0.00  0.00    -0.035 C 
ATOM     52  C24 HG8 d   1      30.124 -17.368  22.064  0.00  0.00     0.084 C 
ATOM     53  H28 HG8 d   1      28.159 -16.870  22.787  0.00  0.00     0.036 H 
ATOM     54  H29 HG8 d   1      28.450 -16.457  21.064  0.00  0.00     0.036 H 
ATOM     55  N5  HG8 d   1      30.770 -17.907  20.873  0.00  0.00    -0.075 N 
ATOM     56  H30 HG8 d   1      30.296 -18.053  22.907  0.00  0.00     0.076 H 
ATOM     57  H31 HG8 d   1      30.560 -16.385  22.296  0.00  0.00     0.076 H 
ATOM     58  C22 HG8 d   1      30.226 -19.227  20.596  0.00  0.00     0.084 C 
ATOM     59  H32 HG8 d   1      30.566 -17.302  20.093  0.00  0.00     0.279 HD
ATOM     60  C21 HG8 d   1      28.748 -19.146  20.265  0.00  0.00    -0.035 C 
ATOM     61  H36 HG8 d   1      30.362 -19.866  21.481  0.00  0.00     0.076 H 
ATOM     62  H37 HG8 d   1      30.763 -19.666  19.742  0.00  0.00     0.076 H 
ATOM     63  H38 HG8 d   1      28.613 -18.525  19.367  0.00  0.00     0.036 H 
ATOM     64  H39 HG8 d   1      28.366 -20.159  20.071  0.00  0.00     0.036 H 
ATOM     65  H27 HG8 d   1      28.027 -19.223  22.273  0.00  0.00     0.047 H 
BRANCH  55  66
ATOM     66  C23 HG8 d   1      32.240 -17.966  21.046  0.00  0.00     0.066 C 
ATOM     67  H33 HG8 d   1      32.700 -18.375  20.135  0.00  0.00     0.068 H 
ATOM     68  H34 HG8 d   1      32.483 -18.613  21.902  0.00  0.00     0.068 H 
ATOM     69  H35 HG8 d   1      32.629 -16.953  21.230  0.00  0.00     0.068 H 
ENDBRANCH  55  66
ENDBRANCH  45  50
BRANCH  48  70
ATOM     70  O   HG8 d   1      23.190 -19.851  21.726  0.00  0.00    -0.349 OA
BRANCH  70  71
ATOM     71  C16 HG8 d   1      23.477 -20.859  22.701  0.00  0.00     0.023 C 
ATOM     72  H22 HG8 d   1      23.810 -20.389  23.638  0.00  0.00     0.074 H 
ATOM     73  H23 HG8 d   1      24.266 -21.528  22.326  0.00  0.00     0.074 H 
BRANCH  71  74
ATOM     74  C17 HG8 d   1      22.262 -21.613  22.933  0.00  0.00    -0.056 C 
ATOM     75  H24 HG8 d   1      22.454 -22.397  23.680  0.00  0.00     0.030 H 
ATOM     76  H25 HG8 d   1      21.933 -22.077  21.991  0.00  0.00     0.030 H 
ATOM     77  H26 HG8 d   1      21.477 -20.938  23.303  0.00  0.00     0.030 H 
ENDBRANCH  71  74
ENDBRANCH  70  71
ENDBRANCH  48  70
ENDBRANCH   1  41
TORSDOF 13
