REMARK  1 active torsions:
REMARK  status: ('A' for Active; 'I' for Inactive)
REMARK    1  A    between atoms: C1_7  and  N1_3 
ROOT
ATOM      1  C4  HH5 d   1      -1.095  -2.368 -26.048  0.00  0.00     0.067 A 
ATOM      2  C5  HH5 d   1       0.362  -3.417 -27.280  0.00  0.00     0.199 A 
ATOM      3  N2  HH5 d   1       1.037  -6.019 -27.287  0.00  0.00    -0.054 NA
ATOM      4  C3  HH5 d   1      -0.247  -4.298 -26.371  0.00  0.00     0.118 A 
ATOM      5  N3  HH5 d   1      -1.178  -3.610 -25.601  0.00  0.00    -0.345 N 
ATOM      6  C1  HH5 d   1       1.596  -5.083 -28.118  0.00  0.00     0.723 A 
ATOM      7  C2  HH5 d   1       0.127  -5.613 -26.405  0.00  0.00     0.148 A 
ATOM      8  I1  HH5 d   1      -0.613  -6.978 -25.009  0.00  0.00    -0.019 I 
ATOM      9  N4  HH5 d   1      -0.161  -2.183 -27.037  0.00  0.00    -0.222 NA
ATOM     10  N5  HH5 d   1       1.333  -3.755 -28.157  0.00  0.00    -0.041 NA
ATOM     11  H1  HH5 d   1      -1.716  -1.560 -25.664  0.00  0.00     0.143 H 
ATOM     12  H4  HH5 d   1      -1.788  -3.980 -24.858  0.00  0.00     0.167 HD
ENDROOT
BRANCH   6  13
ATOM     13  N1  HH5 d   1       2.485  -5.507 -29.035  0.00  0.00    -0.231 N 
ATOM     14  H2  HH5 d   1       2.745  -6.503 -29.078  0.00  0.00     0.174 HD
ATOM     15  H3  HH5 d   1       2.905  -4.836 -29.694  0.00  0.00     0.174 HD
ENDBRANCH   6  13
TORSDOF 1
