REMARK  4 active torsions:
REMARK  status: ('A' for Active; 'I' for Inactive)
REMARK    1  A    between atoms: C7_5  and  C8_6 
REMARK    2  A    between atoms: C8_6  and  C9_7 
REMARK    3  A    between atoms: C1_15  and  N1_11 
REMARK    4  A    between atoms: C3_13  and  C2_16 
ROOT
ATOM      1  C4  HJK d   1      -0.594  -8.275 -26.420  0.00  0.00    -0.071 C 
ATOM      2  C5  HJK d   1      -1.049  -9.391 -25.728  0.00  0.00    -0.082 C 
ATOM      3  C6  HJK d   1      -1.267  -9.299 -24.363  0.00  0.00    -0.076 C 
ATOM      4  C7  HJK d   1      -1.181  -8.086 -23.691  0.00  0.00    -0.047 C 
ATOM      5  C10 HJK d   1      -0.693  -7.008 -24.390  0.00  0.00    -0.064 C 
ATOM      6  C3  HJK d   1      -0.413  -7.065 -25.753  0.00  0.00    -0.004 C 
ATOM      7  H1  HJK d   1      -0.380  -8.346 -27.480  0.00  0.00     0.084 H 
ATOM      8  H2  HJK d   1      -1.231 -10.323 -26.250  0.00  0.00     0.083 H 
ATOM      9  H3  HJK d   1      -1.511 -10.196 -23.805  0.00  0.00     0.084 H 
ATOM     10  H6  HJK d   1      -0.519  -6.078 -23.860  0.00  0.00     0.085 H 
ENDROOT
BRANCH   6  11
ATOM     11  C2  HJK d   1       0.072  -5.857 -26.455  0.00  0.00     0.117 A 
ATOM     12  C11 HJK d   1      -0.291  -4.508 -26.260  0.00  0.00     0.112 A 
ATOM     13  C13 HJK d   1       0.320  -3.548 -27.076  0.00  0.00     0.198 A 
ATOM     14  N3  HJK d   1      -1.171  -3.869 -25.396  0.00  0.00    -0.346 N 
ATOM     15  N4  HJK d   1      -0.195  -2.341 -26.721  0.00  0.00    -0.222 NA
ATOM     16  N5  HJK d   1       1.216  -3.806 -28.029  0.00  0.00    -0.041 NA
ATOM     17  C12 HJK d   1      -1.093  -2.599 -25.729  0.00  0.00     0.067 A 
ATOM     18  H7  HJK d   1      -1.692  -1.823 -25.255  0.00  0.00     0.143 H 
ATOM     19  C1  HJK d   1       1.489  -5.127 -28.162  0.00  0.00     0.723 A 
ATOM     20  N2  HJK d   1       0.945  -6.130 -27.438  0.00  0.00    -0.060 NA
ATOM     21  H10 HJK d   1      -1.753  -4.294 -24.660  0.00  0.00     0.167 HD
BRANCH  19  22
ATOM     22  N1  HJK d   1       2.345  -5.512 -29.120  0.00  0.00    -0.231 N 
ATOM     23  H8  HJK d   1       2.568  -6.510 -29.240  0.00  0.00     0.174 HD
ATOM     24  H9  HJK d   1       2.779  -4.809 -29.735  0.00  0.00     0.174 HD
ENDBRANCH  19  22
ENDBRANCH   6  11
BRANCH   4  25
ATOM     25  C8  HJK d   1      -1.406  -7.947 -22.191  0.00  0.00     0.039 C 
ATOM     26  H4  HJK d   1      -1.697  -6.902 -22.009  0.00  0.00     0.056 H 
ATOM     27  H5  HJK d   1      -0.440  -8.149 -21.705  0.00  0.00     0.056 H 
BRANCH  25  28
ATOM     28  C9  HJK d   1      -2.448  -8.826 -21.487  0.00  0.00     0.176 C 
ATOM     29  O1  HJK d   1      -2.325  -9.003 -20.298  0.00  0.00    -0.648 OA
ATOM     30  O2  HJK d   1      -3.500  -9.113 -22.122  0.00  0.00    -0.648 OA
ENDBRANCH  25  28
ENDBRANCH   4  25
TORSDOF 4
