REMARK  7 active torsions:
REMARK  status: ('A' for Active; 'I' for Inactive)
REMARK    1  A    between atoms: N3_2  and  C6_5 
REMARK    2  A    between atoms: C3_10  and  C4_3 
REMARK    3  A    between atoms: C5_4  and  O3_14 
REMARK    4  A    between atoms: C6_5  and  C7_6 
REMARK    5  A    between atoms: C2_9  and  C1_8 
REMARK    6  A    between atoms: C2_9  and  C3_10 
REMARK    7  A    between atoms: C2_9  and  N4_12 
ROOT
ATOM      1  N1  HJ8 d   1      -7.884  26.819 -23.667  0.00  0.00    -0.132 NA
ATOM      2  N3  HJ8 d   1      -9.091  27.843 -22.182  0.00  0.00    -0.274 N 
ATOM      3  C4  HJ8 d   1      -8.071  27.257 -21.455  0.00  0.00     0.083 A 
ATOM      4  C5  HJ8 d   1      -7.373  26.591 -22.456  0.00  0.00     0.203 A 
ATOM      5  N2  HJ8 d   1      -8.992  27.613 -23.512  0.00  0.00     0.007 NA
ENDROOT
BRANCH   3   6
ATOM      6  C3  HJ8 d   1      -7.910  27.309 -19.940  0.00  0.00     0.015 C 
ATOM      7  H7  HJ8 d   1      -8.438  28.198 -19.564  0.00  0.00     0.046 H 
ATOM      8  H8  HJ8 d   1      -6.838  27.392 -19.706  0.00  0.00     0.046 H 
BRANCH   6   9
ATOM      9  C2  HJ8 d   1      -8.476  26.058 -19.217  0.00  0.00     0.187 C 
ATOM     10  H6  HJ8 d   1      -8.109  25.170 -19.753  0.00  0.00     0.101 H 
BRANCH   9  11
ATOM     11  C1  HJ8 d   1      -7.990  25.936 -17.763  0.00  0.00     0.204 C 
ATOM     12  O1  HJ8 d   1      -6.785  25.900 -17.514  0.00  0.00    -0.646 OA
ATOM     13  O2  HJ8 d   1      -8.999  25.819 -16.882  0.00  0.00    -0.646 OA
ENDBRANCH   9  11
BRANCH   9  14
ATOM     14  N4  HJ8 d   1      -9.966  26.067 -19.320  0.00  0.00    -0.065 N 
ATOM     15  H9  HJ8 d   1     -10.340  25.256 -18.852  0.00  0.00     0.275 HD
ATOM     16  H10 HJ8 d   1     -10.236  26.049 -20.291  0.00  0.00     0.275 HD
ATOM     17  H11 HJ8 d   1     -10.328  26.902 -18.886  0.00  0.00     0.275 HD
ENDBRANCH   9  14
ENDBRANCH   6   9
ENDBRANCH   3   6
BRANCH   2  18
ATOM     18  C6  HJ8 d   1     -10.192  28.637 -21.627  0.00  0.00     0.011 C 
ATOM     19  H1  HJ8 d   1      -9.787  29.252 -20.810  0.00  0.00     0.066 H 
ATOM     20  H2  HJ8 d   1     -10.942  27.941 -21.225  0.00  0.00     0.066 H 
BRANCH  18  21
ATOM     21  C7  HJ8 d   1     -10.894  29.566 -22.610  0.00  0.00    -0.060 C 
ATOM     22  H3  HJ8 d   1     -11.697  30.109 -22.091  0.00  0.00     0.029 H 
ATOM     23  H4  HJ8 d   1     -11.323  28.974 -23.432  0.00  0.00     0.029 H 
ATOM     24  H5  HJ8 d   1     -10.168  30.285 -23.017  0.00  0.00     0.029 H 
ENDBRANCH  18  21
ENDBRANCH   2  18
BRANCH   4  25
ATOM     25  O3  HJ8 d   1      -6.266  25.865 -22.274  0.00  0.00    -0.342 OA
ATOM     26  H12 HJ8 d   1      -6.404  24.988 -22.612  0.00  0.00     0.219 HD
ENDBRANCH   4  25
TORSDOF 7
