REMARK  5 active torsions:
REMARK  status: ('A' for Active; 'I' for Inactive)
REMARK    1  A    between atoms: N2_9  and  C5_4 
REMARK    2  A    between atoms: C1_6  and  C6_5 
REMARK    3  A    between atoms: C2_7  and  C1_6 
REMARK    4  A    between atoms: C1_6  and  N4_10 
REMARK    5  A    between atoms: C2_7  and  C3_8 
ROOT
ATOM      1  C2  HJH d   1      41.471  34.126 -27.124  0.00  0.00     0.017 C 
ATOM      2  H6  HJH d   1      42.545  34.167 -27.356  0.00  0.00     0.046 H 
ATOM      3  H7  HJH d   1      41.049  33.185 -27.506  0.00  0.00     0.046 H 
ENDROOT
BRANCH   1   4
ATOM      4  C1  HJH d   1      40.777  35.296 -27.857  0.00  0.00     0.187 C 
ATOM      5  H5  HJH d   1      41.045  36.220 -27.324  0.00  0.00     0.101 H 
BRANCH   4   6
ATOM      6  C6  HJH d   1      41.284  35.445 -29.318  0.00  0.00     0.204 C 
ATOM      7  O1  HJH d   1      42.463  35.492 -29.599  0.00  0.00    -0.646 OA
ATOM      8  O2  HJH d   1      40.336  35.562 -30.244  0.00  0.00    -0.646 OA
ENDBRANCH   4   6
BRANCH   4   9
ATOM      9  N4  HJH d   1      39.298  35.167 -27.801  0.00  0.00    -0.065 N 
ATOM     10  H8  HJH d   1      38.874  35.942 -28.286  0.00  0.00     0.275 HD
ATOM     11  H9  HJH d   1      38.997  35.168 -26.839  0.00  0.00     0.275 HD
ATOM     12  H10 HJH d   1      39.019  34.303 -28.240  0.00  0.00     0.275 HD
ENDBRANCH   4   9
ENDBRANCH   1   4
BRANCH   1  13
ATOM     13  C3  HJH d   1      41.312  34.135 -25.598  0.00  0.00     0.114 A 
ATOM     14  N3  HJH d   1      40.379  33.450 -24.962  0.00  0.00    -0.157 NA
ATOM     15  N2  HJH d   1      40.578  33.771 -23.671  0.00  0.00    -0.213 N 
ATOM     16  N1  HJH d   1      41.573  34.611 -23.407  0.00  0.00    -0.258 N 
ATOM     17  C4  HJH d   1      42.037  34.848 -24.621  0.00  0.00     0.221 A 
ATOM     18  H1  HJH d   1      41.886  34.968 -22.527  0.00  0.00     0.191 HD
ATOM     19  O3  HJH d   1      43.087  35.662 -24.843  0.00  0.00    -0.168 OA
BRANCH  15  20
ATOM     20  C5  HJH d   1      39.780  33.165 -22.623  0.00  0.00     0.018 C 
ATOM     21  H2  HJH d   1      39.020  32.510 -23.073  0.00  0.00     0.061 H 
ATOM     22  H3  HJH d   1      39.284  33.953 -22.037  0.00  0.00     0.061 H 
ATOM     23  H4  HJH d   1      40.431  32.572 -21.963  0.00  0.00     0.061 H 
ENDBRANCH  15  20
ENDBRANCH   1  13
TORSDOF 5
