REMARK  8 active torsions:
REMARK  status: ('A' for Active; 'I' for Inactive)
REMARK    1  A    between atoms: C01_1  and  C02_2 
REMARK       I    between atoms: C02_2  and  N04_4 
REMARK    2  A    between atoms: N04_4  and  C05_5 
REMARK    3  A    between atoms: C05_5  and  C06_6 
REMARK       I    between atoms: C06_6  and  N08_8 
REMARK    4  A    between atoms: C17_17  and  N19_19 
REMARK    5  A    between atoms: N19_19  and  C20_20 
REMARK    6  A    between atoms: C23_23  and  C31_31 
REMARK    7  A    between atoms: C24_24  and  N26_26 
REMARK    8  A    between atoms: N26_26  and  C27_27 
ROOT
ATOM      1  C06 MOL d   1      -0.984  28.832  38.829  0.00  0.00     0.238 C 
ATOM      2  O07 MOL d   1      -0.640  29.363  39.876  0.00  0.00    -0.272 OA
ATOM      3  N08 MOL d   1      -1.664  29.508  37.879  0.00  0.00    -0.333 N 
ATOM      4  C09 MOL d   1      -2.182  30.842  38.051  0.00  0.00     0.041 C 
ATOM      5  C10 MOL d   1      -2.184  31.318  36.586  0.00  0.00    -0.040 C 
ATOM      6  C11 MOL d   1      -2.443  29.984  35.791  0.00  0.00    -0.040 C 
ATOM      7  C12 MOL d   1      -2.595  28.957  36.922  0.00  0.00     0.041 C 
ATOM      8  C13 MOL d   1      -3.910  29.381  37.539  0.00  0.00    -0.025 A 
ATOM      9  C14 MOL d   1      -3.650  30.544  38.263  0.00  0.00    -0.027 A 
ATOM     10  C15 MOL d   1      -4.625  31.108  39.071  0.00  0.00    -0.072 A 
ATOM     11  C16 MOL d   1      -5.869  30.482  39.153  0.00  0.00    -0.056 A 
ATOM     12  C17 MOL d   1      -6.136  29.324  38.397  0.00  0.00     0.050 A 
ATOM     13  C18 MOL d   1      -5.152  28.766  37.581  0.00  0.00    -0.048 A 
ATOM     14  H7  MOL d   1      -1.687  31.487  38.792  0.00  0.00     0.080 H 
ATOM     15  H8  MOL d   1      -1.216  31.762  36.312  0.00  0.00     0.036 H 
ATOM     16  H9  MOL d   1      -2.986  32.049  36.407  0.00  0.00     0.036 H 
ATOM     17  H10 MOL d   1      -1.592  29.736  35.139  0.00  0.00     0.036 H 
ATOM     18  H11 MOL d   1      -3.360  30.051  35.187  0.00  0.00     0.036 H 
ATOM     19  H12 MOL d   1      -2.484  27.895  36.658  0.00  0.00     0.080 H 
ATOM     20  H13 MOL d   1      -4.425  32.017  39.627  0.00  0.00     0.084 H 
ATOM     21  H14 MOL d   1      -6.635  30.889  39.803  0.00  0.00     0.086 H 
ATOM     22  H15 MOL d   1      -5.353  27.876  36.996  0.00  0.00     0.087 H 
ENDROOT
BRANCH  12  23
ATOM     23  N19 MOL d   1      -7.349  28.607  38.475  0.00  0.00    -0.188 N 
ATOM     24  H16 MOL d   1      -7.476  27.898  37.739  0.00  0.00     0.184 HD
BRANCH  23  25
ATOM     25  C20 MOL d   1      -8.374  28.695  39.356  0.00  0.00     0.728 A 
ATOM     26  N21 MOL d   1      -9.404  27.872  39.142  0.00  0.00    -0.074 NA
ATOM     27  C22 MOL d   1     -10.368  27.915  40.062  0.00  0.00     0.039 A 
ATOM     28  C23 MOL d   1     -10.365  28.782  41.135  0.00  0.00     0.112 A 
ATOM     29  H17 MOL d   1     -11.202  27.230  39.961  0.00  0.00     0.117 H 
ATOM     30  C24 MOL d   1      -9.229  29.632  41.244  0.00  0.00     0.159 A 
ATOM     31  N25 MOL d   1      -8.240  29.554  40.369  0.00  0.00    -0.044 NA
BRANCH  28  32
ATOM     32  C31 MOL d   1     -11.493  28.761  42.104  0.00  0.00     0.422 C 
ATOM     33  F32 MOL d   1     -11.079  28.623  43.343  0.00  0.00    -0.166 F 
ATOM     34  F33 MOL d   1     -12.295  27.757  41.882  0.00  0.00    -0.166 F 
ATOM     35  F34 MOL d   1     -12.206  29.874  42.037  0.00  0.00    -0.166 F 
ENDBRANCH  28  32
BRANCH  30  36
ATOM     36  N26 MOL d   1      -9.132  30.560  42.223  0.00  0.00    -0.369 N 
ATOM     37  H18 MOL d   1      -9.910  30.707  42.882  0.00  0.00     0.161 HD
BRANCH  36  38
ATOM     38  C27 MOL d   1      -7.909  31.351  42.333  0.00  0.00     0.011 C 
ATOM     39  C28 MOL d   1      -7.901  32.759  41.708  0.00  0.00    -0.046 C 
ATOM     40  C29 MOL d   1      -6.964  33.172  42.897  0.00  0.00    -0.061 C 
ATOM     41  H20 MOL d   1      -8.878  33.264  41.691  0.00  0.00     0.035 H 
ATOM     42  H21 MOL d   1      -7.439  32.821  40.712  0.00  0.00     0.035 H 
ATOM     43  C30 MOL d   1      -7.560  31.989  43.692  0.00  0.00    -0.046 C 
ATOM     44  H22 MOL d   1      -7.175  34.164  43.324  0.00  0.00     0.033 H 
ATOM     45  H23 MOL d   1      -5.888  33.086  42.684  0.00  0.00     0.033 H 
ATOM     46  H24 MOL d   1      -6.831  31.424  44.292  0.00  0.00     0.035 H 
ATOM     47  H25 MOL d   1      -8.428  32.245  44.316  0.00  0.00     0.035 H 
ATOM     48  H19 MOL d   1      -7.092  30.722  41.950  0.00  0.00     0.072 H 
ENDBRANCH  36  38
ENDBRANCH  30  36
ENDBRANCH  23  25
ENDBRANCH  12  23
BRANCH   1  49
ATOM     49  C05 MOL d   1      -0.818  27.344  38.615  0.00  0.00     0.069 C 
ATOM     50  H5  MOL d   1      -1.813  26.888  38.510  0.00  0.00     0.078 H 
ATOM     51  H6  MOL d   1      -0.241  27.181  37.693  0.00  0.00     0.078 H 
BRANCH  49  52
ATOM     52  N04 MOL d   1      -0.128  26.709  39.715  0.00  0.00    -0.353 N 
ATOM     53  C02 MOL d   1       0.031  25.384  39.766  0.00  0.00     0.213 C 
ATOM     54  O03 MOL d   1      -0.201  24.661  38.796  0.00  0.00    -0.274 OA
ATOM     55  H4  MOL d   1       0.238  27.274  40.454  0.00  0.00     0.162 HD
BRANCH  53  56
ATOM     56  C01 MOL d   1       0.528  24.830  41.070  0.00  0.00    -0.003 C 
ATOM     57  H1  MOL d   1       0.665  25.651  41.789  0.00  0.00     0.040 H 
ATOM     58  H2  MOL d   1       1.489  24.319  40.909  0.00  0.00     0.040 H 
ATOM     59  H3  MOL d   1      -0.206  24.114  41.468  0.00  0.00     0.040 H 
ENDBRANCH  53  56
ENDBRANCH  49  52
ENDBRANCH   1  49
TORSDOF 8
