REMARK  11 active torsions:
REMARK  status: ('A' for Active; 'I' for Inactive)
REMARK    1  A    between atoms: CBF_4  and  CAZ_5 
REMARK       I    between atoms: CAZ_5  and  NAV_7 
REMARK    2  A    between atoms: NAV_7  and  CAI_8 
REMARK    3  A    between atoms: CAI_8  and  CAG_9 
REMARK    4  A    between atoms: CAG_9  and  CAJ_10 
REMARK    5  A    between atoms: CAJ_10  and  NAW_11 
REMARK    6  A    between atoms: NAW_11  and  C4_12 
REMARK    7  A    between atoms: C5_14  and  CBG_15 
REMARK    8  A    between atoms: C2_20  and  NAX_21 
REMARK    9  A    between atoms: NAX_21  and  CBB_22 
REMARK   10  A    between atoms: CBA_27  and  CAS_28 
REMARK   11  A    between atoms: CAS_28  and  NBH_29 
ROOT
ATOM      1  C4  MOL d   1      43.673 -42.632 -32.808  0.00  0.00     0.151 A 
ATOM      2  N3  MOL d   1      44.422 -42.122 -31.826  0.00  0.00    -0.045 NA
ATOM      3  C5  MOL d   1      44.160 -42.747 -34.115  0.00  0.00     0.018 A 
ATOM      4  C6  MOL d   1      45.472 -42.358 -34.301  0.00  0.00     0.032 A 
ATOM      5  N1  MOL d   1      46.256 -41.874 -33.328  0.00  0.00    -0.074 NA
ATOM      6  C2  MOL d   1      45.682 -41.787 -32.124  0.00  0.00     0.728 A 
ATOM      7  H19 MOL d   1      45.894 -42.450 -35.295  0.00  0.00     0.116 H 
ENDROOT
BRANCH   6   8
ATOM      8  NAX MOL d   1      46.455 -41.477 -31.057  0.00  0.00    -0.188 N 
ATOM      9  H20 MOL d   1      47.466 -41.495 -31.252  0.00  0.00     0.184 HD
BRANCH   8  10
ATOM     10  CBB MOL d   1      46.136 -41.137 -29.740  0.00  0.00     0.050 A 
ATOM     11  CAF MOL d   1      47.096 -41.180 -28.741  0.00  0.00    -0.049 A 
ATOM     12  CBA MOL d   1      46.765 -40.905 -27.419  0.00  0.00    -0.030 A 
ATOM     13  H21 MOL d   1      48.120 -41.432 -28.994  0.00  0.00     0.087 H 
ATOM     14  CAC MOL d   1      45.479 -40.479 -27.135  0.00  0.00    -0.075 A 
ATOM     15  CAB MOL d   1      44.541 -40.349 -28.141  0.00  0.00    -0.080 A 
ATOM     16  H24 MOL d   1      45.205 -40.245 -26.113  0.00  0.00     0.084 H 
ATOM     17  CAD MOL d   1      44.864 -40.684 -29.442  0.00  0.00    -0.057 A 
ATOM     18  H23 MOL d   1      43.548 -39.983 -27.909  0.00  0.00     0.083 H 
ATOM     19  H22 MOL d   1      44.122 -40.592 -30.227  0.00  0.00     0.086 H 
BRANCH  12  20
ATOM     20  CAS MOL d   1      47.735 -41.205 -26.302  0.00  0.00     0.107 C 
ATOM     21  H25 MOL d   1      48.376 -42.042 -26.617  0.00  0.00     0.083 H 
ATOM     22  H26 MOL d   1      47.157 -41.500 -25.413  0.00  0.00     0.083 H 
BRANCH  20  23
ATOM     23  NBH MOL d   1      48.599 -40.076 -25.936  0.00  0.00    -0.063 N 
ATOM     24  CAQ MOL d   1      49.184 -40.292 -24.602  0.00  0.00     0.103 C 
ATOM     25  CAK MOL d   1      50.490 -39.556 -24.476  0.00  0.00     0.042 C 
ATOM     26  H28 MOL d   1      49.358 -41.368 -24.453  0.00  0.00     0.079 H 
ATOM     27  H29 MOL d   1      48.485 -39.924 -23.836  0.00  0.00     0.079 H 
ATOM     28  OAY MOL d   1      50.486 -38.359 -25.236  0.00  0.00    -0.388 OA
ATOM     29  H30 MOL d   1      51.302 -40.205 -24.835  0.00  0.00     0.076 H 
ATOM     30  H31 MOL d   1      50.660 -39.307 -23.418  0.00  0.00     0.076 H 
ATOM     31  CAL MOL d   1      50.501 -38.669 -26.620  0.00  0.00     0.042 C 
ATOM     32  CAR MOL d   1      49.682 -39.906 -26.929  0.00  0.00     0.103 C 
ATOM     33  H32 MOL d   1      51.541 -38.843 -26.935  0.00  0.00     0.076 H 
ATOM     34  H33 MOL d   1      50.086 -37.818 -27.180  0.00  0.00     0.076 H 
ATOM     35  H34 MOL d   1      49.241 -39.806 -27.931  0.00  0.00     0.079 H 
ATOM     36  H35 MOL d   1      50.337 -40.789 -26.904  0.00  0.00     0.079 H 
ATOM     37  H27 MOL d   1      48.042 -39.236 -25.916  0.00  0.00     0.280 HD
ENDBRANCH  20  23
ENDBRANCH  12  20
ENDBRANCH   8  10
ENDBRANCH   6   8
BRANCH   1  38
ATOM     38  NAW MOL d   1      42.443 -43.074 -32.506  0.00  0.00    -0.374 N 
ATOM     39  H15 MOL d   1      41.966 -43.694 -33.176  0.00  0.00     0.161 HD
BRANCH  38  40
ATOM     40  CAJ MOL d   1      41.752 -42.719 -31.279  0.00  0.00    -0.004 C 
ATOM     41  H13 MOL d   1      40.878 -43.376 -31.159  0.00  0.00     0.064 H 
ATOM     42  H14 MOL d   1      42.437 -42.861 -30.430  0.00  0.00     0.064 H 
BRANCH  40  43
ATOM     43  CAG MOL d   1      41.285 -41.282 -31.297  0.00  0.00    -0.035 C 
ATOM     44  H11 MOL d   1      40.833 -41.050 -30.322  0.00  0.00     0.037 H 
ATOM     45  H12 MOL d   1      42.158 -40.633 -31.460  0.00  0.00     0.037 H 
BRANCH  43  46
ATOM     46  CAI MOL d   1      40.270 -40.997 -32.375  0.00  0.00    -0.003 C 
ATOM     47  H9  MOL d   1      39.962 -39.943 -32.307  0.00  0.00     0.064 H 
ATOM     48  H10 MOL d   1      40.729 -41.182 -33.357  0.00  0.00     0.064 H 
BRANCH  46  49
ATOM     49  NAV MOL d   1      39.095 -41.845 -32.233  0.00  0.00    -0.361 N 
ATOM     50  CAZ MOL d   1      38.885 -42.920 -32.989  0.00  0.00     0.221 C 
ATOM     51  OAA MOL d   1      39.644 -43.244 -33.898  0.00  0.00    -0.273 OA
ATOM     52  H8  MOL d   1      38.416 -41.609 -31.537  0.00  0.00     0.162 HD
BRANCH  50  53
ATOM     53  CBF MOL d   1      37.627 -43.701 -32.677  0.00  0.00     0.024 C 
ATOM     54  CAM MOL d   1      37.573 -44.425 -31.345  0.00  0.00    -0.054 C 
ATOM     55  CAH MOL d   1      36.891 -45.595 -32.060  0.00  0.00    -0.064 C 
ATOM     56  H1  MOL d   1      38.557 -44.664 -30.916  0.00  0.00     0.034 H 
ATOM     57  H2  MOL d   1      36.951 -43.932 -30.583  0.00  0.00     0.034 H 
ATOM     58  CAN MOL d   1      37.403 -45.035 -33.373  0.00  0.00    -0.054 C 
ATOM     59  H3  MOL d   1      35.795 -45.609 -31.967  0.00  0.00     0.033 H 
ATOM     60  H4  MOL d   1      37.294 -46.585 -31.799  0.00  0.00     0.033 H 
ATOM     61  H5  MOL d   1      36.654 -45.007 -34.178  0.00  0.00     0.034 H 
ATOM     62  H6  MOL d   1      38.321 -45.514 -33.743  0.00  0.00     0.034 H 
ATOM     63  H7  MOL d   1      36.781 -43.013 -32.817  0.00  0.00     0.054 H 
ENDBRANCH  50  53
ENDBRANCH  46  49
ENDBRANCH  43  46
ENDBRANCH  40  43
ENDBRANCH  38  40
ENDBRANCH   1  38
BRANCH   3  64
ATOM     64  CBG MOL d   1      43.238 -43.116 -35.259  0.00  0.00     0.009 A 
ATOM     65  CAO MOL d   1      43.754 -43.657 -36.553  0.00  0.00    -0.094 A 
ATOM     66  CAP MOL d   1      43.021 -44.544 -35.639  0.00  0.00    -0.094 A 
ATOM     67  H17 MOL d   1      44.286 -43.505 -37.491  0.00  0.00     0.077 H 
ATOM     68  H18 MOL d   1      42.615 -45.528 -35.407  0.00  0.00     0.077 H 
ATOM     69  H16 MOL d   1      42.391 -42.415 -35.268  0.00  0.00     0.060 H 
ENDBRANCH   3  64
TORSDOF 11
