REMARK  10 active torsions:
REMARK  status: ('A' for Active; 'I' for Inactive)
REMARK    1  A    between atoms: N1_1  and  C7_13 
REMARK    2  A    between atoms: C8_14  and  N1_1 
REMARK    3  A    between atoms: N3_3  and  C9_21 
REMARK    4  A    between atoms: C10_23  and  N3_3 
REMARK    5  A    between atoms: N4_5  and  C15_28 
REMARK    6  A    between atoms: C6_7  and  C5_6 
REMARK    7  A    between atoms: C5_6  and  N_12 
REMARK    8  A    between atoms: C7_13  and  C6_7 
REMARK    9  A    between atoms: C_9  and  C1_10 
REMARK       I    between atoms: N_12  and  C_9 
REMARK   10  A    between atoms: C21_15  and  C22_16 
ROOT
ATOM      1  C8  HVH d   1    -103.525  -2.507 -58.301  0.00  0.00     0.151 A 
ATOM      2  C21 HVH d   1    -103.859  -3.830 -58.563  0.00  0.00     0.018 A 
ATOM      3  C20 HVH d   1    -105.198  -4.078 -58.740  0.00  0.00     0.032 A 
ATOM      4  N5  HVH d   1    -106.148  -3.144 -58.689  0.00  0.00    -0.074 NA
ATOM      5  C9  HVH d   1    -105.712  -1.916 -58.415  0.00  0.00     0.728 A 
ATOM      6  N2  HVH d   1    -104.449  -1.562 -58.217  0.00  0.00    -0.045 NA
ATOM      7  H21 HVH d   1    -105.502  -5.100 -58.934  0.00  0.00     0.116 H 
ENDROOT
BRANCH   1   8
ATOM      8  N1  HVH d   1    -102.245  -2.136 -58.203  0.00  0.00    -0.374 N 
ATOM      9  H1  HVH d   1    -101.513  -2.832 -58.404  0.00  0.00     0.161 HD
BRANCH   8  10
ATOM     10  C7  HVH d   1    -101.843  -0.792 -57.825  0.00  0.00    -0.004 C 
ATOM     11  H16 HVH d   1    -102.469  -0.069 -58.369  0.00  0.00     0.064 H 
ATOM     12  H17 HVH d   1    -100.789  -0.646 -58.103  0.00  0.00     0.064 H 
BRANCH  10  13
ATOM     13  C6  HVH d   1    -101.995  -0.541 -56.318  0.00  0.00    -0.035 C 
ATOM     14  H10 HVH d   1    -101.651   0.483 -56.109  0.00  0.00     0.037 H 
ATOM     15  H11 HVH d   1    -103.062  -0.628 -56.066  0.00  0.00     0.037 H 
BRANCH  13  16
ATOM     16  C5  HVH d   1    -101.222  -1.489 -55.414  0.00  0.00    -0.003 C 
ATOM     17  H8  HVH d   1    -101.516  -2.522 -55.650  0.00  0.00     0.064 H 
ATOM     18  H9  HVH d   1    -101.475  -1.266 -54.367  0.00  0.00     0.064 H 
BRANCH  16  19
ATOM     19  N   HVH d   1     -99.781  -1.360 -55.587  0.00  0.00    -0.361 N 
ATOM     20  C   HVH d   1     -99.097  -2.035 -56.518  0.00  0.00     0.221 C 
ATOM     21  O   HVH d   1     -99.610  -2.933 -57.217  0.00  0.00    -0.273 OA
ATOM     22  H15 HVH d   1     -99.281  -0.739 -54.983  0.00  0.00     0.162 HD
BRANCH  20  23
ATOM     23  C1  HVH d   1     -97.678  -1.622 -56.684  0.00  0.00     0.024 C 
ATOM     24  C2  HVH d   1     -97.392  -0.475 -57.649  0.00  0.00    -0.054 C 
ATOM     25  C3  HVH d   1     -96.113  -1.256 -58.125  0.00  0.00    -0.064 C 
ATOM     26  H2  HVH d   1     -97.182   0.489 -57.162  0.00  0.00     0.034 H 
ATOM     27  H3  HVH d   1     -98.156  -0.334 -58.428  0.00  0.00     0.034 H 
ATOM     28  C4  HVH d   1     -96.744  -2.526 -57.534  0.00  0.00    -0.054 C 
ATOM     29  H13 HVH d   1     -95.177  -0.941 -57.640  0.00  0.00     0.033 H 
ATOM     30  H14 HVH d   1     -95.971  -1.280 -59.215  0.00  0.00     0.033 H 
ATOM     31  H5  HVH d   1     -97.267  -3.157 -58.268  0.00  0.00     0.034 H 
ATOM     32  H6  HVH d   1     -96.052  -3.145 -56.945  0.00  0.00     0.034 H 
ATOM     33  H12 HVH d   1     -97.277  -1.436 -55.677  0.00  0.00     0.054 H 
ENDBRANCH  20  23
ENDBRANCH  16  19
ENDBRANCH  13  16
ENDBRANCH  10  13
ENDBRANCH   8  10
ENDBRANCH   1   8
BRANCH   2  34
ATOM     34  C22 HVH d   1    -102.806  -4.882 -58.865  0.00  0.00     0.009 A 
ATOM     35  C24 HVH d   1    -102.303  -5.813 -57.810  0.00  0.00    -0.094 A 
ATOM     36  C23 HVH d   1    -103.145  -6.339 -58.895  0.00  0.00    -0.094 A 
ATOM     37  H19 HVH d   1    -101.730  -5.980 -56.899  0.00  0.00     0.077 H 
ATOM     38  H20 HVH d   1    -103.649  -7.178 -59.373  0.00  0.00     0.077 H 
ATOM     39  H18 HVH d   1    -102.103  -4.473 -59.606  0.00  0.00     0.060 H 
ENDBRANCH   2  34
BRANCH   5  40
ATOM     40  N3  HVH d   1    -106.608  -0.913 -58.458  0.00  0.00    -0.188 N 
ATOM     41  H4  HVH d   1    -107.530  -1.215 -58.805  0.00  0.00     0.184 HD
BRANCH  40  42
ATOM     42  C10 HVH d   1    -106.568   0.447 -58.137  0.00  0.00     0.050 A 
ATOM     43  C19 HVH d   1    -107.588   1.253 -58.618  0.00  0.00    -0.056 A 
ATOM     44  C18 HVH d   1    -107.545   2.619 -58.415  0.00  0.00    -0.073 A 
ATOM     45  H22 HVH d   1    -108.420   0.811 -59.154  0.00  0.00     0.086 H 
ATOM     46  C13 HVH d   1    -106.529   3.200 -57.669  0.00  0.00    -0.026 A 
ATOM     47  H23 HVH d   1    -108.317   3.247 -58.845  0.00  0.00     0.084 H 
ATOM     48  C14 HVH d   1    -106.446   4.700 -57.540  0.00  0.00     0.107 C 
ATOM     49  C12 HVH d   1    -105.570   2.375 -57.066  0.00  0.00    -0.046 A 
ATOM     50  N4  HVH d   1    -105.704   5.116 -56.343  0.00  0.00    -0.071 N 
ATOM     51  H24 HVH d   1    -105.939   5.104 -58.429  0.00  0.00     0.083 H 
ATOM     52  H25 HVH d   1    -107.466   5.107 -57.483  0.00  0.00     0.083 H 
ATOM     53  C16 HVH d   1    -104.411   4.431 -56.282  0.00  0.00     0.087 C 
ATOM     54  H7  HVH d   1    -106.240   4.861 -55.528  0.00  0.00     0.279 HD
ATOM     55  C17 HVH d   1    -104.601   2.941 -56.068  0.00  0.00    -0.018 C 
ATOM     56  H29 HVH d   1    -103.823   4.843 -55.448  0.00  0.00     0.076 H 
ATOM     57  H30 HVH d   1    -103.871   4.594 -57.227  0.00  0.00     0.076 H 
ATOM     58  H31 HVH d   1    -104.988   2.770 -55.053  0.00  0.00     0.042 H 
ATOM     59  H32 HVH d   1    -103.631   2.434 -56.181  0.00  0.00     0.042 H 
ATOM     60  C11 HVH d   1    -105.585   1.004 -57.330  0.00  0.00    -0.050 A 
ATOM     61  H33 HVH d   1    -104.820   0.367 -56.900  0.00  0.00     0.087 H 
BRANCH  50  62
ATOM     62  C15 HVH d   1    -105.514   6.595 -56.340  0.00  0.00     0.067 C 
ATOM     63  H26 HVH d   1    -104.957   6.891 -55.439  0.00  0.00     0.068 H 
ATOM     64  H27 HVH d   1    -106.496   7.091 -56.344  0.00  0.00     0.068 H 
ATOM     65  H28 HVH d   1    -104.948   6.894 -57.235  0.00  0.00     0.068 H 
ENDBRANCH  50  62
ENDBRANCH  40  42
ENDBRANCH   5  40
TORSDOF 10
