REMARK  20 active torsions:
REMARK  status: ('A' for Active; 'I' for Inactive)
REMARK    1  A    between atoms: C21_15  and  O22_1 
REMARK    2  A    between atoms: C31_21  and  O32_2 
REMARK    3  A    between atoms: C03_4  and  C02_3 
REMARK    4  A    between atoms: C02_3  and  C45_28 
REMARK    5  A    between atoms: C02_3  and  N01_29 
REMARK    6  A    between atoms: C04_5  and  C03_4 
REMARK    7  A    between atoms: N05_30  and  C04_5 
REMARK    8  A    between atoms: C06_6  and  C07_7 
REMARK    9  A    between atoms: N05_30  and  C06_6 
REMARK   10  A    between atoms: C07_7  and  N08_31 
REMARK   11  A    between atoms: N08_31  and  C09_8 
REMARK   12  A    between atoms: N13_33  and  C14_11 
REMARK   13  A    between atoms: C16_12  and  C17_13 
REMARK   14  A    between atoms: C17_13  and  O18_42 
REMARK   15  A    between atoms: C19_14  and  O20_43 
REMARK   16  A    between atoms: C28_19  and  C27_18 
REMARK   17  A    between atoms: C27_18  and  N05_30 
REMARK   18  A    between atoms: N35_36  and  C30_20 
REMARK   19  A    between atoms: C33_22  and  O34_45 
REMARK   20  A    between atoms: C39_25  and  N40_38 
ROOT
ATOM      1  N05 HZ2 d   1     -14.900  -7.248   3.869  0.00  0.00    -0.067 N 
ATOM      2  H31 HZ2 d   1     -14.815  -7.819   4.695  0.00  0.00     0.280 HD
ENDROOT
BRANCH   1   3
ATOM      3  C04 HZ2 d   1     -13.651  -6.375   3.834  0.00  0.00     0.086 C 
ATOM      4  H6  HZ2 d   1     -12.791  -6.976   3.502  0.00  0.00     0.076 H 
ATOM      5  H7  HZ2 d   1     -13.806  -5.540   3.135  0.00  0.00     0.076 H 
BRANCH   3   6
ATOM      6  C03 HZ2 d   1     -13.371  -5.806   5.288  0.00  0.00    -0.006 C 
ATOM      7  H4  HZ2 d   1     -14.258  -5.248   5.621  0.00  0.00     0.039 H 
ATOM      8  H5  HZ2 d   1     -13.195  -6.654   5.966  0.00  0.00     0.039 H 
BRANCH   6   9
ATOM      9  C02 HZ2 d   1     -12.167  -4.880   5.351  0.00  0.00     0.184 C 
ATOM     10  H3  HZ2 d   1     -11.367  -5.303   4.726  0.00  0.00     0.101 H 
BRANCH   9  11
ATOM     11  C45 HZ2 d   1     -12.487  -3.473   4.838  0.00  0.00     0.204 C 
ATOM     12  O46 HZ2 d   1     -12.388  -3.206   3.563  0.00  0.00    -0.646 OA
ATOM     13  O47 HZ2 d   1     -12.860  -2.542   5.670  0.00  0.00    -0.646 OA
ENDBRANCH   9  11
BRANCH   9  14
ATOM     14  N01 HZ2 d   1     -11.700  -4.808   6.749  0.00  0.00    -0.065 N 
ATOM     15  H28 HZ2 d   1     -10.901  -4.196   6.805  0.00  0.00     0.275 HD
ATOM     16  H29 HZ2 d   1     -11.441  -5.729   7.064  0.00  0.00     0.275 HD
ATOM     17  H30 HZ2 d   1     -12.440  -4.449   7.332  0.00  0.00     0.275 HD
ENDBRANCH   9  14
ENDBRANCH   6   9
ENDBRANCH   3   6
ENDBRANCH   1   3
BRANCH   1  18
ATOM     18  C06 HZ2 d   1     -14.927  -8.229   2.693  0.00  0.00     0.098 C 
ATOM     19  H8  HZ2 d   1     -14.591  -7.699   1.790  0.00  0.00     0.078 H 
ATOM     20  H9  HZ2 d   1     -14.234  -9.055   2.913  0.00  0.00     0.078 H 
BRANCH  18  21
ATOM     21  C07 HZ2 d   1     -16.348  -8.833   2.415  0.00  0.00     0.017 C 
ATOM     22  H10 HZ2 d   1     -16.385  -9.105   1.350  0.00  0.00     0.066 H 
ATOM     23  H11 HZ2 d   1     -17.085  -8.041   2.617  0.00  0.00     0.066 H 
BRANCH  21  24
ATOM     24  N08 HZ2 d   1     -16.765 -10.035   3.193  0.00  0.00    -0.371 N 
ATOM     25  H32 HZ2 d   1     -16.042 -10.646   3.598  0.00  0.00     0.161 HD
BRANCH  24  26
ATOM     26  C09 HZ2 d   1     -18.207 -10.376   3.401  0.00  0.00     0.157 A 
ATOM     27  C10 HZ2 d   1     -19.079  -9.548   4.211  0.00  0.00     0.149 A 
ATOM     28  C23 HZ2 d   1     -20.412  -9.900   4.384  0.00  0.00     0.167 A 
ATOM     29  N11 HZ2 d   1     -18.889  -8.402   4.901  0.00  0.00    -0.236 NA
ATOM     30  N13 HZ2 d   1     -20.964  -8.959   5.192  0.00  0.00    -0.294 N 
ATOM     31  N24 HZ2 d   1     -20.905 -11.011   3.789  0.00  0.00    -0.222 NA
ATOM     32  C12 HZ2 d   1     -20.032  -8.050   5.474  0.00  0.00     0.071 A 
ATOM     33  H12 HZ2 d   1     -20.185  -7.158   6.080  0.00  0.00     0.144 H 
ATOM     34  C25 HZ2 d   1     -20.074 -11.755   3.052  0.00  0.00     0.091 A 
ATOM     35  N26 HZ2 d   1     -18.768 -11.443   2.874  0.00  0.00    -0.222 NA
ATOM     36  H19 HZ2 d   1     -20.463 -12.648   2.576  0.00  0.00     0.146 H 
BRANCH  30  37
ATOM     37  C14 HZ2 d   1     -22.422  -8.946   5.591  0.00  0.00     0.139 C 
ATOM     38  C21 HZ2 d   1     -22.255  -8.061   6.905  0.00  0.00     0.105 C 
ATOM     39  C19 HZ2 d   1     -23.695  -7.539   7.114  0.00  0.00     0.091 C 
ATOM     40  H18 HZ2 d   1     -21.540  -7.242   6.738  0.00  0.00     0.093 H 
ATOM     41  C16 HZ2 d   1     -24.051  -7.196   5.860  0.00  0.00     0.088 C 
ATOM     42  H17 HZ2 d   1     -23.726  -6.682   7.803  0.00  0.00     0.091 H 
ATOM     43  O15 HZ2 d   1     -23.434  -8.385   4.944  0.00  0.00    -0.353 OA
ATOM     44  H14 HZ2 d   1     -25.143  -7.122   5.754  0.00  0.00     0.090 H 
ATOM     45  H13 HZ2 d   1     -22.722  -9.982   5.806  0.00  0.00     0.122 H 
BRANCH  38  46
ATOM     46  O22 HZ2 d   1     -21.873  -8.795   8.041  0.00  0.00    -0.388 OA
ATOM     47  H1  HZ2 d   1     -21.038  -9.217   7.878  0.00  0.00     0.210 HD
ENDBRANCH  38  46
BRANCH  39  48
ATOM     48  O20 HZ2 d   1     -24.554  -8.595   7.586  0.00  0.00    -0.390 OA
ATOM     49  H36 HZ2 d   1     -24.223  -8.925   8.413  0.00  0.00     0.210 HD
ENDBRANCH  39  48
BRANCH  41  50
ATOM     50  C17 HZ2 d   1     -23.368  -5.853   5.465  0.00  0.00     0.043 C 
ATOM     51  H15 HZ2 d   1     -22.274  -5.970   5.479  0.00  0.00     0.078 H 
ATOM     52  H16 HZ2 d   1     -23.661  -5.061   6.170  0.00  0.00     0.078 H 
BRANCH  50  53
ATOM     53  O18 HZ2 d   1     -23.789  -5.533   4.200  0.00  0.00    -0.398 OA
ATOM     54  H35 HZ2 d   1     -23.536  -6.224   3.599  0.00  0.00     0.209 HD
ENDBRANCH  50  53
ENDBRANCH  41  50
ENDBRANCH  30  37
ENDBRANCH  24  26
ENDBRANCH  21  24
ENDBRANCH  18  21
ENDBRANCH   1  18
BRANCH   1  55
ATOM     55  C27 HZ2 d   1     -16.180  -6.451   4.065  0.00  0.00     0.110 C 
ATOM     56  H20 HZ2 d   1     -17.032  -7.140   3.967  0.00  0.00     0.080 H 
ATOM     57  H21 HZ2 d   1     -16.167  -6.026   5.079  0.00  0.00     0.080 H 
BRANCH  55  58
ATOM     58  C28 HZ2 d   1     -16.384  -5.264   3.034  0.00  0.00     0.091 C 
ATOM     59  C33 HZ2 d   1     -17.215  -4.291   3.533  0.00  0.00     0.091 C 
ATOM     60  C31 HZ2 d   1     -17.994  -3.737   2.335  0.00  0.00     0.105 C 
ATOM     61  H25 HZ2 d   1     -17.913  -4.750   4.249  0.00  0.00     0.091 H 
ATOM     62  C30 HZ2 d   1     -18.237  -5.053   1.518  0.00  0.00     0.139 C 
ATOM     63  H24 HZ2 d   1     -18.932  -3.253   2.645  0.00  0.00     0.093 H 
ATOM     64  O29 HZ2 d   1     -17.154  -5.810   1.716  0.00  0.00    -0.354 OA
ATOM     65  H23 HZ2 d   1     -18.325  -4.799   0.451  0.00  0.00     0.122 H 
ATOM     66  H22 HZ2 d   1     -15.406  -4.837   2.769  0.00  0.00     0.090 H 
BRANCH  59  67
ATOM     67  O34 HZ2 d   1     -16.544  -3.267   4.178  0.00  0.00    -0.390 OA
ATOM     68  H37 HZ2 d   1     -17.171  -2.622   4.484  0.00  0.00     0.210 HD
ENDBRANCH  59  67
BRANCH  60  69
ATOM     69  O32 HZ2 d   1     -17.208  -2.831   1.540  0.00  0.00    -0.388 OA
ATOM     70  H2  HZ2 d   1     -17.057  -2.031   2.030  0.00  0.00     0.210 HD
ENDBRANCH  60  69
BRANCH  62  71
ATOM     71  N35 HZ2 d   1     -19.445  -5.801   1.912  0.00  0.00    -0.294 N 
ATOM     72  C36 HZ2 d   1     -20.365  -5.432   2.829  0.00  0.00     0.071 A 
ATOM     73  N37 HZ2 d   1     -21.329  -6.350   2.886  0.00  0.00    -0.236 NA
ATOM     74  H26 HZ2 d   1     -20.325  -4.524   3.429  0.00  0.00     0.144 H 
ATOM     75  C38 HZ2 d   1     -21.038  -7.317   1.986  0.00  0.00     0.149 A 
ATOM     76  C39 HZ2 d   1     -21.614  -8.517   1.566  0.00  0.00     0.155 A 
ATOM     77  C44 HZ2 d   1     -19.827  -6.952   1.371  0.00  0.00     0.167 A 
ATOM     78  N41 HZ2 d   1     -21.002  -9.235   0.614  0.00  0.00    -0.222 NA
ATOM     79  C42 HZ2 d   1     -19.864  -8.841   0.055  0.00  0.00     0.091 A 
ATOM     80  N43 HZ2 d   1     -19.269  -7.721   0.420  0.00  0.00    -0.222 NA
ATOM     81  H27 HZ2 d   1     -19.414  -9.453  -0.718  0.00  0.00     0.146 H 
BRANCH  76  82
ATOM     82  N40 HZ2 d   1     -22.877  -9.004   2.122  0.00  0.00    -0.382 N 
ATOM     83  H33 HZ2 d   1     -23.276  -9.894   1.791  0.00  0.00     0.157 HD
ATOM     84  H34 HZ2 d   1     -23.367  -8.457   2.844  0.00  0.00     0.157 HD
ENDBRANCH  76  82
ENDBRANCH  62  71
ENDBRANCH  55  58
ENDBRANCH   1  55
TORSDOF 20
