REMARK  11 active torsions:
REMARK  status: ('A' for Active; 'I' for Inactive)
REMARK    1  A    between atoms: N_1  and  CA_2 
REMARK    2  A    between atoms: CA_2  and  CB_3 
REMARK    3  A    between atoms: CA_2  and  C_6 
REMARK    4  A    between atoms: CB_3  and  CG_4 
REMARK    5  A    between atoms: CG_4  and  SD_5 
REMARK    6  A    between atoms: SD_5  and  C5'_9 
REMARK    7  A    between atoms: C5'_9  and  C4'_10 
REMARK    8  A    between atoms: C3'_12  and  O3'_13 
REMARK    9  A    between atoms: C2'_14  and  O2'_15 
REMARK   10  A    between atoms: C1'_16  and  N9_17 
REMARK   11  A    between atoms: C6_21  and  N6_22 
ROOT
ATOM      1  C4' SAH d   1     -10.386   3.903   2.351  0.00  0.00     0.076 C 
ATOM      2  O4' SAH d   1     -10.574   5.291   2.099  0.00  0.00    -0.355 OA
ATOM      3  C3' SAH d   1     -11.741   3.426   2.884  0.00  0.00     0.090 C 
ATOM      4  C2' SAH d   1     -12.639   4.664   2.822  0.00  0.00     0.105 C 
ATOM      5  C1' SAH d   1     -11.627   5.783   2.939  0.00  0.00     0.139 C 
ATOM      6  H11 SAH d   1      -9.638   3.778   3.148  0.00  0.00     0.088 H 
ATOM      7  H12 SAH d   1     -12.155   2.604   2.281  0.00  0.00     0.091 H 
ATOM      8  H14 SAH d   1     -13.172   4.700   1.860  0.00  0.00     0.093 H 
ATOM      9  H16 SAH d   1     -11.333   5.930   3.989  0.00  0.00     0.122 H 
ENDROOT
BRANCH   1  10
ATOM     10  C5' SAH d   1      -9.851   3.172   1.120  0.00  0.00     0.003 C 
ATOM     11  H9  SAH d   1     -10.631   3.176   0.344  0.00  0.00     0.052 H 
ATOM     12  H10 SAH d   1      -8.965   3.709   0.752  0.00  0.00     0.052 H 
BRANCH  10  13
ATOM     13  SD  SAH d   1      -9.380   1.439   1.461  0.00  0.00    -0.166 SA
BRANCH  13  14
ATOM     14  CG  SAH d   1      -7.916   1.854   2.444  0.00  0.00    -0.021 C 
ATOM     15  H7  SAH d   1      -7.257   2.507   1.854  0.00  0.00     0.049 H 
ATOM     16  H8  SAH d   1      -8.231   2.380   3.358  0.00  0.00     0.049 H 
BRANCH  14  17
ATOM     17  CB  SAH d   1      -7.151   0.583   2.831  0.00  0.00    -0.021 C 
ATOM     18  H5  SAH d   1      -7.838  -0.054   3.408  0.00  0.00     0.037 H 
ATOM     19  H6  SAH d   1      -6.870   0.069   1.900  0.00  0.00     0.037 H 
BRANCH  17  20
ATOM     20  CA  SAH d   1      -5.876   0.760   3.663  0.00  0.00     0.183 C 
ATOM     21  H4  SAH d   1      -6.170   1.082   4.673  0.00  0.00     0.101 H 
BRANCH  20  22
ATOM     22  N   SAH d   1      -4.974   1.774   3.105  0.00  0.00    -0.065 N 
ATOM     23  H1  SAH d   1      -5.460   2.654   3.035  0.00  0.00     0.275 HD
ATOM     24  H2  SAH d   1      -4.670   1.485   2.189  0.00  0.00     0.275 HD
ATOM     25  H3  SAH d   1      -4.173   1.879   3.708  0.00  0.00     0.275 HD
ENDBRANCH  20  22
BRANCH  20  26
ATOM     26  C   SAH d   1      -5.140  -0.576   3.769  0.00  0.00     0.204 C 
ATOM     27  O   SAH d   1      -4.220  -0.835   2.993  0.00  0.00    -0.646 OA
ATOM     28  OXT SAH d   1      -5.442  -1.401   4.634  0.00  0.00    -0.646 OA
ENDBRANCH  20  26
ENDBRANCH  17  20
ENDBRANCH  14  17
ENDBRANCH  13  14
ENDBRANCH  10  13
ENDBRANCH   1  10
BRANCH   3  29
ATOM     29  O3' SAH d   1     -11.537   3.012   4.219  0.00  0.00    -0.390 OA
ATOM     30  H13 SAH d   1     -11.213   3.744   4.731  0.00  0.00     0.210 HD
ENDBRANCH   3  29
BRANCH   5  31
ATOM     31  N9  SAH d   1     -11.934   7.066   2.310  0.00  0.00    -0.294 N 
ATOM     32  C8  SAH d   1     -12.706   7.336   1.210  0.00  0.00     0.071 A 
ATOM     33  N7  SAH d   1     -12.568   8.655   0.923  0.00  0.00    -0.236 NA
ATOM     34  H17 SAH d   1     -13.320   6.621   0.664  0.00  0.00     0.144 H 
ATOM     35  C5  SAH d   1     -11.703   9.212   1.807  0.00  0.00     0.149 A 
ATOM     36  C6  SAH d   1     -11.189  10.488   1.995  0.00  0.00     0.155 A 
ATOM     37  C4  SAH d   1     -11.284   8.206   2.668  0.00  0.00     0.167 A 
ATOM     38  N1  SAH d   1     -10.291  10.708   3.015  0.00  0.00    -0.222 NA
ATOM     39  C2  SAH d   1      -9.890   9.698   3.857  0.00  0.00     0.091 A 
ATOM     40  N3  SAH d   1     -10.406   8.437   3.665  0.00  0.00    -0.222 NA
ATOM     41  H20 SAH d   1      -9.182   9.891   4.655  0.00  0.00     0.146 H 
BRANCH  36  42
ATOM     42  N6  SAH d   1     -11.526  11.519   1.216  0.00  0.00    -0.382 N 
ATOM     43  H18 SAH d   1     -11.121  12.450   1.390  0.00  0.00     0.157 HD
ATOM     44  H19 SAH d   1     -12.191  11.383   0.441  0.00  0.00     0.157 HD
ENDBRANCH  36  42
ENDBRANCH   5  31
BRANCH   4  45
ATOM     45  O2' SAH d   1     -13.577   4.777   3.866  0.00  0.00    -0.388 OA
ATOM     46  H15 SAH d   1     -13.120   4.815   4.698  0.00  0.00     0.210 HD
ENDBRANCH   4  45
TORSDOF 11
