REMARK  13 active torsions:
REMARK  status: ('A' for Active; 'I' for Inactive)
REMARK    1  A    between atoms: C10_1  and  O02_31 
REMARK    2  A    between atoms: S01_35  and  C13_2 
REMARK    3  A    between atoms: C16_21  and  C15_3 
REMARK    4  A    between atoms: C15_3  and  S01_35 
REMARK    5  A    between atoms: C17_4  and  C16_21 
REMARK    6  A    between atoms: N04_27  and  C17_4 
REMARK    7  A    between atoms: C18_36  and  C20_5 
REMARK    8  A    between atoms: C07_15  and  C02_10 
REMARK    9  A    between atoms: C09_17  and  C14_20 
REMARK   10  A    between atoms: C11_18  and  N03_26 
REMARK   11  A    between atoms: C12_19  and  O04_33 
REMARK   12  A    between atoms: C14_20  and  O03_32 
REMARK   13  A    between atoms: C16_21  and  O05_34 
ROOT
ATOM      1  C10 J1E d   1     -18.214   6.811  -0.722  0.00  0.00     0.086 C 
ATOM      2  C13 J1E d   1     -19.902   9.048  -1.323  0.00  0.00     0.110 C 
ATOM      3  C09 J1E d   1     -19.729   6.728  -0.968  0.00  0.00     0.087 C 
ATOM      4  C11 J1E d   1     -17.615   8.025  -1.350  0.00  0.00     0.090 C 
ATOM      5  C12 J1E d   1     -18.381   9.268  -1.177  0.00  0.00     0.093 C 
ATOM      6  O01 J1E d   1     -20.331   7.937  -0.560  0.00  0.00    -0.363 OA
ATOM      7  H1  J1E d   1     -17.724   5.897  -1.090  0.00  0.00     0.090 H 
ATOM      8  H2  J1E d   1     -20.185   8.927  -2.379  0.00  0.00     0.104 H 
ATOM      9  H14 J1E d   1     -19.921   6.544  -2.035  0.00  0.00     0.090 H 
ATOM     10  H15 J1E d   1     -17.825   7.824  -2.411  0.00  0.00     0.084 H 
ATOM     11  H16 J1E d   1     -18.187   9.647  -0.163  0.00  0.00     0.091 H 
ENDROOT
BRANCH   2  12
ATOM     12  S01 J1E d   1     -20.662  10.535  -0.578  0.00  0.00    -0.132 SA
BRANCH  12  13
ATOM     13  C15 J1E d   1     -22.380  10.568  -1.063  0.00  0.00     0.005 C 
ATOM     14  H3  J1E d   1     -22.808  11.540  -0.778  0.00  0.00     0.052 H 
ATOM     15  H4  J1E d   1     -22.441  10.447  -2.155  0.00  0.00     0.052 H 
BRANCH  13  16
ATOM     16  C16 J1E d   1     -23.194   9.462  -0.402  0.00  0.00     0.061 C 
ATOM     17  H19 J1E d   1     -22.840   8.484  -0.759  0.00  0.00     0.086 H 
BRANCH  16  18
ATOM     18  C17 J1E d   1     -24.690   9.649  -0.787  0.00  0.00     0.042 C 
ATOM     19  H5  J1E d   1     -24.809   9.374  -1.845  0.00  0.00     0.071 H 
ATOM     20  H6  J1E d   1     -24.950  10.709  -0.652  0.00  0.00     0.071 H 
BRANCH  18  21
ATOM     21  N04 J1E d   1     -25.621   8.849  -0.001  0.00  0.00    -0.258 N 
ATOM     22  C19 J1E d   1     -26.211   9.245   1.200  0.00  0.00     0.030 A 
ATOM     23  C18 J1E d   1     -27.033   8.203   1.643  0.00  0.00     0.108 A 
ATOM     24  H20 J1E d   1     -26.058  10.198   1.704  0.00  0.00     0.118 H 
ATOM     25  N06 J1E d   1     -26.884   7.196   0.650  0.00  0.00    -0.130 NA
ATOM     26  N05 J1E d   1     -26.071   7.582  -0.284  0.00  0.00    -0.066 NA
BRANCH  23  27
ATOM     27  C20 J1E d   1     -27.858   8.104   2.876  0.00  0.00    -0.001 A 
ATOM     28  C21 J1E d   1     -27.877   9.176   3.780  0.00  0.00    -0.034 A 
ATOM     29  C22 J1E d   1     -28.622   9.127   4.964  0.00  0.00     0.117 A 
ATOM     30  H7  J1E d   1     -27.300  10.066   3.556  0.00  0.00     0.089 H 
ATOM     31  C23 J1E d   1     -29.378   8.020   5.332  0.00  0.00    -0.046 A 
ATOM     32  F02 J1E d   1     -28.616  10.179   5.785  0.00  0.00    -0.206 F 
ATOM     33  C24 J1E d   1     -29.354   6.948   4.449  0.00  0.00    -0.079 A 
ATOM     34  H25 J1E d   1     -29.951   7.995   6.252  0.00  0.00     0.088 H 
ATOM     35  C25 J1E d   1     -28.609   6.984   3.258  0.00  0.00    -0.070 A 
ATOM     36  H8  J1E d   1     -29.926   6.058   4.685  0.00  0.00     0.083 H 
ATOM     37  H26 J1E d   1     -28.615   6.114   2.611  0.00  0.00     0.084 H 
ENDBRANCH  23  27
ENDBRANCH  18  21
ENDBRANCH  16  18
BRANCH  16  38
ATOM     38  O05 J1E d   1     -23.058   9.522   1.039  0.00  0.00    -0.393 OA
ATOM     39  H24 J1E d   1     -23.577   8.831   1.434  0.00  0.00     0.210 HD
ENDBRANCH  16  38
ENDBRANCH  13  16
ENDBRANCH  12  13
ENDBRANCH   2  12
BRANCH   5  40
ATOM     40  O04 J1E d   1     -17.954  10.235  -2.103  0.00  0.00    -0.390 OA
ATOM     41  H23 J1E d   1     -18.087   9.908  -2.985  0.00  0.00     0.210 HD
ENDBRANCH   5  40
BRANCH   4  42
ATOM     42  N03 J1E d   1     -16.265   8.070  -1.394  0.00  0.00    -0.250 N 
ATOM     43  C08 J1E d   1     -15.492   8.410  -0.284  0.00  0.00     0.031 A 
ATOM     44  C07 J1E d   1     -14.172   8.352  -0.658  0.00  0.00     0.108 A 
ATOM     45  H13 J1E d   1     -15.868   8.674   0.703  0.00  0.00     0.118 H 
ATOM     46  N01 J1E d   1     -14.208   7.968  -2.001  0.00  0.00    -0.130 NA
ATOM     47  N02 J1E d   1     -15.423   7.804  -2.387  0.00  0.00    -0.065 NA
BRANCH  44  48
ATOM     48  C02 J1E d   1     -12.978   8.600   0.109  0.00  0.00    -0.001 A 
ATOM     49  C01 J1E d   1     -13.005   8.539   1.499  0.00  0.00    -0.034 A 
ATOM     50  C06 J1E d   1     -11.857   8.778   2.221  0.00  0.00     0.117 A 
ATOM     51  H9  J1E d   1     -13.930   8.303   2.013  0.00  0.00     0.089 H 
ATOM     52  C05 J1E d   1     -10.628   9.058   1.638  0.00  0.00    -0.046 A 
ATOM     53  F01 J1E d   1     -11.911   8.711   3.552  0.00  0.00    -0.206 F 
ATOM     54  C04 J1E d   1     -10.598   9.106   0.256  0.00  0.00    -0.079 A 
ATOM     55  H12 J1E d   1      -9.739   9.230   2.234  0.00  0.00     0.088 H 
ATOM     56  C03 J1E d   1     -11.744   8.873  -0.490  0.00  0.00    -0.070 A 
ATOM     57  H11 J1E d   1      -9.666   9.329  -0.251  0.00  0.00     0.083 H 
ATOM     58  H10 J1E d   1     -11.681   8.903  -1.572  0.00  0.00     0.084 H 
ENDBRANCH  44  48
ENDBRANCH   4  42
BRANCH   3  59
ATOM     59  C14 J1E d   1     -20.355   5.618  -0.121  0.00  0.00     0.043 C 
ATOM     60  H17 J1E d   1     -20.238   5.859   0.946  0.00  0.00     0.078 H 
ATOM     61  H18 J1E d   1     -19.854   4.663  -0.338  0.00  0.00     0.078 H 
BRANCH  59  62
ATOM     62  O03 J1E d   1     -21.736   5.512  -0.435  0.00  0.00    -0.398 OA
ATOM     63  H22 J1E d   1     -22.167   6.338  -0.247  0.00  0.00     0.209 HD
ENDBRANCH  59  62
ENDBRANCH   3  59
BRANCH   1  64
ATOM     64  O02 J1E d   1     -17.985   7.002   0.666  0.00  0.00    -0.391 OA
ATOM     65  H21 J1E d   1     -17.051   7.067   0.826  0.00  0.00     0.210 HD
ENDBRANCH   1  64
TORSDOF 13
