REMARK  13 active torsions:
REMARK  status: ('A' for Active; 'I' for Inactive)
REMARK    1  A    between atoms: C08_5  and  C02_1 
REMARK    2  A    between atoms: C14_7  and  O19_35 
REMARK    3  A    between atoms: C15_8  and  N11_30 
REMARK    4  A    between atoms: C16_9  and  O22_37 
REMARK    5  A    between atoms: C25_19  and  C24_10 
REMARK    6  A    between atoms: C24_10  and  S23_39 
REMARK    7  A    between atoms: C30_21  and  C33_11 
REMARK    8  A    between atoms: C13_16  and  C20_18 
REMARK    9  A    between atoms: S23_39  and  C17_17 
REMARK   10  A    between atoms: C20_18  and  O21_36 
REMARK   11  A    between atoms: C27_20  and  C25_19 
REMARK   12  A    between atoms: C25_19  and  O26_38 
REMARK   13  A    between atoms: N28_31  and  C27_20 
ROOT
ATOM      1  C14 J0T d   1     -18.372   6.573  -0.844  0.00  0.00     0.086 C 
ATOM      2  C15 J0T d   1     -17.872   7.796  -1.649  0.00  0.00     0.090 C 
ATOM      3  C16 J0T d   1     -18.689   9.055  -1.255  0.00  0.00     0.093 C 
ATOM      4  C13 J0T d   1     -19.882   6.440  -1.091  0.00  0.00     0.087 C 
ATOM      5  C17 J0T d   1     -20.159   8.760  -1.481  0.00  0.00     0.110 C 
ATOM      6  O18 J0T d   1     -20.509   7.639  -0.677  0.00  0.00    -0.363 OA
ATOM      7  H4  J0T d   1     -17.849   5.661  -1.167  0.00  0.00     0.090 H 
ATOM      8  H5  J0T d   1     -18.088   7.599  -2.709  0.00  0.00     0.084 H 
ATOM      9  H6  J0T d   1     -18.516   9.342  -0.207  0.00  0.00     0.091 H 
ATOM     10  H12 J0T d   1     -20.088   6.236  -2.152  0.00  0.00     0.090 H 
ATOM     11  H13 J0T d   1     -20.377   8.583  -2.545  0.00  0.00     0.104 H 
ENDROOT
BRANCH   5  12
ATOM     12  S23 J0T d   1     -21.093  10.162  -0.826  0.00  0.00    -0.132 SA
BRANCH  12  13
ATOM     13  C24 J0T d   1     -22.766   9.636  -1.175  0.00  0.00     0.005 C 
ATOM     14  H7  J0T d   1     -23.110  10.155  -2.082  0.00  0.00     0.052 H 
ATOM     15  H8  J0T d   1     -22.758   8.551  -1.355  0.00  0.00     0.052 H 
BRANCH  13  16
ATOM     16  C25 J0T d   1     -23.749   9.928  -0.053  0.00  0.00     0.061 C 
ATOM     17  H16 J0T d   1     -23.805  11.009   0.145  0.00  0.00     0.086 H 
BRANCH  16  18
ATOM     18  C27 J0T d   1     -25.119   9.377  -0.503  0.00  0.00     0.042 C 
ATOM     19  H17 J0T d   1     -25.048   8.280  -0.539  0.00  0.00     0.071 H 
ATOM     20  H18 J0T d   1     -25.325   9.764  -1.512  0.00  0.00     0.071 H 
BRANCH  18  21
ATOM     21  N28 J0T d   1     -26.242   9.725   0.348  0.00  0.00    -0.258 N 
ATOM     22  C31 J0T d   1     -26.807   8.925   1.352  0.00  0.00     0.030 A 
ATOM     23  C30 J0T d   1     -27.851   9.637   1.920  0.00  0.00     0.108 A 
ATOM     24  H19 J0T d   1     -26.483   7.924   1.634  0.00  0.00     0.118 H 
ATOM     25  N32 J0T d   1     -27.864  10.849   1.211  0.00  0.00    -0.130 NA
ATOM     26  N29 J0T d   1     -26.956  10.886   0.305  0.00  0.00    -0.066 NA
BRANCH  23  27
ATOM     27  C33 J0T d   1     -28.785   9.305   3.000  0.00  0.00    -0.001 A 
ATOM     28  C34 J0T d   1     -29.912  10.093   3.290  0.00  0.00    -0.034 A 
ATOM     29  C35 J0T d   1     -30.782   9.752   4.325  0.00  0.00     0.117 A 
ATOM     30  H20 J0T d   1     -30.108  10.980   2.699  0.00  0.00     0.089 H 
ATOM     31  C36 J0T d   1     -30.616   8.624   5.137  0.00  0.00    -0.046 A 
ATOM     32  F39 J0T d   1     -31.841  10.537   4.556  0.00  0.00    -0.206 F 
ATOM     33  C37 J0T d   1     -29.498   7.853   4.848  0.00  0.00    -0.079 A 
ATOM     34  H21 J0T d   1     -31.308   8.371   5.932  0.00  0.00     0.088 H 
ATOM     35  C38 J0T d   1     -28.619   8.181   3.807  0.00  0.00    -0.070 A 
ATOM     36  H9  J0T d   1     -29.299   6.971   5.446  0.00  0.00     0.083 H 
ATOM     37  H22 J0T d   1     -27.772   7.531   3.621  0.00  0.00     0.084 H 
ENDBRANCH  23  27
ENDBRANCH  18  21
ENDBRANCH  16  18
BRANCH  16  38
ATOM     38  O26 J0T d   1     -23.357   9.237   1.103  0.00  0.00    -0.393 OA
ATOM     39  H26 J0T d   1     -23.289   8.310   0.908  0.00  0.00     0.210 HD
ENDBRANCH  16  38
ENDBRANCH  13  16
ENDBRANCH  12  13
ENDBRANCH   5  12
BRANCH   3  40
ATOM     40  O22 J0T d   1     -18.219  10.044  -2.134  0.00  0.00    -0.390 OA
ATOM     41  H25 J0T d   1     -18.332   9.749  -3.030  0.00  0.00     0.210 HD
ENDBRANCH   3  40
BRANCH   2  42
ATOM     42  N11 J0T d   1     -16.433   7.954  -1.550  0.00  0.00    -0.250 N 
ATOM     43  C12 J0T d   1     -15.701   8.281  -0.427  0.00  0.00     0.031 A 
ATOM     44  C08 J0T d   1     -14.362   8.315  -0.804  0.00  0.00     0.108 A 
ATOM     45  H3  J0T d   1     -16.097   8.476   0.568  0.00  0.00     0.118 H 
ATOM     46  N09 J0T d   1     -14.366   7.971  -2.158  0.00  0.00    -0.130 NA
ATOM     47  N10 J0T d   1     -15.555   7.784  -2.583  0.00  0.00    -0.065 NA
BRANCH  44  48
ATOM     48  C02 J0T d   1     -13.185   8.563  -0.055  0.00  0.00    -0.001 A 
ATOM     49  C03 J0T d   1     -11.941   8.772  -0.672  0.00  0.00    -0.070 A 
ATOM     50  C04 J0T d   1     -10.771   8.997   0.061  0.00  0.00    -0.079 A 
ATOM     51  H1  J0T d   1     -11.885   8.758  -1.754  0.00  0.00     0.084 H 
ATOM     52  C05 J0T d   1     -10.773   9.014   1.457  0.00  0.00    -0.046 A 
ATOM     53  H11 J0T d   1      -9.839   9.162  -0.468  0.00  0.00     0.083 H 
ATOM     54  C06 J0T d   1     -12.016   8.779   2.039  0.00  0.00     0.117 A 
ATOM     55  H2  J0T d   1      -9.878   9.196   2.041  0.00  0.00     0.088 H 
ATOM     56  C01 J0T d   1     -13.197   8.526   1.339  0.00  0.00    -0.034 A 
ATOM     57  F07 J0T d   1     -12.043   8.727   3.386  0.00  0.00    -0.206 F 
ATOM     58  H10 J0T d   1     -14.114   8.303   1.873  0.00  0.00     0.089 H 
ENDBRANCH  44  48
ENDBRANCH   2  42
BRANCH   4  59
ATOM     59  C20 J0T d   1     -20.415   5.295  -0.192  0.00  0.00     0.043 C 
ATOM     60  H14 J0T d   1     -20.302   5.563   0.869  0.00  0.00     0.078 H 
ATOM     61  H15 J0T d   1     -19.863   4.365  -0.396  0.00  0.00     0.078 H 
BRANCH  59  62
ATOM     62  O21 J0T d   1     -21.776   5.129  -0.507  0.00  0.00    -0.398 OA
ATOM     63  H24 J0T d   1     -22.241   5.939  -0.333  0.00  0.00     0.209 HD
ENDBRANCH  59  62
ENDBRANCH   4  59
BRANCH   1  64
ATOM     64  O19 J0T d   1     -18.140   6.807   0.550  0.00  0.00    -0.391 OA
ATOM     65  H23 J0T d   1     -17.206   6.890   0.705  0.00  0.00     0.210 HD
ENDBRANCH   1  64
TORSDOF 13
