REMARK  20 active torsions:
REMARK  status: ('A' for Active; 'I' for Inactive)
REMARK    1  A    between atoms: C7_7  and  C8_8 
REMARK    2  A    between atoms: C13_13  and  C14_14 
REMARK    3  A    between atoms: C14_14  and  N15_15 
REMARK    4  A    between atoms: N20_20  and  C21_21 
REMARK    5  A    between atoms: C26_26  and  C27_27 
REMARK       I    between atoms: C27_27  and  N29_29 
REMARK    6  A    between atoms: N29_29  and  S30_30 
REMARK    7  A    between atoms: S30_30  and  C33_33 
REMARK    8  A    between atoms: C35_35  and  N36_36 
REMARK    9  A    between atoms: C41_41  and  N42_42 
REMARK   10  A    between atoms: N42_42  and  C43_43 
REMARK   11  A    between atoms: C43_43  and  C44_44 
REMARK   12  A    between atoms: C43_43  and  C50_53 
REMARK   13  A    between atoms: C44_44  and  C45_45 
REMARK   14  A    between atoms: C45_45  and  N46_46 
REMARK   15  A    between atoms: N46_46  and  C47_47 
REMARK   16  A    between atoms: N46_46  and  C49_48 
REMARK   17  A    between atoms: N46_46  and  C48_49 
REMARK   18  A    between atoms: C48_49  and  C58_50 
REMARK   19  A    between atoms: C50_53  and  S51_54 
REMARK   20  A    between atoms: S51_54  and  C52_55 
ROOT
ATOM      1  S30 J1H d   1     -10.239  16.188 -10.551  0.00  0.00     0.265 S 
ATOM      2  O31 J1H d   1      -9.327  15.859  -9.453  0.00  0.00    -0.200 OA
ATOM      3  O32 J1H d   1      -9.590  16.793 -11.741  0.00  0.00    -0.200 OA
ENDROOT
BRANCH   1   4
ATOM      4  N29 J1H d   1     -11.001  14.848 -10.888  0.00  0.00    -0.246 N 
ATOM      5  C27 J1H d   1     -11.972  14.746 -11.822  0.00  0.00     0.265 C 
ATOM      6  O28 J1H d   1     -12.334  15.744 -12.567  0.00  0.00    -0.267 OA
ATOM      7  H24 J1H d   1     -10.750  14.024 -10.380  0.00  0.00     0.182 HD
BRANCH   5   8
ATOM      8  C26 J1H d   1     -12.824  13.480 -11.811  0.00  0.00     0.033 A 
ATOM      9  C25 J1H d   1     -13.870  13.346 -12.703  0.00  0.00    -0.066 A 
ATOM     10  C24 J1H d   1     -14.637  12.196 -12.685  0.00  0.00    -0.056 A 
ATOM     11  H21 J1H d   1     -14.088  14.137 -13.412  0.00  0.00     0.085 H 
ATOM     12  C21 J1H d   1     -14.365  11.178 -11.783  0.00  0.00     0.030 A 
ATOM     13  H20 J1H d   1     -15.459  12.089 -13.383  0.00  0.00     0.086 H 
ATOM     14  C22 J1H d   1     -13.325  11.337 -10.913  0.00  0.00    -0.056 A 
ATOM     15  C23 J1H d   1     -12.556  12.468 -10.916  0.00  0.00    -0.066 A 
ATOM     16  H22 J1H d   1     -13.104  10.548 -10.203  0.00  0.00     0.086 H 
ATOM     17  H23 J1H d   1     -11.736  12.568 -10.214  0.00  0.00     0.085 H 
BRANCH  12  18
ATOM     18  N20 J1H d   1     -15.158   9.990 -11.765  0.00  0.00    -0.378 N 
ATOM     19  C19 J1H d   1     -14.765   8.948 -10.866  0.00  0.00     0.018 C 
ATOM     20  C18 J1H d   1     -15.912   7.941 -10.658  0.00  0.00     0.098 C 
ATOM     21  H14 J1H d   1     -13.894   8.421 -11.284  0.00  0.00     0.066 H 
ATOM     22  H15 J1H d   1     -14.495   9.392  -9.896  0.00  0.00     0.066 H 
ATOM     23  N15 J1H d   1     -16.442   7.427 -11.981  0.00  0.00    -0.064 N 
ATOM     24  H12 J1H d   1     -15.540   7.091 -10.067  0.00  0.00     0.078 H 
ATOM     25  H13 J1H d   1     -16.729   8.437 -10.113  0.00  0.00     0.078 H 
ATOM     26  C16 J1H d   1     -16.971   8.576 -12.732  0.00  0.00     0.098 C 
ATOM     27  H11 J1H d   1     -15.701   6.978 -12.496  0.00  0.00     0.280 HD
ATOM     28  C17 J1H d   1     -15.888   9.624 -12.995  0.00  0.00     0.018 C 
ATOM     29  H16 J1H d   1     -17.782   9.039 -12.151  0.00  0.00     0.078 H 
ATOM     30  H17 J1H d   1     -17.366   8.221 -13.695  0.00  0.00     0.078 H 
ATOM     31  H18 J1H d   1     -16.361  10.527 -13.408  0.00  0.00     0.066 H 
ATOM     32  H19 J1H d   1     -15.172   9.218 -13.725  0.00  0.00     0.066 H 
BRANCH  23  33
ATOM     33  C14 J1H d   1     -17.598   6.442 -11.763  0.00  0.00     0.108 C 
ATOM     34  H9  J1H d   1     -18.431   6.953 -11.258  0.00  0.00     0.083 H 
ATOM     35  H10 J1H d   1     -17.941   6.051 -12.732  0.00  0.00     0.083 H 
BRANCH  33  36
ATOM     36  C13 J1H d   1     -17.114   5.335 -10.925  0.00  0.00    -0.021 A 
ATOM     37  C8  J1H d   1     -17.631   5.096  -9.684  0.00  0.00    -0.018 A 
ATOM     38  C9  J1H d   1     -17.124   4.004  -8.908  0.00  0.00    -0.072 A 
ATOM     39  C10 J1H d   1     -16.128   3.187  -9.376  0.00  0.00    -0.082 A 
ATOM     40  H5  J1H d   1     -17.539   3.819  -7.924  0.00  0.00     0.084 H 
ATOM     41  C11 J1H d   1     -15.606   3.432 -10.632  0.00  0.00    -0.082 A 
ATOM     42  H6  J1H d   1     -15.757   2.366  -8.774  0.00  0.00     0.083 H 
ATOM     43  C12 J1H d   1     -16.076   4.480 -11.407  0.00  0.00    -0.074 A 
ATOM     44  H7  J1H d   1     -14.818   2.795 -11.016  0.00  0.00     0.083 H 
ATOM     45  H8  J1H d   1     -15.652   4.653 -12.389  0.00  0.00     0.084 H 
BRANCH  37  46
ATOM     46  C7  J1H d   1     -18.698   5.840  -8.988  0.00  0.00    -0.025 A 
ATOM     47  C1  J1H d   1     -18.478   6.502  -7.775  0.00  0.00    -0.071 A 
ATOM     48  C2  J1H d   1     -19.525   7.177  -7.177  0.00  0.00    -0.061 A 
ATOM     49  H1  J1H d   1     -17.499   6.486  -7.310  0.00  0.00     0.084 H 
ATOM     50  C3  J1H d   1     -20.788   7.210  -7.757  0.00  0.00     0.034 A 
ATOM     51  H2  J1H d   1     -19.358   7.691  -6.237  0.00  0.00     0.086 H 
ATOM     52 CL4  J1H d   1     -22.126   8.076  -6.986  0.00  0.00    -0.084 Cl
ATOM     53  C5  J1H d   1     -21.013   6.553  -8.963  0.00  0.00    -0.061 A 
ATOM     54  C6  J1H d   1     -19.976   5.882  -9.558  0.00  0.00    -0.071 A 
ATOM     55  H3  J1H d   1     -21.993   6.572  -9.425  0.00  0.00     0.086 H 
ATOM     56  H4  J1H d   1     -20.151   5.369 -10.497  0.00  0.00     0.084 H 
ENDBRANCH  37  46
ENDBRANCH  33  36
ENDBRANCH  23  33
ENDBRANCH  12  18
ENDBRANCH   5   8
ENDBRANCH   1   4
BRANCH   1  57
ATOM     57  C33 J1H d   1     -11.429  17.324  -9.953  0.00  0.00     0.082 A 
ATOM     58  C34 J1H d   1     -11.796  17.246  -8.623  0.00  0.00    -0.026 A 
ATOM     59  C35 J1H d   1     -12.727  18.111  -8.100  0.00  0.00     0.130 A 
ATOM     60  H25 J1H d   1     -11.345  16.494  -7.985  0.00  0.00     0.089 H 
ATOM     61  C41 J1H d   1     -13.315  19.080  -8.895  0.00  0.00     0.061 A 
ATOM     62  C40 J1H d   1     -12.962  19.187 -10.260  0.00  0.00    -0.054 A 
ATOM     63  C39 J1H d   1     -12.012  18.305 -10.800  0.00  0.00    -0.058 A 
ATOM     64  H27 J1H d   1     -13.421  19.944 -10.885  0.00  0.00     0.087 H 
ATOM     65  H26 J1H d   1     -11.729  18.371 -11.844  0.00  0.00     0.086 H 
BRANCH  59  66
ATOM     66  N36 J1H d   1     -13.029  17.928  -6.683  0.00  0.00    -0.113 N 
ATOM     67  O38 J1H d   1     -12.429  17.073  -6.075  0.00  0.00    -0.532 OA
ATOM     68  O37 J1H d   1     -13.907  18.657  -6.101  0.00  0.00    -0.532 OA
ENDBRANCH  59  66
BRANCH  61  69
ATOM     69  N42 J1H d   1     -14.274  19.953  -8.301  0.00  0.00    -0.383 N 
ATOM     70  H28 J1H d   1     -14.456  19.872  -7.290  0.00  0.00     0.160 HD
BRANCH  69  71
ATOM     71  C43 J1H d   1     -14.972  20.906  -9.026  0.00  0.00     0.019 C 
ATOM     72  H29 J1H d   1     -14.270  21.496  -9.634  0.00  0.00     0.073 H 
BRANCH  71  73
ATOM     73  C44 J1H d   1     -15.676  21.836  -7.957  0.00  0.00    -0.023 C 
ATOM     74  H30 J1H d   1     -14.922  22.204  -7.245  0.00  0.00     0.038 H 
ATOM     75  H31 J1H d   1     -16.437  21.254  -7.417  0.00  0.00     0.038 H 
BRANCH  73  76
ATOM     76  C45 J1H d   1     -16.344  23.024  -8.640  0.00  0.00     0.087 C 
ATOM     77  H32 J1H d   1     -17.177  22.654  -9.255  0.00  0.00     0.076 H 
ATOM     78  H33 J1H d   1     -15.605  23.521  -9.285  0.00  0.00     0.076 H 
BRANCH  76  79
ATOM     79  N46 J1H d   1     -16.884  24.037  -7.649  0.00  0.00    -0.065 N 
BRANCH  79  80
ATOM     80  C47 J1H d   1     -17.628  23.339  -6.573  0.00  0.00     0.068 C 
ATOM     81  H34 J1H d   1     -18.017  24.078  -5.857  0.00  0.00     0.068 H 
ATOM     82  H35 J1H d   1     -16.953  22.644  -6.052  0.00  0.00     0.068 H 
ATOM     83  H36 J1H d   1     -18.466  22.777  -7.011  0.00  0.00     0.068 H 
ENDBRANCH  79  80
BRANCH  79  84
ATOM     84  C49 J1H d   1     -17.794  24.968  -8.356  0.00  0.00     0.068 C 
ATOM     85  H37 J1H d   1     -17.241  25.485  -9.154  0.00  0.00     0.068 H 
ATOM     86  H38 J1H d   1     -18.188  25.708  -7.644  0.00  0.00     0.068 H 
ATOM     87  H39 J1H d   1     -18.629  24.402  -8.796  0.00  0.00     0.068 H 
ENDBRANCH  79  84
BRANCH  79  88
ATOM     88  C48 J1H d   1     -15.786  24.781  -7.077  0.00  0.00     0.163 C 
ATOM     89  H40 J1H d   1     -15.260  24.163  -6.334  0.00  0.00     0.093 H 
ATOM     90  H41 J1H d   1     -16.163  25.695  -6.594  0.00  0.00     0.093 H 
BRANCH  88  91
ATOM     91  C58 J1H d   1     -14.840  25.146  -8.214  0.00  0.00     0.199 C 
ATOM     92  O60 J1H d   1     -13.736  24.603  -8.299  0.00  0.00    -0.647 OA
ATOM     93  O59 J1H d   1     -15.179  25.987  -9.054  0.00  0.00    -0.647 OA
ENDBRANCH  88  91
ENDBRANCH  79  88
ENDBRANCH  76  79
ENDBRANCH  73  76
ENDBRANCH  71  73
BRANCH  71  94
ATOM     94  C50 J1H d   1     -16.032  20.266  -9.965  0.00  0.00     0.000 C 
ATOM     95  H42 J1H d   1     -15.501  19.669 -10.721  0.00  0.00     0.052 H 
ATOM     96  H43 J1H d   1     -16.584  21.079 -10.460  0.00  0.00     0.052 H 
BRANCH  94  97
ATOM     97  S51 J1H d   1     -17.257  19.170  -9.128  0.00  0.00    -0.128 SA
BRANCH  97  98
ATOM     98  C52 J1H d   1     -16.399  17.588  -9.235  0.00  0.00     0.000 A 
ATOM     99  C53 J1H d   1     -16.028  17.064 -10.441  0.00  0.00    -0.067 A 
ATOM    100  C54 J1H d   1     -15.379  15.863 -10.476  0.00  0.00    -0.082 A 
ATOM    101  H44 J1H d   1     -16.246  17.596 -11.360  0.00  0.00     0.085 H 
ATOM    102  C55 J1H d   1     -15.101  15.183  -9.291  0.00  0.00    -0.083 A 
ATOM    103  H45 J1H d   1     -15.079  15.438 -11.427  0.00  0.00     0.083 H 
ATOM    104  C56 J1H d   1     -15.482  15.731  -8.120  0.00  0.00    -0.082 A 
ATOM    105  H46 J1H d   1     -14.587  14.229  -9.311  0.00  0.00     0.083 H 
ATOM    106  C57 J1H d   1     -16.114  16.900  -8.084  0.00  0.00    -0.067 A 
ATOM    107  H47 J1H d   1     -15.270  15.210  -7.193  0.00  0.00     0.083 H 
ATOM    108  H48 J1H d   1     -16.409  17.317  -7.128  0.00  0.00     0.085 H 
ENDBRANCH  97  98
ENDBRANCH  94  97
ENDBRANCH  71  94
ENDBRANCH  69  71
ENDBRANCH  61  69
ENDBRANCH   1  57
TORSDOF 20
