REMARK  19 active torsions:
REMARK  status: ('A' for Active; 'I' for Inactive)
REMARK    1  A    between atoms: C25_27  and  C17_9 
REMARK    2  A    between atoms: C20_10  and  N51_49 
REMARK    3  A    between atoms: S62_62  and  C21_11 
REMARK    4  A    between atoms: S64_64  and  C22_12 
REMARK    5  A    between atoms: C42_42  and  C26_14 
REMARK    6  A    between atoms: C27_28  and  C18_24 
REMARK    7  A    between atoms: C19_25  and  N48_48 
REMARK    8  A    between atoms: C23_26  and  S63_63 
REMARK       I    between atoms: N52_50  and  C27_28 
REMARK    9  A    between atoms: C39_39  and  C40_40 
REMARK   10  A    between atoms: C39_39  and  C41_41 
REMARK   11  A    between atoms: N49_51  and  C42_42 
REMARK   12  A    between atoms: C43_43  and  C44_44 
REMARK   13  A    between atoms: C46_46  and  C43_43 
REMARK   14  A    between atoms: C44_44  and  N50_52 
REMARK   15  A    between atoms: C46_46  and  C45_45 
REMARK   16  A    between atoms: C45_45  and  S62_62 
REMARK   17  A    between atoms: N51_49  and  C46_46 
REMARK   18  A    between atoms: S63_63  and  C47_47 
REMARK   19  A    between atoms: N52_50  and  S64_64 
ROOT
ATOM      1  C27 MOL d   1      -0.549   6.850   9.812  0.00  0.00     0.265 C 
ATOM      2  N52 MOL d   1      -1.660   7.459  10.073  0.00  0.00    -0.246 N 
ATOM      3  O53 MOL d   1       0.047   7.074   8.759  0.00  0.00    -0.267 OA
ATOM      4  H55 MOL d   1      -2.131   7.265  10.934  0.00  0.00     0.182 HD
ENDROOT
BRANCH   1   5
ATOM      5  C18 MOL d   1      -0.026   5.811  10.821  0.00  0.00     0.033 A 
ATOM      6  C6  MOL d   1       1.105   5.082  10.564  0.00  0.00    -0.066 A 
ATOM      7  C8  MOL d   1       1.563   4.149  11.519  0.00  0.00    -0.056 A 
ATOM      8  H3  MOL d   1       1.644   5.221   9.634  0.00  0.00     0.085 H 
ATOM      9  C19 MOL d   1       0.823   3.920  12.686  0.00  0.00     0.030 A 
ATOM     10  H5  MOL d   1       2.488   3.610  11.349  0.00  0.00     0.086 H 
ATOM     11  C9  MOL d   1      -0.290   4.677  12.951  0.00  0.00    -0.056 A 
ATOM     12  C7  MOL d   1      -0.751   5.578  12.003  0.00  0.00    -0.066 A 
ATOM     13  H14 MOL d   1      -0.807   4.571  13.898  0.00  0.00     0.086 H 
ATOM     14  H4  MOL d   1      -1.681   6.109  12.175  0.00  0.00     0.085 H 
BRANCH   9  15
ATOM     15  N48 MOL d   1       1.282   3.051  13.608  0.00  0.00    -0.378 N 
ATOM     16  C31 MOL d   1       2.700   2.656  13.560  0.00  0.00     0.018 C 
ATOM     17  C33 MOL d   1       2.865   1.255  14.167  0.00  0.00     0.098 C 
ATOM     18  H23 MOL d   1       3.042   2.645  12.514  0.00  0.00     0.066 H 
ATOM     19  H24 MOL d   1       3.300   3.377  14.134  0.00  0.00     0.066 H 
ATOM     20  N49 MOL d   1       2.289   1.226  15.542  0.00  0.00    -0.064 N 
ATOM     21  H27 MOL d   1       3.934   1.002  14.214  0.00  0.00     0.078 H 
ATOM     22  H28 MOL d   1       2.342   0.521  13.537  0.00  0.00     0.078 H 
ATOM     23  C34 MOL d   1       0.823   1.468  15.482  0.00  0.00     0.098 C 
ATOM     24  H56 MOL d   1       2.734   1.919  16.123  0.00  0.00     0.280 HD
ATOM     25  C32 MOL d   1       0.514   2.849  14.865  0.00  0.00     0.018 C 
ATOM     26  H29 MOL d   1       0.354   0.686  14.866  0.00  0.00     0.078 H 
ATOM     27  H30 MOL d   1       0.410   1.429  16.501  0.00  0.00     0.078 H 
ATOM     28  H25 MOL d   1       0.788   3.635  15.585  0.00  0.00     0.066 H 
ATOM     29  H26 MOL d   1      -0.562   2.913  14.644  0.00  0.00     0.066 H 
BRANCH  20  30
ATOM     30  C42 MOL d   1       2.504  -0.148  16.095  0.00  0.00     0.104 C 
ATOM     31  H45 MOL d   1       1.966  -0.880  15.474  0.00  0.00     0.083 H 
ATOM     32  H46 MOL d   1       3.579  -0.381  16.088  0.00  0.00     0.083 H 
BRANCH  30  33
ATOM     33  C26 MOL d   1       1.976  -0.216  17.538  0.00  0.00    -0.047 C 
ATOM     34  C25 MOL d   1       0.929  -1.076  17.852  0.00  0.00    -0.044 C 
ATOM     35  C28 MOL d   1       0.358  -1.140  19.300  0.00  0.00    -0.039 C 
ATOM     36  C30 MOL d   1       0.591   0.185  20.016  0.00  0.00    -0.055 C 
ATOM     37  H9  MOL d   1       0.862  -1.946  19.854  0.00  0.00     0.040 H 
ATOM     38  H10 MOL d   1      -0.722  -1.344  19.256  0.00  0.00     0.040 H 
ATOM     39  C39 MOL d   1       2.071   0.483  20.017  0.00  0.00    -0.044 C 
ATOM     40  H21 MOL d   1       0.227   0.115  21.052  0.00  0.00     0.034 H 
ATOM     41  H22 MOL d   1       0.052   0.988  19.492  0.00  0.00     0.034 H 
ATOM     42  C29 MOL d   1       2.529   0.835  18.596  0.00  0.00    -0.036 C 
ATOM     43  H19 MOL d   1       2.155   1.837  18.336  0.00  0.00     0.040 H 
ATOM     44  H20 MOL d   1       3.628   0.834  18.562  0.00  0.00     0.040 H 
BRANCH  34  45
ATOM     45  C17 MOL d   1       0.394  -2.077  16.830  0.00  0.00    -0.029 A 
ATOM     46  C4  MOL d   1      -0.943  -2.012  16.430  0.00  0.00    -0.071 A 
ATOM     47  C14 MOL d   1      -1.460  -2.968  15.575  0.00  0.00    -0.061 A 
ATOM     48  H1  MOL d   1      -1.577  -1.210  16.791  0.00  0.00     0.084 H 
ATOM     49  C24 MOL d   1      -0.644  -4.028  15.131  0.00  0.00     0.034 A 
ATOM     50  H17 MOL d   1      -2.491  -2.902  15.247  0.00  0.00     0.086 H 
ATOM     51  C15 MOL d   1       0.657  -4.137  15.587  0.00  0.00    -0.061 A 
ATOM     52 CL6  MOL d   1      -1.295  -5.246  14.106  0.00  0.00    -0.084 Cl
ATOM     53  C5  MOL d   1       1.176  -3.159  16.442  0.00  0.00    -0.071 A 
ATOM     54  H8  MOL d   1       1.272  -4.976  15.283  0.00  0.00     0.086 H 
ATOM     55  H2  MOL d   1       2.194  -3.245  16.804  0.00  0.00     0.084 H 
ENDBRANCH  34  45
BRANCH  39  56
ATOM     56  C40 MOL d   1       2.821  -0.724  20.481  0.00  0.00    -0.069 C 
ATOM     57  H39 MOL d   1       3.900  -0.508  20.482  0.00  0.00     0.028 H 
ATOM     58  H40 MOL d   1       2.617  -1.566  19.803  0.00  0.00     0.028 H 
ATOM     59  H41 MOL d   1       2.499  -0.987  21.499  0.00  0.00     0.028 H 
ENDBRANCH  39  56
BRANCH  39  60
ATOM     60  C41 MOL d   1       2.356   1.651  20.972  0.00  0.00    -0.069 C 
ATOM     61  H42 MOL d   1       1.806   2.542  20.635  0.00  0.00     0.028 H 
ATOM     62  H43 MOL d   1       3.435   1.866  20.977  0.00  0.00     0.028 H 
ATOM     63  H44 MOL d   1       2.031   1.382  21.988  0.00  0.00     0.028 H 
ENDBRANCH  39  60
ENDBRANCH  30  33
ENDBRANCH  20  30
ENDBRANCH   9  15
ENDBRANCH   1   5
BRANCH   2  64
ATOM     64  S64 MOL d   1      -2.274   8.470   9.098  0.00  0.00     0.265 S 
ATOM     65  O56 MOL d   1      -1.324   9.649   8.870  0.00  0.00    -0.200 OA
ATOM     66  O57 MOL d   1      -3.584   8.901   9.623  0.00  0.00    -0.200 OA
BRANCH  64  67
ATOM     67  C22 MOL d   1      -2.530   7.604   7.614  0.00  0.00     0.081 C 
ATOM     68  C13 MOL d   1      -1.668   7.781   6.515  0.00  0.00    -0.058 C 
ATOM     69  C10 MOL d   1      -1.951   7.145   5.297  0.00  0.00    -0.054 C 
ATOM     70  H7  MOL d   1      -0.788   8.407   6.610  0.00  0.00     0.086 H 
ATOM     71  C20 MOL d   1      -3.134   6.407   5.166  0.00  0.00     0.050 C 
ATOM     72  H6  MOL d   1      -1.260   7.224   4.465  0.00  0.00     0.087 H 
ATOM     73  C23 MOL d   1      -3.998   6.271   6.279  0.00  0.00     0.096 C 
ATOM     74  C16 MOL d   1      -3.730   6.932   7.448  0.00  0.00    -0.037 C 
ATOM     75  H18 MOL d   1      -4.461   6.929   8.248  0.00  0.00     0.088 H 
BRANCH  71  76
ATOM     76  N51 MOL d   1      -3.439   5.744   3.986  0.00  0.00    -0.383 N 
ATOM     77  H54 MOL d   1      -4.276   5.145   3.952  0.00  0.00     0.160 HD
BRANCH  76  78
ATOM     78  C46 MOL d   1      -2.610   5.870   2.793  0.00  0.00     0.019 C 
ATOM     79  H53 MOL d   1      -2.252   6.905   2.690  0.00  0.00     0.073 H 
BRANCH  78  80
ATOM     80  C43 MOL d   1      -3.499   5.476   1.520  0.00  0.00    -0.023 C 
ATOM     81  H47 MOL d   1      -3.728   4.401   1.565  0.00  0.00     0.038 H 
ATOM     82  H48 MOL d   1      -4.436   6.052   1.548  0.00  0.00     0.038 H 
BRANCH  80  83
ATOM     83  C44 MOL d   1      -2.777   5.772   0.207  0.00  0.00     0.086 C 
ATOM     84  H49 MOL d   1      -1.976   5.033   0.058  0.00  0.00     0.076 H 
ATOM     85  H50 MOL d   1      -2.341   6.781   0.252  0.00  0.00     0.076 H 
BRANCH  83  86
ATOM     86  N50 MOL d   1      -3.714   5.700  -0.912  0.00  0.00    -0.067 N 
ATOM     87  C35 MOL d   1      -4.050   4.280  -1.164  0.00  0.00     0.103 C 
ATOM     88  C37 MOL d   1      -4.986   4.172  -2.368  0.00  0.00     0.042 C 
ATOM     89  H31 MOL d   1      -3.127   3.718  -1.368  0.00  0.00     0.079 H 
ATOM     90  H32 MOL d   1      -4.547   3.860  -0.277  0.00  0.00     0.079 H 
ATOM     91  O58 MOL d   1      -4.409   4.826  -3.547  0.00  0.00    -0.388 OA
ATOM     92  H35 MOL d   1      -5.944   4.654  -2.123  0.00  0.00     0.076 H 
ATOM     93  H36 MOL d   1      -5.158   3.110  -2.595  0.00  0.00     0.076 H 
ATOM     94  C38 MOL d   1      -4.030   6.239  -3.272  0.00  0.00     0.042 C 
ATOM     95  C36 MOL d   1      -3.070   6.279  -2.110  0.00  0.00     0.103 C 
ATOM     96  H37 MOL d   1      -3.548   6.670  -4.162  0.00  0.00     0.076 H 
ATOM     97  H38 MOL d   1      -4.931   6.820  -3.025  0.00  0.00     0.076 H 
ATOM     98  H33 MOL d   1      -2.787   7.322  -1.905  0.00  0.00     0.079 H 
ATOM     99  H34 MOL d   1      -2.170   5.697  -2.359  0.00  0.00     0.079 H 
ATOM    100  H57 MOL d   1      -4.552   6.215  -0.693  0.00  0.00     0.280 HD
ENDBRANCH  83  86
ENDBRANCH  80  83
ENDBRANCH  78  80
BRANCH  78 101
ATOM    101  C45 MOL d   1      -1.396   4.909   2.923  0.00  0.00     0.000 C 
ATOM    102  H51 MOL d   1      -0.706   5.319   3.676  0.00  0.00     0.052 H 
ATOM    103  H52 MOL d   1      -0.887   4.857   1.949  0.00  0.00     0.052 H 
BRANCH 101 104
ATOM    104  S62 MOL d   1      -1.860   3.211   3.426  0.00  0.00    -0.128 SA
BRANCH 104 105
ATOM    105  C21 MOL d   1      -1.814   3.275   5.208  0.00  0.00     0.000 A 
ATOM    106  C11 MOL d   1      -2.843   2.655   5.945  0.00  0.00    -0.067 A 
ATOM    107  C2  MOL d   1      -2.819   2.661   7.327  0.00  0.00    -0.082 A 
ATOM    108  H15 MOL d   1      -3.660   2.169   5.424  0.00  0.00     0.085 H 
ATOM    109  C1  MOL d   1      -1.766   3.274   8.006  0.00  0.00    -0.083 A 
ATOM    110  H12 MOL d   1      -3.620   2.188   7.884  0.00  0.00     0.083 H 
ATOM    111  C3  MOL d   1      -0.718   3.873   7.279  0.00  0.00    -0.082 A 
ATOM    112  H11 MOL d   1      -1.754   3.289   9.090  0.00  0.00     0.083 H 
ATOM    113  C12 MOL d   1      -0.742   3.861   5.877  0.00  0.00    -0.067 A 
ATOM    114  H13 MOL d   1       0.106   4.343   7.803  0.00  0.00     0.083 H 
ATOM    115  H16 MOL d   1       0.071   4.306   5.316  0.00  0.00     0.085 H 
ENDBRANCH 104 105
ENDBRANCH 101 104
ENDBRANCH  78 101
ENDBRANCH  76  78
ENDBRANCH  71  76
BRANCH  73 116
ATOM    116  S63 MOL d   1      -5.491   5.501   6.128  0.00  0.00     0.278 S 
ATOM    117  O54 MOL d   1      -6.088   5.191   7.444  0.00  0.00    -0.213 OA
ATOM    118  O55 MOL d   1      -5.489   4.325   5.223  0.00  0.00    -0.213 OA
BRANCH 116 119
ATOM    119  C47 MOL d   1      -6.635   6.660   5.390  0.00  0.00     0.503 C 
ATOM    120  F59 MOL d   1      -6.917   7.634   6.285  0.00  0.00    -0.157 F 
ATOM    121  F60 MOL d   1      -6.022   7.212   4.302  0.00  0.00    -0.157 F 
ATOM    122  F61 MOL d   1      -7.766   6.037   5.045  0.00  0.00    -0.157 F 
ENDBRANCH 116 119
ENDBRANCH  73 116
ENDBRANCH  64  67
ENDBRANCH   2  64
TORSDOF 19
