REMARK  6 active torsions:
REMARK  status: ('A' for Active; 'I' for Inactive)
REMARK    1  A    between atoms: N3_6  and  N2_4 
REMARK       I    between atoms: N2_4  and  C10_14 
REMARK    2  A    between atoms: C9_13  and  C4_7 
REMARK    3  A    between atoms: C15_19  and  N4_8 
REMARK    4  A    between atoms: C10_14  and  C9_13 
REMARK    5  A    between atoms: C12_16  and  C11_15 
REMARK    6  A    between atoms: C16_20  and  O2_23 
ROOT
ATOM      1  N2  FKW d   1     -11.037 -16.587 -10.225  0.00  0.00    -0.247 N 
ATOM      2  C10 FKW d   1     -11.135 -17.825 -10.735  0.00  0.00     0.241 C 
ATOM      3  O1  FKW d   1     -10.135 -18.435 -11.090  0.00  0.00    -0.271 OA
ATOM      4  H4  FKW d   1     -10.141 -16.146 -10.176  0.00  0.00     0.192 HD
ENDROOT
BRANCH   2   5
ATOM      5  C9  FKW d   1     -12.513 -18.447 -10.807  0.00  0.00     0.037 C 
ATOM      6  H8  FKW d   1     -12.563 -19.248 -10.055  0.00  0.00     0.054 H 
ATOM      7  H9  FKW d   1     -13.250 -17.668 -10.562  0.00  0.00     0.054 H 
BRANCH   5   8
ATOM      8  C4  FKW d   1     -12.885 -19.035 -12.135  0.00  0.00    -0.021 A 
ATOM      9  C3  FKW d   1     -12.004 -19.748 -13.029  0.00  0.00    -0.001 A 
ATOM     10  C2  FKW d   1     -10.679 -20.138 -12.980  0.00  0.00    -0.070 A 
ATOM     11  C6  FKW d   1     -12.768 -20.025 -14.187  0.00  0.00     0.042 A 
ATOM     12  C1  FKW d   1     -10.107 -20.804 -14.059  0.00  0.00    -0.082 A 
ATOM     13  H3  FKW d   1     -10.084 -19.924 -12.099  0.00  0.00     0.084 H 
ATOM     14  C8  FKW d   1     -10.859 -21.092 -15.185  0.00  0.00    -0.081 A 
ATOM     15  H1  FKW d   1      -9.065 -21.100 -14.018  0.00  0.00     0.083 H 
ATOM     16  C7  FKW d   1     -12.187 -20.707 -15.263  0.00  0.00    -0.056 A 
ATOM     17  H7  FKW d   1     -10.404 -21.624 -16.013  0.00  0.00     0.083 H 
ATOM     18  H6  FKW d   1     -12.771 -20.931 -16.148  0.00  0.00     0.086 H 
ATOM     19  N1  FKW d   1     -14.013 -19.522 -14.000  0.00  0.00    -0.365 N 
ATOM     20  C5  FKW d   1     -14.094 -18.935 -12.772  0.00  0.00    -0.015 A 
ATOM     21  H2  FKW d   1     -14.782 -19.575 -14.683  0.00  0.00     0.165 HD
ATOM     22  H5  FKW d   1     -14.983 -18.460 -12.361  0.00  0.00     0.112 H 
ENDBRANCH   5   8
ENDBRANCH   2   5
BRANCH   1  23
ATOM     23  N3  FKW d   1     -12.149 -15.912  -9.768  0.00  0.00    -0.184 NA
ATOM     24  C11 FKW d   1     -12.127 -15.762  -8.501  0.00  0.00     0.032 C 
ATOM     25  H10 FKW d   1     -11.294 -16.190  -7.946  0.00  0.00     0.118 H 
BRANCH  24  26
ATOM     26  C12 FKW d   1     -13.156 -15.050  -7.759  0.00  0.00    -0.014 A 
ATOM     27  C13 FKW d   1     -12.764 -14.518  -6.538  0.00  0.00    -0.069 A 
ATOM     28  C14 FKW d   1     -13.530 -13.589  -5.892  0.00  0.00    -0.047 A 
ATOM     29  H11 FKW d   1     -11.833 -14.846  -6.089  0.00  0.00     0.085 H 
ATOM     30  C15 FKW d   1     -14.725 -13.193  -6.441  0.00  0.00     0.136 A 
ATOM     31  H12 FKW d   1     -13.196 -13.167  -4.951  0.00  0.00     0.087 H 
ATOM     32  C16 FKW d   1     -15.228 -13.799  -7.614  0.00  0.00     0.099 A 
ATOM     33  C17 FKW d   1     -14.424 -14.726  -8.252  0.00  0.00    -0.037 A 
ATOM     34  H13 FKW d   1     -14.784 -15.211  -9.152  0.00  0.00     0.089 H 
BRANCH  30  35
ATOM     35  N4  FKW d   1     -15.343 -12.022  -5.874  0.00  0.00    -0.113 N 
ATOM     36  O3  FKW d   1     -16.561 -11.987  -5.772  0.00  0.00    -0.532 OA
ATOM     37  O4  FKW d   1     -14.610 -11.107  -5.544  0.00  0.00    -0.532 OA
ENDBRANCH  30  35
BRANCH  32  38
ATOM     38  O2  FKW d   1     -16.445 -13.473  -8.133  0.00  0.00    -0.358 OA
ATOM     39  H14 FKW d   1     -16.863 -12.827  -7.576  0.00  0.00     0.217 HD
ENDBRANCH  32  38
ENDBRANCH  24  26
ENDBRANCH   1  23
TORSDOF 6
