REMARK  15 active torsions:
REMARK  status: ('A' for Active; 'I' for Inactive)
REMARK    1  A    between atoms: C1_1  and  C2_4 
REMARK    2  A    between atoms: C2_4  and  C3_5 
REMARK    3  A    between atoms: C3_5  and  C4_6 
REMARK    4  A    between atoms: C4_6  and  C5_7 
REMARK    5  A    between atoms: C5_7  and  C6_8 
REMARK    6  A    between atoms: C6_8  and  C7_9 
REMARK    7  A    between atoms: C7_9  and  C8_10 
REMARK    8  A    between atoms: C8_10  and  C9_11 
REMARK    9  A    between atoms: C9_11  and  CA_12 
REMARK   10  A    between atoms: CA_12  and  CB_13 
REMARK   11  A    between atoms: CB_13  and  CC_14 
REMARK   12  A    between atoms: CC_14  and  CD_15 
REMARK   13  A    between atoms: CD_15  and  CE_16 
REMARK   14  A    between atoms: CE_16  and  CF_17 
REMARK   15  A    between atoms: CF_17  and  CG_18 
ROOT
ATOM      1  C9  PLM d   1      -7.393  -7.169 -18.593  0.00  0.00    -0.065 C 
ATOM      2  H15 PLM d   1      -6.988  -7.112 -19.614  0.00  0.00     0.033 H 
ATOM      3  H16 PLM d   1      -8.170  -6.401 -18.463  0.00  0.00     0.033 H 
ENDROOT
BRANCH   1   4
ATOM      4  C8  PLM d   1      -6.291  -6.885 -17.637  0.00  0.00    -0.065 C 
ATOM      5  H13 PLM d   1      -6.581  -6.023 -17.018  0.00  0.00     0.033 H 
ATOM      6  H14 PLM d   1      -6.152  -7.767 -16.995  0.00  0.00     0.033 H 
BRANCH   4   7
ATOM      7  C7  PLM d   1      -4.990  -6.574 -18.299  0.00  0.00    -0.065 C 
ATOM      8  H11 PLM d   1      -4.384  -7.492 -18.320  0.00  0.00     0.033 H 
ATOM      9  H12 PLM d   1      -5.195  -6.246 -19.329  0.00  0.00     0.033 H 
BRANCH   7  10
ATOM     10  C6  PLM d   1      -4.198  -5.502 -17.611  0.00  0.00    -0.065 C 
ATOM     11  H9  PLM d   1      -4.720  -5.225 -16.683  0.00  0.00     0.033 H 
ATOM     12  H10 PLM d   1      -3.205  -5.907 -17.366  0.00  0.00     0.033 H 
BRANCH  10  13
ATOM     13  C5  PLM d   1      -4.014  -4.262 -18.440  0.00  0.00    -0.065 C 
ATOM     14  H7  PLM d   1      -2.971  -4.228 -18.787  0.00  0.00     0.033 H 
ATOM     15  H8  PLM d   1      -4.687  -4.321 -19.308  0.00  0.00     0.033 H 
BRANCH  13  16
ATOM     16  C4  PLM d   1      -4.310  -2.985 -17.693  0.00  0.00    -0.065 C 
ATOM     17  H5  PLM d   1      -5.390  -2.790 -17.761  0.00  0.00     0.033 H 
ATOM     18  H6  PLM d   1      -4.029  -3.131 -16.639  0.00  0.00     0.033 H 
BRANCH  16  19
ATOM     19  C3  PLM d   1      -3.576  -1.768 -18.214  0.00  0.00    -0.056 C 
ATOM     20  H3  PLM d   1      -3.950  -1.535 -19.222  0.00  0.00     0.033 H 
ATOM     21  H4  PLM d   1      -3.778  -0.920 -17.543  0.00  0.00     0.033 H 
BRANCH  19  22
ATOM     22  C2  PLM d   1      -2.099  -1.979 -18.288  0.00  0.00     0.016 C 
ATOM     23  H1  PLM d   1      -1.910  -3.062 -18.276  0.00  0.00     0.049 H 
ATOM     24  H2  PLM d   1      -1.742  -1.554 -19.238  0.00  0.00     0.049 H 
BRANCH  22  25
ATOM     25  C1  PLM d   1      -1.296  -1.350 -17.162  0.00  0.00     0.172 C 
ATOM     26  O1  PLM d   1      -1.800  -0.406 -16.529  0.00  0.00    -0.648 OA
ATOM     27  O2  PLM d   1      -0.166  -1.810 -16.917  0.00  0.00    -0.648 OA
ENDBRANCH  22  25
ENDBRANCH  19  22
ENDBRANCH  16  19
ENDBRANCH  13  16
ENDBRANCH  10  13
ENDBRANCH   7  10
ENDBRANCH   4   7
ENDBRANCH   1   4
BRANCH   1  28
ATOM     28  CA  PLM d   1      -8.021  -8.501 -18.415  0.00  0.00    -0.065 C 
ATOM     29  H17 PLM d   1      -7.715  -8.900 -17.437  0.00  0.00     0.033 H 
ATOM     30  H18 PLM d   1      -7.657  -9.165 -19.212  0.00  0.00     0.033 H 
BRANCH  28  31
ATOM     31  CB  PLM d   1      -9.516  -8.477 -18.468  0.00  0.00    -0.065 C 
ATOM     32  H19 PLM d   1      -9.832  -7.638 -19.105  0.00  0.00     0.033 H 
ATOM     33  H20 PLM d   1      -9.902  -8.330 -17.449  0.00  0.00     0.033 H 
BRANCH  31  34
ATOM     34  CC  PLM d   1     -10.088  -9.730 -19.016  0.00  0.00    -0.065 C 
ATOM     35  H21 PLM d   1      -9.889 -10.546 -18.306  0.00  0.00     0.033 H 
ATOM     36  H22 PLM d   1      -9.597  -9.950 -19.975  0.00  0.00     0.033 H 
BRANCH  34  37
ATOM     37  CD  PLM d   1     -11.547  -9.648 -19.242  0.00  0.00    -0.065 C 
ATOM     38  H23 PLM d   1     -11.721  -9.238 -20.248  0.00  0.00     0.033 H 
ATOM     39  H24 PLM d   1     -11.978  -8.970 -18.490  0.00  0.00     0.033 H 
BRANCH  37  40
ATOM     40  CE  PLM d   1     -12.238 -10.962 -19.143  0.00  0.00    -0.065 C 
ATOM     41  H25 PLM d   1     -13.164 -10.829 -18.565  0.00  0.00     0.033 H 
ATOM     42  H26 PLM d   1     -11.577 -11.667 -18.619  0.00  0.00     0.033 H 
BRANCH  40  43
ATOM     43  CF  PLM d   1     -12.584 -11.532 -20.461  0.00  0.00    -0.069 C 
ATOM     44  H27 PLM d   1     -11.667 -11.899 -20.944  0.00  0.00     0.032 H 
ATOM     45  H28 PLM d   1     -13.037 -10.746 -21.083  0.00  0.00     0.032 H 
BRANCH  43  46
ATOM     46  CG  PLM d   1     -13.552 -12.666 -20.326  0.00  0.00    -0.077 C 
ATOM     47  H29 PLM d   1     -13.788 -13.067 -21.323  0.00  0.00     0.027 H 
ATOM     48  H30 PLM d   1     -14.475 -12.306 -19.848  0.00  0.00     0.027 H 
ATOM     49  H31 PLM d   1     -13.104 -13.459 -19.709  0.00  0.00     0.027 H 
ENDBRANCH  43  46
ENDBRANCH  40  43
ENDBRANCH  37  40
ENDBRANCH  34  37
ENDBRANCH  31  34
ENDBRANCH  28  31
ENDBRANCH   1  28
TORSDOF 15
