REMARK  6 active torsions:
REMARK  status: ('A' for Active; 'I' for Inactive)
REMARK    1  A    between atoms: C5_3  and  S7_4 
REMARK    2  A    between atoms: S7_4  and  N23_6 
REMARK    3  A    between atoms: C2_14  and  S14_15 
REMARK    4  A    between atoms: S14_15  and  C15_16 
REMARK    5  A    between atoms: C19_18  and  C21_19 
REMARK    6  A    between atoms: C17_21  and  C22_23 
ROOT
ATOM      1  F13 V50 d   1      14.801   5.481  16.208  0.00  0.00    -0.201 F 
ATOM      2  C4  V50 d   1      15.439   4.875  15.211  0.00  0.00     0.182 A 
ATOM      3  C5  V50 d   1      15.800   3.529  15.361  0.00  0.00     0.162 A 
ATOM      4  C6  V50 d   1      16.511   2.947  14.278  0.00  0.00     0.182 A 
ATOM      5  F11 V50 d   1      16.868   1.685  14.237  0.00  0.00    -0.201 F 
ATOM      6  C1  V50 d   1      16.825   3.661  13.142  0.00  0.00     0.176 A 
ATOM      7  F10 V50 d   1      17.491   3.061  12.151  0.00  0.00    -0.201 F 
ATOM      8  C3  V50 d   1      15.816   5.572  14.061  0.00  0.00     0.176 A 
ATOM      9  F12 V50 d   1      15.449   6.835  13.846  0.00  0.00    -0.201 F 
ATOM     10  C2  V50 d   1      16.426   4.960  13.020  0.00  0.00     0.092 A 
ENDROOT
BRANCH  10  11
ATOM     11  S14 V50 d   1      16.819   5.822  11.532  0.00  0.00    -0.044 SA
BRANCH  11  12
ATOM     12  C15 V50 d   1      17.479   7.365  12.073  0.00  0.00     0.194 A 
ATOM     13  N20 V50 d   1      17.164   8.327  11.230  0.00  0.00    -0.228 NA
ATOM     14  C19 V50 d   1      17.678   9.542  11.524  0.00  0.00     0.035 A 
ATOM     15  C18 V50 d   1      18.425   9.835  12.613  0.00  0.00    -0.036 A 
ATOM     16  C17 V50 d   1      18.703   8.760  13.375  0.00  0.00     0.035 A 
ATOM     17  H6  V50 d   1      18.766  10.836  12.849  0.00  0.00     0.089 H 
ATOM     18  N16 V50 d   1      18.267   7.496  13.135  0.00  0.00    -0.228 NA
BRANCH  14  19
ATOM     19  C21 V50 d   1      17.330  10.665  10.601  0.00  0.00    -0.035 C 
ATOM     20  H3  V50 d   1      17.809  11.591  10.953  0.00  0.00     0.035 H 
ATOM     21  H4  V50 d   1      16.239  10.801  10.584  0.00  0.00     0.035 H 
ATOM     22  H5  V50 d   1      17.686  10.430   9.587  0.00  0.00     0.035 H 
ENDBRANCH  14  19
BRANCH  16  23
ATOM     23  C22 V50 d   1      19.547   8.995  14.591  0.00  0.00    -0.035 C 
ATOM     24  H7  V50 d   1      19.699   8.043  15.121  0.00  0.00     0.035 H 
ATOM     25  H8  V50 d   1      19.040   9.709  15.257  0.00  0.00     0.035 H 
ATOM     26  H9  V50 d   1      20.521   9.405  14.287  0.00  0.00     0.035 H 
ENDBRANCH  16  23
ENDBRANCH  11  12
ENDBRANCH  10  11
BRANCH   3  27
ATOM     27  S7  V50 d   1      15.306   2.639  16.799  0.00  0.00     0.263 S 
ATOM     28  O9  V50 d   1      13.868   2.812  16.838  0.00  0.00    -0.201 OA
ATOM     29  O8  V50 d   1      16.032   3.155  17.912  0.00  0.00    -0.201 OA
BRANCH  27  30
ATOM     30  N23 V50 d   1      15.531   1.073  16.587  0.00  0.00    -0.324 N 
ATOM     31  H1  V50 d   1      15.297   0.431  17.317  0.00  0.00     0.169 HD
ATOM     32  H2  V50 d   1      15.906   0.734  15.724  0.00  0.00     0.169 HD
ENDBRANCH  27  30
ENDBRANCH   3  27
TORSDOF 6
