REMARK  5 active torsions:
REMARK  status: ('A' for Active; 'I' for Inactive)
REMARK    1  A    between atoms: S1_9  and  N1_1 
REMARK    2  A    between atoms: C5_5  and  O3_15 
REMARK    3  A    between atoms: O3_15  and  C8_6 
REMARK    4  A    between atoms: C8_6  and  C9_16 
REMARK    5  A    between atoms: C1_10  and  S1_9 
ROOT
ATOM      1  C2  EZL d   1      17.822   5.207  15.235  0.00  0.00     0.076 A 
ATOM      2  C3  EZL d   1      16.773   5.985  14.846  0.00  0.00     0.039 A 
ATOM      3  C4  EZL d   1      16.952   7.208  14.153  0.00  0.00    -0.032 A 
ATOM      4  C5  EZL d   1      18.308   7.535  13.896  0.00  0.00     0.070 A 
ATOM      5  C1  EZL d   1      16.153   3.970  16.005  0.00  0.00     0.214 A 
ATOM      6  N2  EZL d   1      17.489   4.028  15.909  0.00  0.00    -0.227 NA
ATOM      7  S2  EZL d   1      15.326   5.235  15.333  0.00  0.00    -0.054 SA
ATOM      8  C6  EZL d   1      19.372   6.718  14.269  0.00  0.00    -0.049 A 
ATOM      9  C7  EZL d   1      19.183   5.558  14.972  0.00  0.00    -0.051 A 
ATOM     10  H3  EZL d   1      16.125   7.838  13.846  0.00  0.00     0.090 H 
ATOM     11  H6  EZL d   1      20.380   7.009  13.995  0.00  0.00     0.087 H 
ATOM     12  H7  EZL d   1      20.012   4.945  15.307  0.00  0.00     0.087 H 
ENDROOT
BRANCH   4  13
ATOM     13  O3  EZL d   1      18.628   8.701  13.188  0.00  0.00    -0.351 OA
BRANCH  13  14
ATOM     14  C8  EZL d   1      17.582   9.556  12.720  0.00  0.00     0.023 C 
ATOM     15  H4  EZL d   1      17.033   9.996  13.566  0.00  0.00     0.074 H 
ATOM     16  H5  EZL d   1      16.883   8.998  12.079  0.00  0.00     0.074 H 
BRANCH  14  17
ATOM     17  C9  EZL d   1      18.304  10.653  11.911  0.00  0.00    -0.056 C 
ATOM     18  H8  EZL d   1      17.563  11.361  11.511  0.00  0.00     0.030 H 
ATOM     19  H9  EZL d   1      18.857  10.192  11.079  0.00  0.00     0.030 H 
ATOM     20  H10 EZL d   1      19.007  11.189  12.566  0.00  0.00     0.030 H 
ENDBRANCH  14  17
ENDBRANCH  13  14
ENDBRANCH   4  13
BRANCH   5  21
ATOM     21  S1  EZL d   1      15.392   2.612  16.867  0.00  0.00     0.281 S 
ATOM     22  O1  EZL d   1      13.993   2.846  16.601  0.00  0.00    -0.199 OA
ATOM     23  O2  EZL d   1      15.844   2.714  18.254  0.00  0.00    -0.199 OA
BRANCH  21  24
ATOM     24  N1  EZL d   1      15.863   1.230  16.166  0.00  0.00    -0.323 N 
ATOM     25  H1  EZL d   1      15.616   1.042  15.216  0.00  0.00     0.169 HD
ATOM     26  H2  EZL d   1      16.401   0.565  16.684  0.00  0.00     0.169 HD
ENDBRANCH  21  24
ENDBRANCH   5  21
TORSDOF 5
