REMARK  9 active torsions:
REMARK  status: ('A' for Active; 'I' for Inactive)
REMARK    1  A    between atoms: C19_19  and  C20_1 
REMARK    2  A    between atoms: C02_7  and  C01_6 
REMARK    3  A    between atoms: S08_30  and  C07_12 
REMARK    4  A    between atoms: C09_13  and  S08_30 
REMARK    5  A    between atoms: C11_14  and  C12_15 
REMARK    6  A    between atoms: C12_15  and  O13_27 
REMARK    7  A    between atoms: C14_16  and  O15_28 
REMARK    8  A    between atoms: N17_23  and  C16_17 
REMARK    9  A    between atoms: C29_21  and  O30_29 
ROOT
ATOM      1  C09 J5Q d   1     -19.724   8.774  -1.747  0.00  0.00     0.114 C 
ATOM      2  C11 J5Q d   1     -19.658   6.563  -0.925  0.00  0.00     0.087 C 
ATOM      3  C14 J5Q d   1     -18.172   6.705  -0.591  0.00  0.00     0.086 C 
ATOM      4  C16 J5Q d   1     -17.572   7.727  -1.563  0.00  0.00     0.090 C 
ATOM      5  C29 J5Q d   1     -18.259   9.090  -1.459  0.00  0.00     0.093 C 
ATOM      6  O10 J5Q d   1     -20.282   7.868  -0.800  0.00  0.00    -0.362 OA
ATOM      7  H11 J5Q d   1     -19.777   8.314  -2.745  0.00  0.00     0.105 H 
ATOM      8  H12 J5Q d   1     -19.760   6.192  -1.955  0.00  0.00     0.090 H 
ATOM      9  H15 J5Q d   1     -17.673   5.735  -0.733  0.00  0.00     0.090 H 
ATOM     10  H16 J5Q d   1     -17.746   7.347  -2.581  0.00  0.00     0.084 H 
ATOM     11  H19 J5Q d   1     -18.110   9.570  -0.481  0.00  0.00     0.091 H 
ENDROOT
BRANCH   4  12
ATOM     12  N17 J5Q d   1     -16.154   7.863  -1.391  0.00  0.00    -0.250 N 
ATOM     13  C18 J5Q d   1     -15.444   8.255  -0.268  0.00  0.00     0.031 A 
ATOM     14  C19 J5Q d   1     -14.111   8.193  -0.619  0.00  0.00     0.108 A 
ATOM     15  H17 J5Q d   1     -15.854   8.552   0.696  0.00  0.00     0.118 H 
ATOM     16  N27 J5Q d   1     -14.100   7.782  -1.952  0.00  0.00    -0.130 NA
ATOM     17  N28 J5Q d   1     -15.280   7.571  -2.390  0.00  0.00    -0.065 NA
BRANCH  14  18
ATOM     18  C20 J5Q d   1     -12.936   8.481   0.166  0.00  0.00    -0.001 A 
ATOM     19  C21 J5Q d   1     -12.964   8.508   1.563  0.00  0.00    -0.034 A 
ATOM     20  C22 J5Q d   1     -11.808   8.752   2.236  0.00  0.00     0.117 A 
ATOM     21  H1  J5Q d   1     -13.890   8.338   2.100  0.00  0.00     0.089 H 
ATOM     22  C24 J5Q d   1     -10.580   8.952   1.680  0.00  0.00    -0.046 A 
ATOM     23  F23 J5Q d   1     -11.874   8.759   3.619  0.00  0.00    -0.206 F 
ATOM     24  C25 J5Q d   1     -10.538   8.902   0.299  0.00  0.00    -0.079 A 
ATOM     25  H2  J5Q d   1      -9.696   9.138   2.280  0.00  0.00     0.088 H 
ATOM     26  C26 J5Q d   1     -11.688   8.672  -0.440  0.00  0.00    -0.070 A 
ATOM     27  H18 J5Q d   1      -9.593   9.045  -0.213  0.00  0.00     0.083 H 
ATOM     28  H3  J5Q d   1     -11.619   8.639  -1.521  0.00  0.00     0.084 H 
ENDBRANCH  14  18
ENDBRANCH   4  12
BRANCH   3  29
ATOM     29  O15 J5Q d   1     -18.002   7.096   0.712  0.00  0.00    -0.391 OA
ATOM     30  H21 J5Q d   1     -17.074   7.181   0.897  0.00  0.00     0.210 HD
ENDBRANCH   3  29
BRANCH   5  31
ATOM     31  O30 J5Q d   1     -17.780   9.885  -2.516  0.00  0.00    -0.390 OA
ATOM     32  H22 J5Q d   1     -17.989   9.469  -3.344  0.00  0.00     0.210 HD
ENDBRANCH   5  31
BRANCH   2  33
ATOM     33  C12 J5Q d   1     -20.393   5.614   0.029  0.00  0.00     0.043 C 
ATOM     34  H13 J5Q d   1     -20.339   6.018   1.051  0.00  0.00     0.078 H 
ATOM     35  H14 J5Q d   1     -19.909   4.627  -0.001  0.00  0.00     0.078 H 
BRANCH  33  36
ATOM     36  O13 J5Q d   1     -21.739   5.476  -0.340  0.00  0.00    -0.398 OA
ATOM     37  H20 J5Q d   1     -22.163   6.326  -0.312  0.00  0.00     0.209 HD
ENDBRANCH  33  36
ENDBRANCH   2  33
BRANCH   1  38
ATOM     38  S08 J5Q d   1     -20.738  10.254  -1.743  0.00  0.00    -0.095 SA
BRANCH  38  39
ATOM     39  C07 J5Q d   1     -22.073   9.919  -2.858  0.00  0.00     0.003 A 
ATOM     40  C04 J5Q d   1     -22.445   8.610  -3.150  0.00  0.00    -0.066 A 
ATOM     41  C03 J5Q d   1     -23.471   8.327  -4.046  0.00  0.00    -0.076 A 
ATOM     42  H8  J5Q d   1     -21.923   7.792  -2.668  0.00  0.00     0.085 H 
ATOM     43  C02 J5Q d   1     -24.183   9.320  -4.698  0.00  0.00    -0.062 A 
ATOM     44  H7  J5Q d   1     -23.723   7.291  -4.241  0.00  0.00     0.084 H 
ATOM     45  C05 J5Q d   1     -23.797  10.627  -4.394  0.00  0.00    -0.076 A 
ATOM     46  C06 J5Q d   1     -22.770  10.919  -3.505  0.00  0.00    -0.066 A 
ATOM     47  H9  J5Q d   1     -24.320  11.448  -4.871  0.00  0.00     0.084 H 
ATOM     48  H10 J5Q d   1     -22.511  11.954  -3.316  0.00  0.00     0.085 H 
BRANCH  43  49
ATOM     49  C01 J5Q d   1     -25.282   9.000  -5.642  0.00  0.00    -0.051 C 
ATOM     50  H4  J5Q d   1     -25.396   7.908  -5.715  0.00  0.00     0.033 H 
ATOM     51  H5  J5Q d   1     -25.045   9.412  -6.634  0.00  0.00     0.033 H 
ATOM     52  H6  J5Q d   1     -26.220   9.443  -5.276  0.00  0.00     0.033 H 
ENDBRANCH  43  49
ENDBRANCH  38  39
ENDBRANCH   1  38
TORSDOF 9
