REMARK  9 active torsions:
REMARK  status: ('A' for Active; 'I' for Inactive)
REMARK    1  A    between atoms: C19_19  and  C20_1 
REMARK    2  A    between atoms: C02_7  and  C01_6 
REMARK    3  A    between atoms: S08_31  and  C07_12 
REMARK    4  A    between atoms: C09_13  and  S08_31 
REMARK    5  A    between atoms: C11_14  and  C12_15 
REMARK    6  A    between atoms: C12_15  and  O13_28 
REMARK    7  A    between atoms: C14_16  and  O15_29 
REMARK    8  A    between atoms: N17_24  and  C16_17 
REMARK    9  A    between atoms: C30_21  and  O31_30 
ROOT
ATOM      1  C09 J5E d   1     -19.767   8.709  -1.624  0.00  0.00     0.114 C 
ATOM      2  C11 J5E d   1     -19.666   6.461  -0.860  0.00  0.00     0.087 C 
ATOM      3  C14 J5E d   1     -18.192   6.617  -0.569  0.00  0.00     0.086 C 
ATOM      4  C16 J5E d   1     -17.619   7.680  -1.525  0.00  0.00     0.090 C 
ATOM      5  C30 J5E d   1     -18.298   9.030  -1.395  0.00  0.00     0.093 C 
ATOM      6  O10 J5E d   1     -20.289   7.737  -0.752  0.00  0.00    -0.362 OA
ATOM      7  H10 J5E d   1     -19.810   8.255  -2.625  0.00  0.00     0.105 H 
ATOM      8  H11 J5E d   1     -19.772   6.103  -1.895  0.00  0.00     0.090 H 
ATOM      9  H14 J5E d   1     -17.680   5.657  -0.734  0.00  0.00     0.090 H 
ATOM     10  H15 J5E d   1     -17.798   7.323  -2.550  0.00  0.00     0.084 H 
ATOM     11  H18 J5E d   1     -18.118   9.484  -0.409  0.00  0.00     0.091 H 
ENDROOT
BRANCH   4  12
ATOM     12  N17 J5E d   1     -16.184   7.819  -1.352  0.00  0.00    -0.250 N 
ATOM     13  C18 J5E d   1     -15.448   8.228  -0.236  0.00  0.00     0.031 A 
ATOM     14  C19 J5E d   1     -14.118   8.206  -0.534  0.00  0.00     0.108 A 
ATOM     15  H16 J5E d   1     -15.872   8.519   0.724  0.00  0.00     0.118 H 
ATOM     16  N28 J5E d   1     -14.088   7.756  -1.858  0.00  0.00    -0.130 NA
ATOM     17  N29 J5E d   1     -15.276   7.543  -2.309  0.00  0.00    -0.065 NA
BRANCH  14  18
ATOM     18  C20 J5E d   1     -12.954   8.494   0.238  0.00  0.00    -0.001 A 
ATOM     19  C21 J5E d   1     -12.985   8.534   1.586  0.00  0.00    -0.030 A 
ATOM     20  C22 J5E d   1     -11.894   8.776   2.362  0.00  0.00     0.155 A 
ATOM     21  H1  J5E d   1     -13.935   8.363   2.080  0.00  0.00     0.089 H 
ATOM     22  C24 J5E d   1     -10.610   8.998   1.764  0.00  0.00     0.154 A 
ATOM     23  F23 J5E d   1     -11.984   8.792   3.658  0.00  0.00    -0.203 F 
ATOM     24  C26 J5E d   1     -10.550   8.966   0.385  0.00  0.00    -0.042 A 
ATOM     25  F25 J5E d   1      -9.582   9.237   2.498  0.00  0.00    -0.203 F 
ATOM     26  C27 J5E d   1     -11.687   8.707  -0.346  0.00  0.00    -0.068 A 
ATOM     27  H2  J5E d   1      -9.608   9.145  -0.121  0.00  0.00     0.088 H 
ATOM     28  H17 J5E d   1     -11.605   8.664  -1.426  0.00  0.00     0.085 H 
ENDBRANCH  14  18
ENDBRANCH   4  12
BRANCH   3  29
ATOM     29  O15 J5E d   1     -18.003   7.020   0.757  0.00  0.00    -0.391 OA
ATOM     30  H20 J5E d   1     -17.074   7.126   0.925  0.00  0.00     0.210 HD
ENDBRANCH   3  29
BRANCH   5  31
ATOM     31  O31 J5E d   1     -17.878   9.893  -2.433  0.00  0.00    -0.390 OA
ATOM     32  H21 J5E d   1     -18.105   9.511  -3.272  0.00  0.00     0.210 HD
ENDBRANCH   5  31
BRANCH   2  33
ATOM     33  C12 J5E d   1     -20.354   5.477   0.037  0.00  0.00     0.043 C 
ATOM     34  H12 J5E d   1     -20.268   5.815   1.080  0.00  0.00     0.078 H 
ATOM     35  H13 J5E d   1     -19.875   4.492  -0.070  0.00  0.00     0.078 H 
BRANCH  33  36
ATOM     36  O13 J5E d   1     -21.705   5.371  -0.302  0.00  0.00    -0.398 OA
ATOM     37  H19 J5E d   1     -22.121   6.220  -0.208  0.00  0.00     0.209 HD
ENDBRANCH  33  36
ENDBRANCH   2  33
BRANCH   1  38
ATOM     38  S08 J5E d   1     -20.807  10.176  -1.713  0.00  0.00    -0.095 SA
BRANCH  38  39
ATOM     39  C07 J5E d   1     -22.138   9.838  -2.887  0.00  0.00     0.003 A 
ATOM     40  C04 J5E d   1     -22.846  10.879  -3.504  0.00  0.00    -0.066 A 
ATOM     41  C03 J5E d   1     -23.891  10.618  -4.434  0.00  0.00    -0.076 A 
ATOM     42  H7  J5E d   1     -22.592  11.906  -3.267  0.00  0.00     0.085 H 
ATOM     43  C02 J5E d   1     -24.264   9.299  -4.802  0.00  0.00    -0.062 A 
ATOM     44  H6  J5E d   1     -24.420  11.455  -4.876  0.00  0.00     0.084 H 
ATOM     45  C05 J5E d   1     -23.536   8.272  -4.177  0.00  0.00    -0.076 A 
ATOM     46  C06 J5E d   1     -22.502   8.531  -3.247  0.00  0.00    -0.066 A 
ATOM     47  H8  J5E d   1     -23.776   7.242  -4.417  0.00  0.00     0.084 H 
ATOM     48  H9  J5E d   1     -21.976   7.696  -2.799  0.00  0.00     0.085 H 
BRANCH  43  49
ATOM     49  C01 J5E d   1     -25.394   9.023  -5.805  0.00  0.00    -0.051 C 
ATOM     50  H3  J5E d   1     -25.812   9.977  -6.158  0.00  0.00     0.033 H 
ATOM     51  H4  J5E d   1     -26.184   8.435  -5.315  0.00  0.00     0.033 H 
ATOM     52  H5  J5E d   1     -24.995   8.459  -6.661  0.00  0.00     0.033 H 
ENDBRANCH  43  49
ENDBRANCH  38  39
ENDBRANCH   1  38
TORSDOF 9
