REMARK  9 active torsions:
REMARK  status: ('A' for Active; 'I' for Inactive)
REMARK    1  A    between atoms: C09_13  and  C10_1 
REMARK    2  A    between atoms: C10_1  and  O11_29 
REMARK    3  A    between atoms: C17_2  and  C18_17 
REMARK    4  A    between atoms: C02_8  and  C01_7 
REMARK    5  A    between atoms: S06_32  and  C05_11 
REMARK    6  A    between atoms: C07_12  and  S06_32 
REMARK    7  A    between atoms: C12_14  and  O13_30 
REMARK    8  A    between atoms: N15_25  and  C14_15 
REMARK    9  A    between atoms: C29_19  and  O30_31 
ROOT
ATOM      1  C07 J3Q d   1     -19.574   8.859  -1.676  0.00  0.00     0.114 C 
ATOM      2  C09 J3Q d   1     -19.469   6.644  -0.884  0.00  0.00     0.087 C 
ATOM      3  C12 J3Q d   1     -17.966   6.795  -0.588  0.00  0.00     0.086 C 
ATOM      4  C14 J3Q d   1     -17.345   7.840  -1.549  0.00  0.00     0.090 C 
ATOM      5  C29 J3Q d   1     -18.106   9.167  -1.496  0.00  0.00     0.093 C 
ATOM      6  O08 J3Q d   1     -20.112   7.896  -0.811  0.00  0.00    -0.362 OA
ATOM      7  H9  J3Q d   1     -19.637   8.403  -2.675  0.00  0.00     0.105 H 
ATOM      8  H10 J3Q d   1     -19.568   6.261  -1.911  0.00  0.00     0.090 H 
ATOM      9  H11 J3Q d   1     -17.472   5.827  -0.755  0.00  0.00     0.090 H 
ATOM     10  H12 J3Q d   1     -17.468   7.450  -2.570  0.00  0.00     0.084 H 
ATOM     11  H15 J3Q d   1     -17.961   9.628  -0.508  0.00  0.00     0.091 H 
ENDROOT
BRANCH   4  12
ATOM     12  N15 J3Q d   1     -15.940   7.973  -1.332  0.00  0.00    -0.250 N 
ATOM     13  C16 J3Q d   1     -15.260   8.405  -0.232  0.00  0.00     0.031 A 
ATOM     14  C17 J3Q d   1     -13.927   8.350  -0.531  0.00  0.00     0.108 A 
ATOM     15  H13 J3Q d   1     -15.697   8.733   0.710  0.00  0.00     0.118 H 
ATOM     16  N27 J3Q d   1     -13.825   7.883  -1.832  0.00  0.00    -0.130 NA
ATOM     17  N28 J3Q d   1     -15.018   7.643  -2.305  0.00  0.00    -0.065 NA
BRANCH  14  18
ATOM     18  C18 J3Q d   1     -12.779   8.631   0.258  0.00  0.00     0.002 A 
ATOM     19  C26 J3Q d   1     -12.857   8.664   1.641  0.00  0.00    -0.030 A 
ATOM     20  C24 J3Q d   1     -11.753   8.917   2.384  0.00  0.00     0.158 A 
ATOM     21  H3  J3Q d   1     -13.807   8.486   2.131  0.00  0.00     0.089 H 
ATOM     22  C22 J3Q d   1     -10.510   9.098   1.811  0.00  0.00     0.193 A 
ATOM     23  F25 J3Q d   1     -11.799   8.916   3.710  0.00  0.00    -0.203 F 
ATOM     24  C20 J3Q d   1     -10.415   9.062   0.443  0.00  0.00     0.158 A 
ATOM     25  F23 J3Q d   1      -9.438   9.334   2.564  0.00  0.00    -0.200 F 
ATOM     26  C19 J3Q d   1     -11.533   8.793  -0.327  0.00  0.00    -0.030 A 
ATOM     27  F21 J3Q d   1      -9.219   9.240  -0.111  0.00  0.00    -0.203 F 
ATOM     28  H14 J3Q d   1     -11.433   8.708  -1.403  0.00  0.00     0.089 H 
ENDBRANCH  14  18
ENDBRANCH   4  12
BRANCH   3  29
ATOM     29  O13 J3Q d   1     -17.781   7.161   0.723  0.00  0.00    -0.391 OA
ATOM     30  H19 J3Q d   1     -16.851   7.227   0.904  0.00  0.00     0.210 HD
ENDBRANCH   3  29
BRANCH   5  31
ATOM     31  O30 J3Q d   1     -17.614  10.043  -2.460  0.00  0.00    -0.390 OA
ATOM     32  H20 J3Q d   1     -16.692  10.206  -2.297  0.00  0.00     0.210 HD
ENDBRANCH   5  31
BRANCH   2  33
ATOM     33  C10 J3Q d   1     -20.173   5.670   0.045  0.00  0.00     0.043 C 
ATOM     34  H1  J3Q d   1     -20.218   6.095   1.059  0.00  0.00     0.078 H 
ATOM     35  H2  J3Q d   1     -19.620   4.720   0.070  0.00  0.00     0.078 H 
BRANCH  33  36
ATOM     36  O11 J3Q d   1     -21.507   5.438  -0.439  0.00  0.00    -0.398 OA
ATOM     37  H18 J3Q d   1     -21.982   6.260  -0.460  0.00  0.00     0.209 HD
ENDBRANCH  33  36
ENDBRANCH   2  33
BRANCH   1  38
ATOM     38  S06 J3Q d   1     -20.587  10.300  -1.759  0.00  0.00    -0.095 SA
BRANCH  38  39
ATOM     39  C05 J3Q d   1     -21.749   9.867  -3.023  0.00  0.00     0.003 A 
ATOM     40  C04 J3Q d   1     -22.226   8.562  -3.290  0.00  0.00    -0.066 A 
ATOM     41  C03 J3Q d   1     -23.125   8.312  -4.306  0.00  0.00    -0.076 A 
ATOM     42  H8  J3Q d   1     -21.876   7.737  -2.680  0.00  0.00     0.085 H 
ATOM     43  C02 J3Q d   1     -23.581   9.356  -5.109  0.00  0.00    -0.062 A 
ATOM     44  H7  J3Q d   1     -23.477   7.302  -4.480  0.00  0.00     0.084 H 
ATOM     45  C32 J3Q d   1     -23.094  10.663  -4.855  0.00  0.00    -0.076 A 
ATOM     46  C31 J3Q d   1     -22.173  10.886  -3.831  0.00  0.00    -0.066 A 
ATOM     47  H17 J3Q d   1     -23.439  11.494  -5.460  0.00  0.00     0.084 H 
ATOM     48  H16 J3Q d   1     -21.786  11.886  -3.673  0.00  0.00     0.085 H 
BRANCH  43  49
ATOM     49  C01 J3Q d   1     -24.557   9.130  -6.198  0.00  0.00    -0.051 C 
ATOM     50  H4  J3Q d   1     -24.816   8.062  -6.242  0.00  0.00     0.033 H 
ATOM     51  H5  J3Q d   1     -24.115   9.441  -7.156  0.00  0.00     0.033 H 
ATOM     52  H6  J3Q d   1     -25.465   9.720  -6.005  0.00  0.00     0.033 H 
ENDBRANCH  43  49
ENDBRANCH  38  39
ENDBRANCH   1  38
TORSDOF 9
