REMARK  9 active torsions:
REMARK  status: ('A' for Active; 'I' for Inactive)
REMARK    1  A    between atoms: C09_12  and  C10_1 
REMARK    2  A    between atoms: C10_1  and  O11_27 
REMARK    3  A    between atoms: C17_2  and  C18_16 
REMARK    4  A    between atoms: C02_7  and  C01_6 
REMARK    5  A    between atoms: S06_30  and  C05_10 
REMARK    6  A    between atoms: C07_11  and  S06_30 
REMARK    7  A    between atoms: C12_13  and  O13_28 
REMARK    8  A    between atoms: N15_23  and  C14_14 
REMARK    9  A    between atoms: C27_19  and  O28_29 
ROOT
ATOM      1  C07 J4E d   1     -19.955   8.436  -1.710  0.00  0.00     0.114 C 
ATOM      2  C09 J4E d   1     -19.872   6.235  -0.848  0.00  0.00     0.087 C 
ATOM      3  C12 J4E d   1     -18.375   6.408  -0.541  0.00  0.00     0.086 C 
ATOM      4  C14 J4E d   1     -17.781   7.468  -1.516  0.00  0.00     0.090 C 
ATOM      5  C27 J4E d   1     -18.501   8.792  -1.421  0.00  0.00     0.093 C 
ATOM      6  O08 J4E d   1     -20.487   7.524  -0.774  0.00  0.00    -0.362 OA
ATOM      7  H10 J4E d   1     -19.984   7.955  -2.699  0.00  0.00     0.105 H 
ATOM      8  H11 J4E d   1     -19.998   5.814  -1.857  0.00  0.00     0.090 H 
ATOM      9  H12 J4E d   1     -17.864   5.444  -0.679  0.00  0.00     0.090 H 
ATOM     10  H13 J4E d   1     -17.913   7.096  -2.543  0.00  0.00     0.084 H 
ATOM     11  H17 J4E d   1     -18.386   9.263  -0.433  0.00  0.00     0.091 H 
ENDROOT
BRANCH   4  12
ATOM     12  N15 J4E d   1     -16.360   7.593  -1.268  0.00  0.00    -0.250 N 
ATOM     13  C16 J4E d   1     -15.711   8.152  -0.158  0.00  0.00     0.031 A 
ATOM     14  C17 J4E d   1     -14.355   8.023  -0.393  0.00  0.00     0.108 A 
ATOM     15  H14 J4E d   1     -16.182   8.599   0.716  0.00  0.00     0.118 H 
ATOM     16  N25 J4E d   1     -14.245   7.341  -1.631  0.00  0.00    -0.130 NA
ATOM     17  N26 J4E d   1     -15.408   7.104  -2.129  0.00  0.00    -0.065 NA
BRANCH  14  18
ATOM     18  C18 J4E d   1     -13.257   8.379   0.443  0.00  0.00    -0.004 A 
ATOM     19  C24 J4E d   1     -11.930   8.441  -0.031  0.00  0.00    -0.068 A 
ATOM     20  C23 J4E d   1     -10.843   8.752   0.775  0.00  0.00    -0.045 A 
ATOM     21  H4  J4E d   1     -11.749   8.235  -1.080  0.00  0.00     0.085 H 
ATOM     22  C21 J4E d   1     -11.031   8.985   2.139  0.00  0.00     0.116 A 
ATOM     23  H16 J4E d   1      -9.850   8.814   0.346  0.00  0.00     0.088 H 
ATOM     24  C20 J4E d   1     -12.343   8.896   2.647  0.00  0.00    -0.045 A 
ATOM     25  F22 J4E d   1     -10.003   9.260   2.916  0.00  0.00    -0.206 F 
ATOM     26  C19 J4E d   1     -13.404   8.591   1.807  0.00  0.00    -0.068 A 
ATOM     27  H3  J4E d   1     -12.524   9.067   3.702  0.00  0.00     0.088 H 
ATOM     28  H15 J4E d   1     -14.396   8.514   2.237  0.00  0.00     0.085 H 
ENDBRANCH  14  18
ENDBRANCH   4  12
BRANCH   3  29
ATOM     29  O13 J4E d   1     -18.162   6.867   0.780  0.00  0.00    -0.391 OA
ATOM     30  H21 J4E d   1     -17.230   6.969   0.932  0.00  0.00     0.210 HD
ENDBRANCH   3  29
BRANCH   5  31
ATOM     31  O28 J4E d   1     -17.979   9.621  -2.444  0.00  0.00    -0.390 OA
ATOM     32  H22 J4E d   1     -18.410  10.467  -2.415  0.00  0.00     0.210 HD
ENDBRANCH   5  31
BRANCH   2  33
ATOM     33  C10 J4E d   1     -20.527   5.317   0.170  0.00  0.00     0.043 C 
ATOM     34  H1  J4E d   1     -20.503   5.781   1.167  0.00  0.00     0.078 H 
ATOM     35  H2  J4E d   1     -20.000   4.352   0.202  0.00  0.00     0.078 H 
BRANCH  33  36
ATOM     36  O11 J4E d   1     -21.861   5.127  -0.243  0.00  0.00    -0.398 OA
ATOM     37  H20 J4E d   1     -22.305   5.966  -0.273  0.00  0.00     0.209 HD
ENDBRANCH  33  36
ENDBRANCH   2  33
BRANCH   1  38
ATOM     38  S06 J4E d   1     -21.000   9.921  -1.780  0.00  0.00    -0.095 SA
BRANCH  38  39
ATOM     39  C05 J4E d   1     -22.232   9.599  -3.087  0.00  0.00     0.003 A 
ATOM     40  C04 J4E d   1     -22.733  10.598  -3.955  0.00  0.00    -0.066 A 
ATOM     41  C03 J4E d   1     -23.686  10.289  -4.963  0.00  0.00    -0.076 A 
ATOM     42  H9  J4E d   1     -22.383  11.618  -3.849  0.00  0.00     0.085 H 
ATOM     43  C02 J4E d   1     -24.196   8.977  -5.181  0.00  0.00    -0.062 A 
ATOM     44  H8  J4E d   1     -24.043  11.092  -5.598  0.00  0.00     0.084 H 
ATOM     45  C30 J4E d   1     -23.675   7.993  -4.308  0.00  0.00    -0.076 A 
ATOM     46  C29 J4E d   1     -22.724   8.292  -3.294  0.00  0.00    -0.066 A 
ATOM     47  H19 J4E d   1     -24.015   6.969  -4.417  0.00  0.00     0.084 H 
ATOM     48  H18 J4E d   1     -22.365   7.490  -2.659  0.00  0.00     0.085 H 
BRANCH  43  49
ATOM     49  C01 J4E d   1     -25.225   8.680  -6.281  0.00  0.00    -0.051 C 
ATOM     50  H5  J4E d   1     -25.467   9.609  -6.818  0.00  0.00     0.033 H 
ATOM     51  H6  J4E d   1     -26.139   8.271  -5.827  0.00  0.00     0.033 H 
ATOM     52  H7  J4E d   1     -24.806   7.947  -6.987  0.00  0.00     0.033 H 
ENDBRANCH  43  49
ENDBRANCH  38  39
ENDBRANCH   1  38
TORSDOF 9
