REMARK  9 active torsions:
REMARK  status: ('A' for Active; 'I' for Inactive)
REMARK    1  A    between atoms: C19_18  and  C20_1 
REMARK    2  A    between atoms: C02_6  and  C01_5 
REMARK    3  A    between atoms: S08_31  and  C07_11 
REMARK    4  A    between atoms: C09_12  and  S08_31 
REMARK    5  A    between atoms: C11_13  and  C12_14 
REMARK    6  A    between atoms: C12_14  and  O13_28 
REMARK    7  A    between atoms: C14_15  and  O15_29 
REMARK    8  A    between atoms: N17_24  and  C16_16 
REMARK    9  A    between atoms: C30_21  and  O31_30 
ROOT
ATOM      1  C09 J4N d   1     -19.742   8.750  -1.777  0.00  0.00     0.114 C 
ATOM      2  C11 J4N d   1     -19.682   6.570  -0.963  0.00  0.00     0.087 C 
ATOM      3  C14 J4N d   1     -18.152   6.681  -0.647  0.00  0.00     0.086 C 
ATOM      4  C16 J4N d   1     -17.562   7.751  -1.611  0.00  0.00     0.090 C 
ATOM      5  C30 J4N d   1     -18.263   9.103  -1.487  0.00  0.00     0.093 C 
ATOM      6  O10 J4N d   1     -20.250   7.855  -0.805  0.00  0.00    -0.362 OA
ATOM      7  H10 J4N d   1     -19.806   8.277  -2.768  0.00  0.00     0.105 H 
ATOM      8  H11 J4N d   1     -19.826   6.212  -1.993  0.00  0.00     0.090 H 
ATOM      9  H14 J4N d   1     -17.660   5.710  -0.804  0.00  0.00     0.090 H 
ATOM     10  H15 J4N d   1     -17.732   7.396  -2.638  0.00  0.00     0.084 H 
ATOM     11  H18 J4N d   1     -18.124   9.574  -0.503  0.00  0.00     0.091 H 
ENDROOT
BRANCH   4  12
ATOM     12  N17 J4N d   1     -16.140   7.856  -1.423  0.00  0.00    -0.250 N 
ATOM     13  C18 J4N d   1     -15.432   8.262  -0.293  0.00  0.00     0.031 A 
ATOM     14  C19 J4N d   1     -14.084   8.178  -0.648  0.00  0.00     0.108 A 
ATOM     15  H16 J4N d   1     -15.843   8.578   0.665  0.00  0.00     0.118 H 
ATOM     16  N28 J4N d   1     -14.076   7.742  -1.980  0.00  0.00    -0.130 NA
ATOM     17  N29 J4N d   1     -15.258   7.558  -2.405  0.00  0.00    -0.065 NA
BRANCH  14  18
ATOM     18  C20 J4N d   1     -12.904   8.454   0.132  0.00  0.00     0.002 A 
ATOM     19  C21 J4N d   1     -11.650   8.617  -0.480  0.00  0.00    -0.033 A 
ATOM     20  C22 J4N d   1     -10.513   8.868   0.281  0.00  0.00     0.120 A 
ATOM     21  H1  J4N d   1     -11.567   8.546  -1.558  0.00  0.00     0.089 H 
ATOM     22  C24 J4N d   1     -10.553   8.937   1.677  0.00  0.00    -0.009 A 
ATOM     23  F23 J4N d   1      -9.380   9.026  -0.331  0.00  0.00    -0.206 F 
ATOM     24  C25 J4N d   1     -11.800   8.745   2.270  0.00  0.00     0.120 A 
ATOM     25  H2  J4N d   1      -9.663   9.129   2.266  0.00  0.00     0.092 H 
ATOM     26  C27 J4N d   1     -12.945   8.509   1.522  0.00  0.00    -0.033 A 
ATOM     27  F26 J4N d   1     -11.907   8.784   3.580  0.00  0.00    -0.206 F 
ATOM     28  H17 J4N d   1     -13.891   8.364   2.031  0.00  0.00     0.089 H 
ENDBRANCH  14  18
ENDBRANCH   4  12
BRANCH   3  29
ATOM     29  O15 J4N d   1     -17.966   7.098   0.669  0.00  0.00    -0.391 OA
ATOM     30  H20 J4N d   1     -17.037   7.203   0.838  0.00  0.00     0.210 HD
ENDBRANCH   3  29
BRANCH   5  31
ATOM     31  O31 J4N d   1     -17.777   9.910  -2.526  0.00  0.00    -0.390 OA
ATOM     32  H21 J4N d   1     -17.975   9.503  -3.361  0.00  0.00     0.210 HD
ENDBRANCH   5  31
BRANCH   2  33
ATOM     33  C12 J4N d   1     -20.378   5.607   0.027  0.00  0.00     0.043 C 
ATOM     34  H12 J4N d   1     -20.330   6.023   1.044  0.00  0.00     0.078 H 
ATOM     35  H13 J4N d   1     -19.877   4.628   0.007  0.00  0.00     0.078 H 
BRANCH  33  36
ATOM     36  O13 J4N d   1     -21.719   5.460  -0.362  0.00  0.00    -0.398 OA
ATOM     37  H19 J4N d   1     -22.147   6.308  -0.345  0.00  0.00     0.209 HD
ENDBRANCH  33  36
ENDBRANCH   2  33
BRANCH   1  38
ATOM     38  S08 J4N d   1     -20.751  10.259  -1.769  0.00  0.00    -0.095 SA
BRANCH  38  39
ATOM     39  C07 J4N d   1     -22.188   9.942  -2.851  0.00  0.00     0.003 A 
ATOM     40  C04 J4N d   1     -22.516   8.647  -3.274  0.00  0.00    -0.066 A 
ATOM     41  C03 J4N d   1     -23.606   8.388  -4.123  0.00  0.00    -0.076 A 
ATOM     42  H7  J4N d   1     -21.908   7.816  -2.935  0.00  0.00     0.085 H 
ATOM     43  C02 J4N d   1     -24.416   9.415  -4.593  0.00  0.00    -0.062 A 
ATOM     44  H6  J4N d   1     -23.819   7.367  -4.417  0.00  0.00     0.084 H 
ATOM     45  C05 J4N d   1     -24.095  10.714  -4.170  0.00  0.00    -0.076 A 
ATOM     46  C06 J4N d   1     -23.001  10.979  -3.319  0.00  0.00    -0.066 A 
ATOM     47  H8  J4N d   1     -24.708  11.542  -4.508  0.00  0.00     0.084 H 
ATOM     48  H9  J4N d   1     -22.788  12.000  -3.024  0.00  0.00     0.085 H 
BRANCH  43  49
ATOM     49  C01 J4N d   1     -25.591   9.164  -5.484  0.00  0.00    -0.051 C 
ATOM     50  H3  J4N d   1     -25.667   8.087  -5.696  0.00  0.00     0.033 H 
ATOM     51  H4  J4N d   1     -25.461   9.715  -6.427  0.00  0.00     0.033 H 
ATOM     52  H5  J4N d   1     -26.510   9.505  -4.984  0.00  0.00     0.033 H 
ENDBRANCH  43  49
ENDBRANCH  38  39
ENDBRANCH   1  38
TORSDOF 9
