REMARK  13 active torsions:
REMARK  status: ('A' for Active; 'I' for Inactive)
REMARK    1  A    between atoms: C02_1  and  O01_24 
REMARK    2  A    between atoms: C03_2  and  C04_3 
REMARK    3  A    between atoms: C04_3  and  O05_25 
REMARK    4  A    between atoms: C07_4  and  S08_33 
REMARK    5  A    between atoms: S08_33  and  C09_5 
REMARK    6  A    between atoms: C10_6  and  O11_27 
REMARK    7  A    between atoms: C12_7  and  O13_28 
REMARK    8  A    between atoms: C14_8  and  O15_29 
REMARK    9  A    between atoms: C16_9  and  C17_10 
REMARK   10  A    between atoms: C17_10  and  O18_30 
REMARK   11  A    between atoms: C20_11  and  O21_32 
REMARK   12  A    between atoms: N23_21  and  C22_12 
REMARK   13  A    between atoms: C25_14  and  C26_15 
ROOT
ATOM      1  C02 HRK d   1     -18.349   6.860  -0.865  0.00  0.00     0.086 C 
ATOM      2  C03 HRK d   1     -19.837   6.718  -1.133  0.00  0.00     0.087 C 
ATOM      3  C07 HRK d   1     -20.055   9.066  -1.508  0.00  0.00     0.112 C 
ATOM      4  C20 HRK d   1     -18.590   9.365  -1.304  0.00  0.00     0.093 C 
ATOM      5  C22 HRK d   1     -17.821   8.066  -1.670  0.00  0.00     0.090 C 
ATOM      6  O06 HRK d   1     -20.481   7.937  -0.785  0.00  0.00    -0.363 OA
ATOM      7  H1  HRK d   1     -17.831   5.941  -1.174  0.00  0.00     0.090 H 
ATOM      8  H2  HRK d   1     -19.993   6.507  -2.201  0.00  0.00     0.090 H 
ATOM      9  H5  HRK d   1     -20.235   8.893  -2.579  0.00  0.00     0.104 H 
ATOM     10  H13 HRK d   1     -18.386   9.679  -0.270  0.00  0.00     0.091 H 
ATOM     11  H14 HRK d   1     -17.999   7.869  -2.737  0.00  0.00     0.084 H 
ENDROOT
BRANCH   3  12
ATOM     12  S08 HRK d   1     -21.029  10.486  -0.947  0.00  0.00    -0.100 SA
BRANCH  12  13
ATOM     13  C09 HRK d   1     -22.728   9.981  -1.266  0.00  0.00     0.112 C 
ATOM     14  C10 HRK d   1     -23.657  10.360  -0.093  0.00  0.00     0.096 C 
ATOM     15  C12 HRK d   1     -25.106  10.033  -0.450  0.00  0.00     0.090 C 
ATOM     16  H7  HRK d   1     -23.577  11.444   0.075  0.00  0.00     0.092 H 
ATOM     17  C14 HRK d   1     -25.493  10.676  -1.868  0.00  0.00     0.089 C 
ATOM     18  H8  HRK d   1     -25.241   8.942  -0.487  0.00  0.00     0.091 H 
ATOM     19  C16 HRK d   1     -24.476  10.191  -2.895  0.00  0.00     0.087 C 
ATOM     20  H9  HRK d   1     -25.512  11.775  -1.819  0.00  0.00     0.091 H 
ATOM     21  O19 HRK d   1     -23.178  10.535  -2.491  0.00  0.00    -0.363 OA
ATOM     22  H10 HRK d   1     -24.547   9.094  -2.933  0.00  0.00     0.090 H 
ATOM     23  H6  HRK d   1     -22.744   8.886  -1.364  0.00  0.00     0.104 H 
BRANCH  14  24
ATOM     24  O11 HRK d   1     -23.271   9.701   1.098  0.00  0.00    -0.389 OA
ATOM     25  H23 HRK d   1     -23.353   8.762   0.980  0.00  0.00     0.210 HD
ENDBRANCH  14  24
BRANCH  15  26
ATOM     26  O13 HRK d   1     -25.956  10.599   0.540  0.00  0.00    -0.390 OA
ATOM     27  H24 HRK d   1     -25.741  10.230   1.389  0.00  0.00     0.210 HD
ENDBRANCH  15  26
BRANCH  17  28
ATOM     28  O15 HRK d   1     -26.777  10.149  -2.223  0.00  0.00    -0.390 OA
ATOM     29  H25 HRK d   1     -27.016  10.457  -3.089  0.00  0.00     0.210 HD
ENDBRANCH  17  28
BRANCH  19  30
ATOM     30  C17 HRK d   1     -24.717  10.725  -4.335  0.00  0.00     0.043 C 
ATOM     31  H11 HRK d   1     -25.674  10.348  -4.724  0.00  0.00     0.078 H 
ATOM     32  H12 HRK d   1     -23.900  10.407  -5.000  0.00  0.00     0.078 H 
BRANCH  30  33
ATOM     33  O18 HRK d   1     -24.749  12.141  -4.242  0.00  0.00    -0.398 OA
ATOM     34  H26 HRK d   1     -23.920  12.454  -3.898  0.00  0.00     0.209 HD
ENDBRANCH  30  33
ENDBRANCH  19  30
ENDBRANCH  12  13
ENDBRANCH   3  12
BRANCH   4  35
ATOM     35  O21 HRK d   1     -18.193  10.369  -2.233  0.00  0.00    -0.390 OA
ATOM     36  H27 HRK d   1     -17.255  10.507  -2.167  0.00  0.00     0.210 HD
ENDBRANCH   4  35
BRANCH   5  37
ATOM     37  N23 HRK d   1     -16.392   8.179  -1.476  0.00  0.00    -0.250 N 
ATOM     38  C24 HRK d   1     -15.686   8.485  -0.255  0.00  0.00     0.031 A 
ATOM     39  C25 HRK d   1     -14.300   8.436  -0.635  0.00  0.00     0.108 A 
ATOM     40  H15 HRK d   1     -16.105   8.703   0.726  0.00  0.00     0.118 H 
ATOM     41  N32 HRK d   1     -14.333   8.099  -2.004  0.00  0.00    -0.130 NA
ATOM     42  N33 HRK d   1     -15.520   7.946  -2.453  0.00  0.00    -0.065 NA
BRANCH  39  43
ATOM     43  C26 HRK d   1     -13.128   8.621   0.174  0.00  0.00    -0.004 A 
ATOM     44  C27 HRK d   1     -13.189   8.538   1.547  0.00  0.00    -0.071 A 
ATOM     45  C28 HRK d   1     -12.078   8.689   2.359  0.00  0.00    -0.082 A 
ATOM     46  H16 HRK d   1     -14.149   8.346   2.013  0.00  0.00     0.084 H 
ATOM     47  C29 HRK d   1     -10.842   8.907   1.786  0.00  0.00    -0.083 A 
ATOM     48  H17 HRK d   1     -12.178   8.636   3.437  0.00  0.00     0.083 H 
ATOM     49  C30 HRK d   1     -10.736   8.962   0.403  0.00  0.00    -0.082 A 
ATOM     50  H18 HRK d   1      -9.964   9.034   2.409  0.00  0.00     0.083 H 
ATOM     51  C31 HRK d   1     -11.877   8.823  -0.382  0.00  0.00    -0.071 A 
ATOM     52  H19 HRK d   1      -9.769   9.113  -0.064  0.00  0.00     0.083 H 
ATOM     53  H20 HRK d   1     -11.783   8.874  -1.461  0.00  0.00     0.084 H 
ENDBRANCH  39  43
ENDBRANCH   5  37
BRANCH   2  54
ATOM     54  C04 HRK d   1     -20.446   5.594  -0.306  0.00  0.00     0.043 C 
ATOM     55  H3  HRK d   1     -20.318   5.816   0.764  0.00  0.00     0.078 H 
ATOM     56  H4  HRK d   1     -19.940   4.647  -0.547  0.00  0.00     0.078 H 
BRANCH  54  57
ATOM     57  O05 HRK d   1     -21.832   5.479  -0.603  0.00  0.00    -0.398 OA
ATOM     58  H22 HRK d   1     -22.268   6.297  -0.395  0.00  0.00     0.209 HD
ENDBRANCH  54  57
ENDBRANCH   2  54
BRANCH   1  59
ATOM     59  O01 HRK d   1     -18.095   7.112   0.513  0.00  0.00    -0.391 OA
ATOM     60  H21 HRK d   1     -17.160   7.215   0.648  0.00  0.00     0.210 HD
ENDBRANCH   1  59
TORSDOF 13
