REMARK  9 active torsions:
REMARK  status: ('A' for Active; 'I' for Inactive)
REMARK    1  A    between atoms: C19_19  and  C20_1 
REMARK    2  A    between atoms: C28_5  and  O29_29 
REMARK    3  A    between atoms: C02_7  and  C01_6 
REMARK    4  A    between atoms: S08_30  and  C07_12 
REMARK    5  A    between atoms: C09_13  and  S08_30 
REMARK    6  A    between atoms: C11_14  and  C12_15 
REMARK    7  A    between atoms: C12_15  and  O13_27 
REMARK    8  A    between atoms: C14_16  and  O15_28 
REMARK    9  A    between atoms: N17_23  and  C16_17 
ROOT
ATOM      1  C28 J5W d   1     -17.961   9.065  -1.252  0.00  0.00     0.093 C 
ATOM      2  C09 J5W d   1     -19.398   8.747  -1.645  0.00  0.00     0.114 C 
ATOM      3  C11 J5W d   1     -19.301   6.426  -0.718  0.00  0.00     0.087 C 
ATOM      4  C14 J5W d   1     -17.811   6.593  -0.345  0.00  0.00     0.086 C 
ATOM      5  C16 J5W d   1     -17.138   7.712  -1.360  0.00  0.00     0.090 C 
ATOM      6  O10 J5W d   1     -19.976   7.744  -0.763  0.00  0.00    -0.362 OA
ATOM      7  H4  J5W d   1     -17.891   9.517  -0.252  0.00  0.00     0.091 H 
ATOM      8  H12 J5W d   1     -19.385   8.337  -2.666  0.00  0.00     0.105 H 
ATOM      9  H13 J5W d   1     -19.364   5.945  -1.705  0.00  0.00     0.090 H 
ATOM     10  H16 J5W d   1     -17.285   5.630  -0.431  0.00  0.00     0.090 H 
ATOM     11  H17 J5W d   1     -17.265   7.345  -2.389  0.00  0.00     0.084 H 
ENDROOT
BRANCH   5  12
ATOM     12  N17 J5W d   1     -15.781   7.825  -1.157  0.00  0.00    -0.250 N 
ATOM     13  C18 J5W d   1     -15.097   8.318  -0.059  0.00  0.00     0.031 A 
ATOM     14  C19 J5W d   1     -13.723   8.208  -0.324  0.00  0.00     0.111 A 
ATOM     15  H18 J5W d   1     -15.545   8.720   0.849  0.00  0.00     0.118 H 
ATOM     16  N26 J5W d   1     -13.689   7.647  -1.603  0.00  0.00    -0.130 NA
ATOM     17  N27 J5W d   1     -14.839   7.432  -2.050  0.00  0.00    -0.065 NA
BRANCH  14  18
ATOM     18  C20 J5W d   1     -12.556   8.573   0.449  0.00  0.00     0.035 A 
ATOM     19  C21 J5W d   1     -11.280   8.775  -0.094  0.00  0.00    -0.068 A 
ATOM     20  C22 J5W d   1     -10.150   9.123   0.625  0.00  0.00    -0.082 A 
ATOM     21  H1  J5W d   1     -11.169   8.648  -1.165  0.00  0.00     0.085 H 
ATOM     22  C23 J5W d   1     -10.239   9.224   1.990  0.00  0.00    -0.080 A 
ATOM     23  H2  J5W d   1      -9.211   9.312   0.118  0.00  0.00     0.083 H 
ATOM     24  C24 J5W d   1     -11.463   9.022   2.562  0.00  0.00    -0.045 A 
ATOM     25  H19 J5W d   1      -9.369   9.456   2.594  0.00  0.00     0.083 H 
ATOM     26  C25 J5W d   1     -12.571   8.682   1.784  0.00  0.00     0.129 A 
ATOM     27  H3  J5W d   1     -11.575   9.127   3.635  0.00  0.00     0.088 H 
ATOM     28  F30 J5W d   1     -13.682   8.478   2.458  0.00  0.00    -0.205 F 
ENDBRANCH  14  18
ENDBRANCH   5  12
BRANCH   1  29
ATOM     29  O29 J5W d   1     -17.468   9.903  -2.252  0.00  0.00    -0.390 OA
ATOM     30  H22 J5W d   1     -17.933  10.731  -2.227  0.00  0.00     0.210 HD
ENDBRANCH   1  29
BRANCH   4  31
ATOM     31  O15 J5W d   1     -17.728   7.055   0.895  0.00  0.00    -0.391 OA
ATOM     32  H21 J5W d   1     -16.815   7.193   1.120  0.00  0.00     0.210 HD
ENDBRANCH   4  31
BRANCH   2  33
ATOM     33  S08 J5W d   1     -20.375  10.161  -1.651  0.00  0.00    -0.095 SA
BRANCH  33  34
ATOM     34  C07 J5W d   1     -21.676   9.863  -2.855  0.00  0.00     0.003 A 
ATOM     35  C04 J5W d   1     -22.135   8.562  -3.176  0.00  0.00    -0.066 A 
ATOM     36  C03 J5W d   1     -23.099   8.326  -4.135  0.00  0.00    -0.076 A 
ATOM     37  H9  J5W d   1     -21.711   7.716  -2.646  0.00  0.00     0.085 H 
ATOM     38  C02 J5W d   1     -23.635   9.343  -4.886  0.00  0.00    -0.062 A 
ATOM     39  H8  J5W d   1     -23.442   7.311  -4.300  0.00  0.00     0.084 H 
ATOM     40  C05 J5W d   1     -23.177  10.649  -4.582  0.00  0.00    -0.076 A 
ATOM     41  C06 J5W d   1     -22.193  10.906  -3.607  0.00  0.00    -0.066 A 
ATOM     42  H10 J5W d   1     -23.602  11.487  -5.123  0.00  0.00     0.084 H 
ATOM     43  H11 J5W d   1     -21.841  11.918  -3.445  0.00  0.00     0.085 H 
BRANCH  38  44
ATOM     44  C01 J5W d   1     -24.667   9.054  -5.824  0.00  0.00    -0.051 C 
ATOM     45  H5  J5W d   1     -24.827   7.967  -5.870  0.00  0.00     0.033 H 
ATOM     46  H6  J5W d   1     -24.373   9.424  -6.818  0.00  0.00     0.033 H 
ATOM     47  H7  J5W d   1     -25.598   9.548  -5.509  0.00  0.00     0.033 H 
ENDBRANCH  38  44
ENDBRANCH  33  34
ENDBRANCH   2  33
BRANCH   3  48
ATOM     48  C12 J5W d   1     -20.063   5.565   0.324  0.00  0.00     0.043 C 
ATOM     49  H14 J5W d   1     -20.155   6.114   1.273  0.00  0.00     0.078 H 
ATOM     50  H15 J5W d   1     -19.527   4.620   0.498  0.00  0.00     0.078 H 
BRANCH  48  51
ATOM     51  O13 J5W d   1     -21.384   5.297  -0.230  0.00  0.00    -0.398 OA
ATOM     52  H20 J5W d   1     -21.835   6.119  -0.382  0.00  0.00     0.209 HD
ENDBRANCH  48  51
ENDBRANCH   3  48
TORSDOF 9
