REMARK  10 active torsions:
REMARK  status: ('A' for Active; 'I' for Inactive)
REMARK    1  A    between atoms: C19_19  and  C20_1 
REMARK    2  A    between atoms: C24_4  and  C31_22 
REMARK    3  A    between atoms: C28_5  and  O29_30 
REMARK    4  A    between atoms: C02_7  and  C01_6 
REMARK    5  A    between atoms: S08_31  and  C07_12 
REMARK    6  A    between atoms: C09_13  and  S08_31 
REMARK    7  A    between atoms: C11_14  and  C12_15 
REMARK    8  A    between atoms: C12_15  and  O13_28 
REMARK    9  A    between atoms: C14_16  and  O15_29 
REMARK   10  A    between atoms: N17_24  and  C16_17 
ROOT
ATOM      1  C28 J62 d   1     -18.528   9.191  -1.359  0.00  0.00     0.093 C 
ATOM      2  C09 J62 d   1     -19.970   8.823  -1.680  0.00  0.00     0.114 C 
ATOM      3  C11 J62 d   1     -19.883   6.595  -0.916  0.00  0.00     0.087 C 
ATOM      4  C14 J62 d   1     -18.384   6.731  -0.602  0.00  0.00     0.086 C 
ATOM      5  C16 J62 d   1     -17.792   7.856  -1.533  0.00  0.00     0.090 C 
ATOM      6  O10 J62 d   1     -20.481   7.888  -0.752  0.00  0.00    -0.362 OA
ATOM      7  H3  J62 d   1     -18.403   9.650  -0.367  0.00  0.00     0.091 H 
ATOM      8  H11 J62 d   1     -19.994   8.374  -2.684  0.00  0.00     0.105 H 
ATOM      9  H12 J62 d   1     -20.019   6.228  -1.944  0.00  0.00     0.090 H 
ATOM     10  H15 J62 d   1     -17.874   5.774  -0.789  0.00  0.00     0.090 H 
ATOM     11  H16 J62 d   1     -17.926   7.537  -2.577  0.00  0.00     0.084 H 
ENDROOT
BRANCH   5  12
ATOM     12  N17 J62 d   1     -16.408   7.988  -1.291  0.00  0.00    -0.250 N 
ATOM     13  C18 J62 d   1     -15.777   8.394  -0.138  0.00  0.00     0.031 A 
ATOM     14  C19 J62 d   1     -14.422   8.348  -0.422  0.00  0.00     0.108 A 
ATOM     15  H17 J62 d   1     -16.244   8.689   0.800  0.00  0.00     0.118 H 
ATOM     16  N26 J62 d   1     -14.352   7.911  -1.739  0.00  0.00    -0.130 NA
ATOM     17  N27 J62 d   1     -15.494   7.709  -2.229  0.00  0.00    -0.065 NA
BRANCH  14  18
ATOM     18  C20 J62 d   1     -13.316   8.607   0.424  0.00  0.00    -0.004 A 
ATOM     19  C21 J62 d   1     -13.448   8.479   1.817  0.00  0.00    -0.068 A 
ATOM     20  C22 J62 d   1     -12.385   8.676   2.674  0.00  0.00    -0.044 A 
ATOM     21  H1  J62 d   1     -14.415   8.217   2.231  0.00  0.00     0.085 H 
ATOM     22  C23 J62 d   1     -11.153   8.991   2.110  0.00  0.00     0.122 A 
ATOM     23  H2  J62 d   1     -12.505   8.588   3.748  0.00  0.00     0.088 H 
ATOM     24  C24 J62 d   1     -10.935   9.107   0.754  0.00  0.00    -0.022 A 
ATOM     25  F30 J62 d   1     -10.100   9.177   2.975  0.00  0.00    -0.206 F 
ATOM     26  C25 J62 d   1     -12.038   8.899  -0.064  0.00  0.00    -0.062 A 
ATOM     27  H18 J62 d   1     -11.901   8.966  -1.137  0.00  0.00     0.085 H 
BRANCH  24  28
ATOM     28  C31 J62 d   1      -9.620   9.450   0.271  0.00  0.00    -0.048 C 
ATOM     29  H19 J62 d   1      -8.933   9.557   1.123  0.00  0.00     0.033 H 
ATOM     30  H20 J62 d   1      -9.669  10.399  -0.282  0.00  0.00     0.033 H 
ATOM     31  H21 J62 d   1      -9.255   8.655  -0.396  0.00  0.00     0.033 H 
ENDBRANCH  24  28
ENDBRANCH  14  18
ENDBRANCH   5  12
BRANCH   1  32
ATOM     32  O29 J62 d   1     -18.039  10.004  -2.418  0.00  0.00    -0.390 OA
ATOM     33  H24 J62 d   1     -17.098  10.103  -2.332  0.00  0.00     0.210 HD
ENDBRANCH   1  32
BRANCH   4  34
ATOM     34  O15 J62 d   1     -18.198   7.115   0.736  0.00  0.00    -0.391 OA
ATOM     35  H23 J62 d   1     -17.270   7.223   0.907  0.00  0.00     0.210 HD
ENDBRANCH   4  34
BRANCH   2  36
ATOM     36  S08 J62 d   1     -21.037  10.285  -1.671  0.00  0.00    -0.095 SA
BRANCH  36  37
ATOM     37  C07 J62 d   1     -22.334   9.951  -2.843  0.00  0.00     0.003 A 
ATOM     38  C04 J62 d   1     -23.049  10.940  -3.476  0.00  0.00    -0.066 A 
ATOM     39  C03 J62 d   1     -24.072  10.638  -4.390  0.00  0.00    -0.076 A 
ATOM     40  H8  J62 d   1     -22.818  11.978  -3.265  0.00  0.00     0.085 H 
ATOM     41  C02 J62 d   1     -24.429   9.322  -4.728  0.00  0.00    -0.062 A 
ATOM     42  H7  J62 d   1     -24.610  11.456  -4.855  0.00  0.00     0.084 H 
ATOM     43  C05 J62 d   1     -23.683   8.330  -4.078  0.00  0.00    -0.076 A 
ATOM     44  C06 J62 d   1     -22.656   8.632  -3.156  0.00  0.00    -0.066 A 
ATOM     45  H9  J62 d   1     -23.902   7.290  -4.291  0.00  0.00     0.084 H 
ATOM     46  H10 J62 d   1     -22.109   7.824  -2.684  0.00  0.00     0.085 H 
BRANCH  41  47
ATOM     47  C01 J62 d   1     -25.573   9.020  -5.743  0.00  0.00    -0.051 C 
ATOM     48  H4  J62 d   1     -25.998   9.966  -6.109  0.00  0.00     0.033 H 
ATOM     49  H5  J62 d   1     -26.359   8.434  -5.245  0.00  0.00     0.033 H 
ATOM     50  H6  J62 d   1     -25.169   8.447  -6.591  0.00  0.00     0.033 H 
ENDBRANCH  41  47
ENDBRANCH  36  37
ENDBRANCH   2  36
BRANCH   3  51
ATOM     51  C12 J62 d   1     -20.587   5.646   0.085  0.00  0.00     0.043 C 
ATOM     52  H13 J62 d   1     -20.570   6.082   1.095  0.00  0.00     0.078 H 
ATOM     53  H14 J62 d   1     -20.081   4.670   0.099  0.00  0.00     0.078 H 
BRANCH  51  54
ATOM     54  O13 J62 d   1     -21.915   5.495  -0.354  0.00  0.00    -0.398 OA
ATOM     55  H22 J62 d   1     -22.341   6.344  -0.368  0.00  0.00     0.209 HD
ENDBRANCH  51  54
ENDBRANCH   3  51
TORSDOF 10
