REMARK  13 active torsions:
REMARK  status: ('A' for Active; 'I' for Inactive)
REMARK    1  A    between atoms: O2_21  and  C1_1 
REMARK    2  A    between atoms: C3_2  and  O2_21 
REMARK    3  A    between atoms: C13_8  and  C5_3 
REMARK    4  A    between atoms: N10_25  and  C11_6 
REMARK    5  A    between atoms: C13_8  and  C14_9 
REMARK    6  A    between atoms: C18_27  and  C13_8 
REMARK    7  A    between atoms: C14_9  and  C15_10 
REMARK    8  A    between atoms: C21_13  and  C22_14 
REMARK    9  A    between atoms: C24_16  and  C23_15 
REMARK   10  A    between atoms: N25_29  and  C24_16 
REMARK   11  A    between atoms: N25_29  and  C26_17 
REMARK   12  A    between atoms: S27_30  and  N25_29 
REMARK   13  A    between atoms: S27_30  and  C30_33 
ROOT
ATOM      1  C19 J6K d   1      18.105  64.031  28.899  0.00  0.00    -0.076 A 
ATOM      2  C21 J6K d   1      16.974  64.886  30.848  0.00  0.00    -0.054 A 
ATOM      3  C23 J6K d   1      15.925  65.336  30.035  0.00  0.00    -0.033 A 
ATOM      4  C36 J6K d   1      15.994  65.119  28.661  0.00  0.00    -0.068 A 
ATOM      5  C18 J6K d   1      17.075  64.469  28.077  0.00  0.00    -0.049 A 
ATOM      6  C20 J6K d   1      18.055  64.236  30.265  0.00  0.00    -0.076 A 
ATOM      7  H11 J6K d   1      18.958  63.523  28.464  0.00  0.00     0.084 H 
ATOM      8  H22 J6K d   1      15.183  65.466  28.030  0.00  0.00     0.085 H 
ATOM      9  H24 J6K d   1      18.869  63.885  30.889  0.00  0.00     0.084 H 
ENDROOT
BRANCH   5  10
ATOM     10  C13 J6K d   1      17.166  64.223  26.576  0.00  0.00     0.006 C 
ATOM     11  H8  J6K d   1      17.868  63.388  26.438  0.00  0.00     0.055 H 
BRANCH  10  12
ATOM     12  C5  J6K d   1      15.828  63.750  26.020  0.00  0.00    -0.044 A 
ATOM     13  C6  J6K d   1      15.281  62.563  26.505  0.00  0.00    -0.045 A 
ATOM     14  C7  J6K d   1      14.044  62.088  26.016  0.00  0.00     0.106 A 
ATOM     15  H4  J6K d   1      15.810  61.999  27.265  0.00  0.00     0.088 H 
ATOM     16  C12 J6K d   1      13.375  62.780  25.071  0.00  0.00     0.112 A 
ATOM     17  N8  J6K d   1      13.336  60.971  26.343  0.00  0.00    -0.158 NA
ATOM     18  C3  J6K d   1      13.899  63.980  24.560  0.00  0.00     0.099 A 
ATOM     19  N10 J6K d   1      12.245  62.056  24.833  0.00  0.00    -0.273 N 
ATOM     20  C4  J6K d   1      15.121  64.451  25.042  0.00  0.00    -0.042 A 
ATOM     21  H23 J6K d   1      15.528  65.376  24.650  0.00  0.00     0.088 H 
ATOM     22  N9  J6K d   1      12.232  60.948  25.619  0.00  0.00     0.005 NA
BRANCH  18  23
ATOM     23  O2  J6K d   1      13.132  64.591  23.607  0.00  0.00    -0.354 OA
BRANCH  23  24
ATOM     24  C1  J6K d   1      13.666  65.733  22.937  0.00  0.00     0.010 C 
ATOM     25  H1  J6K d   1      12.933  66.105  22.206  0.00  0.00     0.066 H 
ATOM     26  H2  J6K d   1      14.593  65.452  22.416  0.00  0.00     0.066 H 
ATOM     27  H3  J6K d   1      13.883  66.521  23.673  0.00  0.00     0.066 H 
ENDBRANCH  23  24
ENDBRANCH  18  23
BRANCH  19  28
ATOM     28  C11 J6K d   1      11.144  62.307  23.914  0.00  0.00    -0.000 C 
ATOM     29  H5  J6K d   1      10.404  61.498  23.999  0.00  0.00     0.059 H 
ATOM     30  H6  J6K d   1      11.528  62.346  22.884  0.00  0.00     0.059 H 
ATOM     31  H7  J6K d   1      10.668  63.267  24.165  0.00  0.00     0.059 H 
ENDBRANCH  19  28
ENDBRANCH  10  12
BRANCH  10  32
ATOM     32  C14 J6K d   1      17.769  65.401  25.826  0.00  0.00     0.026 C 
ATOM     33  H9  J6K d   1      18.717  65.674  26.312  0.00  0.00     0.050 H 
ATOM     34  H10 J6K d   1      17.069  66.247  25.888  0.00  0.00     0.050 H 
BRANCH  32  35
ATOM     35  C15 J6K d   1      18.048  65.114  24.356  0.00  0.00     0.173 C 
ATOM     36  O17 J6K d   1      18.613  64.047  24.010  0.00  0.00    -0.648 OA
ATOM     37  O16 J6K d   1      17.680  65.996  23.563  0.00  0.00    -0.648 OA
ENDBRANCH  32  35
ENDBRANCH  10  32
ENDBRANCH   5  10
BRANCH   3  38
ATOM     38  C24 J6K d   1      14.733  66.045  30.638  0.00  0.00     0.029 C 
ATOM     39  H15 J6K d   1      14.206  66.595  29.844  0.00  0.00     0.072 H 
ATOM     40  H16 J6K d   1      15.088  66.753  31.401  0.00  0.00     0.072 H 
BRANCH  38  41
ATOM     41  N25 J6K d   1      13.797  65.100  31.264  0.00  0.00    -0.307 N 
BRANCH  41  42
ATOM     42  C26 J6K d   1      13.204  64.126  30.342  0.00  0.00    -0.008 C 
ATOM     43  H17 J6K d   1      13.940  63.857  29.570  0.00  0.00     0.057 H 
ATOM     44  H18 J6K d   1      12.316  64.566  29.865  0.00  0.00     0.057 H 
ATOM     45  H19 J6K d   1      12.912  63.224  30.900  0.00  0.00     0.057 H 
ENDBRANCH  41  42
BRANCH  41  46
ATOM     46  S27 J6K d   1      12.857  65.619  32.478  0.00  0.00     0.260 S 
ATOM     47  O28 J6K d   1      12.234  64.477  33.068  0.00  0.00    -0.200 OA
ATOM     48  O29 J6K d   1      13.645  66.509  33.276  0.00  0.00    -0.200 OA
BRANCH  46  49
ATOM     49  C30 J6K d   1      11.629  66.542  31.611  0.00  0.00     0.079 A 
ATOM     50  C31 J6K d   1      10.485  65.908  31.155  0.00  0.00    -0.060 A 
ATOM     51  C32 J6K d   1       9.523  66.625  30.476  0.00  0.00    -0.082 A 
ATOM     52  H20 J6K d   1      10.346  64.848  31.332  0.00  0.00     0.085 H 
ATOM     53  C33 J6K d   1       9.704  67.982  30.251  0.00  0.00    -0.083 A 
ATOM     54  H25 J6K d   1       8.627  66.130  30.119  0.00  0.00     0.083 H 
ATOM     55  C34 J6K d   1      10.849  68.616  30.707  0.00  0.00    -0.082 A 
ATOM     56  H26 J6K d   1       8.948  68.547  29.718  0.00  0.00     0.083 H 
ATOM     57  C35 J6K d   1      11.812  67.894  31.387  0.00  0.00    -0.060 A 
ATOM     58  H27 J6K d   1      10.989  69.676  30.531  0.00  0.00     0.083 H 
ATOM     59  H21 J6K d   1      12.709  68.387  31.744  0.00  0.00     0.085 H 
ENDBRANCH  46  49
ENDBRANCH  41  46
ENDBRANCH  38  41
ENDBRANCH   3  38
BRANCH   2  60
ATOM     60  C22 J6K d   1      16.970  65.084  32.342  0.00  0.00    -0.051 C 
ATOM     61  H12 J6K d   1      17.887  64.654  32.771  0.00  0.00     0.033 H 
ATOM     62  H13 J6K d   1      16.092  64.583  32.776  0.00  0.00     0.033 H 
ATOM     63  H14 J6K d   1      16.928  66.159  32.569  0.00  0.00     0.033 H 
ENDBRANCH   2  60
TORSDOF 13
