REMARK  10 active torsions:
REMARK  status: ('A' for Active; 'I' for Inactive)
REMARK    1  A    between atoms: C1_1  and  O2_2 
REMARK    2  A    between atoms: O2_2  and  C3_3 
REMARK    3  A    between atoms: C5_5  and  C13_13 
REMARK    4  A    between atoms: N10_10  and  C11_11 
REMARK    5  A    between atoms: C13_13  and  C14_14 
REMARK    6  A    between atoms: C13_13  and  C18_18 
REMARK    7  A    between atoms: C14_14  and  C15_15 
REMARK    8  A    between atoms: C21_21  and  C22_22 
REMARK    9  A    between atoms: C23_23  and  C24_24 
REMARK   10  A    between atoms: C24_24  and  N25_25 
ROOT
ATOM      1  C18 J8H d   1      17.075  64.434  28.098  0.00  0.00    -0.049 A 
ATOM      2  C19 J8H d   1      18.102  64.004  28.928  0.00  0.00    -0.076 A 
ATOM      3  C20 J8H d   1      18.055  64.253  30.289  0.00  0.00    -0.076 A 
ATOM      4  C21 J8H d   1      16.986  64.934  30.855  0.00  0.00    -0.054 A 
ATOM      5  C23 J8H d   1      15.944  65.374  30.031  0.00  0.00    -0.033 A 
ATOM      6  C39 J8H d   1      16.010  65.115  28.669  0.00  0.00    -0.068 A 
ATOM      7  H12 J8H d   1      18.946  63.470  28.507  0.00  0.00     0.084 H 
ATOM      8  H13 J8H d   1      18.865  63.911  30.922  0.00  0.00     0.084 H 
ATOM      9  H27 J8H d   1      15.203  65.456  28.031  0.00  0.00     0.085 H 
ENDROOT
BRANCH   1  10
ATOM     10  C13 J8H d   1      17.134  64.156  26.603  0.00  0.00     0.006 C 
ATOM     11  H9  J8H d   1      17.848  63.331  26.462  0.00  0.00     0.055 H 
BRANCH  10  12
ATOM     12  C5  J8H d   1      15.797  63.663  26.054  0.00  0.00    -0.044 A 
ATOM     13  C4  J8H d   1      15.088  64.368  25.076  0.00  0.00    -0.042 A 
ATOM     14  C3  J8H d   1      13.869  63.904  24.585  0.00  0.00     0.099 A 
ATOM     15  H4  J8H d   1      15.496  65.296  24.691  0.00  0.00     0.088 H 
ATOM     16  C12 J8H d   1      13.347  62.705  25.084  0.00  0.00     0.112 A 
ATOM     17  C7  J8H d   1      14.016  62.002  26.033  0.00  0.00     0.106 A 
ATOM     18  N10 J8H d   1      12.229  61.992  24.836  0.00  0.00    -0.273 N 
ATOM     19  C6  J8H d   1      15.252  62.472  26.531  0.00  0.00    -0.045 A 
ATOM     20  N8  J8H d   1      13.306  60.882  26.350  0.00  0.00    -0.158 NA
ATOM     21  H5  J8H d   1      15.779  61.903  27.288  0.00  0.00     0.088 H 
ATOM     22  N9  J8H d   1      12.207  60.873  25.616  0.00  0.00     0.005 NA
BRANCH  14  23
ATOM     23  O2  J8H d   1      13.105  64.524  23.629  0.00  0.00    -0.354 OA
BRANCH  23  24
ATOM     24  C1  J8H d   1      13.655  65.660  22.960  0.00  0.00     0.010 C 
ATOM     25  H1  J8H d   1      12.928  66.042  22.228  0.00  0.00     0.066 H 
ATOM     26  H2  J8H d   1      14.579  65.367  22.440  0.00  0.00     0.066 H 
ATOM     27  H3  J8H d   1      13.882  66.445  23.696  0.00  0.00     0.066 H 
ENDBRANCH  23  24
ENDBRANCH  14  23
BRANCH  18  28
ATOM     28  C11 J8H d   1      11.133  62.254  23.912  0.00  0.00    -0.000 C 
ATOM     29  H6  J8H d   1      11.324  63.194  23.373  0.00  0.00     0.059 H 
ATOM     30  H7  J8H d   1      10.191  62.339  24.474  0.00  0.00     0.059 H 
ATOM     31  H8  J8H d   1      11.056  61.427  23.191  0.00  0.00     0.059 H 
ENDBRANCH  18  28
ENDBRANCH  10  12
BRANCH  10  32
ATOM     32  C14 J8H d   1      17.698  65.351  25.845  0.00  0.00     0.026 C 
ATOM     33  H10 J8H d   1      18.631  65.663  26.337  0.00  0.00     0.050 H 
ATOM     34  H11 J8H d   1      16.965  66.169  25.896  0.00  0.00     0.050 H 
BRANCH  32  35
ATOM     35  C15 J8H d   1      18.001  65.073  24.381  0.00  0.00     0.173 C 
ATOM     36  O16 J8H d   1      18.572  64.004  24.064  0.00  0.00    -0.648 OA
ATOM     37  O17 J8H d   1      17.645  65.964  23.573  0.00  0.00    -0.648 OA
ENDBRANCH  32  35
ENDBRANCH  10  32
ENDBRANCH   1  10
BRANCH   5  38
ATOM     38  C24 J8H d   1      14.759  66.119  30.598  0.00  0.00     0.029 C 
ATOM     39  H17 J8H d   1      14.235  66.624  29.773  0.00  0.00     0.072 H 
ATOM     40  H18 J8H d   1      15.126  66.869  31.314  0.00  0.00     0.072 H 
BRANCH  38  41
ATOM     41  N25 J8H d   1      13.798  65.233  31.295  0.00  0.00    -0.300 N 
ATOM     42  C26 J8H d   1      13.183  64.181  30.446  0.00  0.00     0.026 C 
ATOM     43  C27 J8H d   1      12.072  64.711  29.541  0.00  0.00     0.042 C 
ATOM     44  H19 J8H d   1      12.760  63.406  31.102  0.00  0.00     0.068 H 
ATOM     45  H20 J8H d   1      13.967  63.739  29.814  0.00  0.00     0.068 H 
ATOM     46  O29 J8H d   1      10.900  65.090  30.287  0.00  0.00    -0.348 OA
ATOM     47  H21 J8H d   1      11.796  63.926  28.822  0.00  0.00     0.077 H 
ATOM     48  H22 J8H d   1      12.447  65.591  28.998  0.00  0.00     0.077 H 
ATOM     49  C30 J8H d   1      10.851  66.399  30.734  0.00  0.00     0.092 A 
ATOM     50  C31 J8H d   1       9.916  67.240  30.151  0.00  0.00    -0.049 A 
ATOM     51  C35 J8H d   1      11.687  66.878  31.722  0.00  0.00     0.113 A 
ATOM     52  C32 J8H d   1       9.823  68.551  30.557  0.00  0.00    -0.080 A 
ATOM     53  H23 J8H d   1       9.258  66.865  29.375  0.00  0.00     0.087 H 
ATOM     54  C33 J8H d   1      10.664  69.034  31.551  0.00  0.00    -0.081 A 
ATOM     55  H24 J8H d   1       9.092  69.208  30.100  0.00  0.00     0.083 H 
ATOM     56  C34 J8H d   1      11.599  68.196  32.135  0.00  0.00    -0.058 A 
ATOM     57  H25 J8H d   1      10.588  70.067  31.870  0.00  0.00     0.083 H 
ATOM     58  H26 J8H d   1      12.258  68.570  32.910  0.00  0.00     0.086 H 
ATOM     59  S36 J8H d   1      12.892  65.837  32.491  0.00  0.00     0.263 S 
ATOM     60  O37 J8H d   1      12.197  64.753  33.105  0.00  0.00    -0.200 OA
ATOM     61  O38 J8H d   1      13.740  66.659  33.296  0.00  0.00    -0.200 OA
ENDBRANCH  38  41
ENDBRANCH   5  38
BRANCH   4  62
ATOM     62  C22 J8H d   1      16.986  65.178  32.342  0.00  0.00    -0.051 C 
ATOM     63  H14 J8H d   1      17.897  64.748  32.784  0.00  0.00     0.033 H 
ATOM     64  H15 J8H d   1      16.101  64.704  32.791  0.00  0.00     0.033 H 
ATOM     65  H16 J8H d   1      16.960  66.260  32.536  0.00  0.00     0.033 H 
ENDBRANCH   4  62
TORSDOF 10
