REMARK  11 active torsions:
REMARK  status: ('A' for Active; 'I' for Inactive)
REMARK    1  A    between atoms: C6_4  and  N1_1 
REMARK    2  A    between atoms: C5_3  and  C6_4 
REMARK    3  A    between atoms: O1_25  and  C8_6 
REMARK    4  A    between atoms: C10_7  and  C11_15 
REMARK    5  A    between atoms: C9_23  and  C10_7 
REMARK    6  A    between atoms: C3_22  and  N_11 
REMARK    7  A    between atoms: O_13  and  C_12 
REMARK    8  A    between atoms: C1_14  and  O_13 
REMARK    9  A    between atoms: C11_15  and  N2_24 
REMARK   10  A    between atoms: C2_21  and  C3_22 
REMARK   11  A    between atoms: C9_23  and  O1_25 
ROOT
ATOM      1  O1  JC5 d   1     -10.531 -35.581  -6.346  0.00  0.00    -0.348 OA
ENDROOT
BRANCH   1   2
ATOM      2  C8  JC5 d   1      -9.442 -36.382  -6.548  0.00  0.00     0.103 A 
ATOM      3  C7  JC5 d   1      -8.215 -35.942  -7.009  0.00  0.00    -0.040 A 
ATOM      4  C5  JC5 d   1      -7.150 -36.831  -7.125  0.00  0.00    -0.030 A 
ATOM      5  H7  JC5 d   1      -8.082 -34.901  -7.281  0.00  0.00     0.088 H 
ATOM      6  C4  JC5 d   1      -7.357 -38.172  -6.821  0.00  0.00    -0.065 A 
ATOM      7  C2  JC5 d   1      -8.581 -38.642  -6.356  0.00  0.00     0.004 A 
ATOM      8  H4  JC5 d   1      -6.540 -38.872  -6.950  0.00  0.00     0.085 H 
ATOM      9  C1  JC5 d   1      -9.619 -37.723  -6.207  0.00  0.00     0.109 A 
BRANCH   4  10
ATOM     10  C6  JC5 d   1      -5.755 -36.317  -7.448  0.00  0.00     0.103 C 
ATOM     11  H5  JC5 d   1      -5.654 -35.288  -7.072  0.00  0.00     0.082 H 
ATOM     12  H6  JC5 d   1      -5.011 -36.961  -6.958  0.00  0.00     0.082 H 
BRANCH  10  13
ATOM     13  N1  JC5 d   1      -5.519 -36.326  -8.902  0.00  0.00    -0.075 N 
ATOM     14  H1  JC5 d   1      -4.591 -35.983  -9.094  0.00  0.00     0.274 HD
ATOM     15  H2  JC5 d   1      -6.197 -35.734  -9.356  0.00  0.00     0.274 HD
ATOM     16  H3  JC5 d   1      -5.608 -37.267  -9.251  0.00  0.00     0.274 HD
ENDBRANCH  10  13
ENDBRANCH   4  10
BRANCH   7  17
ATOM     17  C3  JC5 d   1      -8.749 -40.100  -5.993  0.00  0.00     0.106 C 
ATOM     18  H26 JC5 d   1      -9.798 -40.286  -5.720  0.00  0.00     0.082 H 
ATOM     19  H27 JC5 d   1      -8.479 -40.722  -6.859  0.00  0.00     0.082 H 
BRANCH  17  20
ATOM     20  N   JC5 d   1      -7.891 -40.449  -4.866  0.00  0.00    -0.075 N 
ATOM     21  H12 JC5 d   1      -8.016 -41.423  -4.638  0.00  0.00     0.274 HD
ATOM     22  H13 JC5 d   1      -8.137 -39.883  -4.069  0.00  0.00     0.274 HD
ATOM     23  H14 JC5 d   1      -6.928 -40.282  -5.113  0.00  0.00     0.274 HD
ENDBRANCH  17  20
ENDBRANCH   7  17
BRANCH   9  24
ATOM     24  O   JC5 d   1     -10.814 -38.141  -5.663  0.00  0.00    -0.352 OA
BRANCH  24  25
ATOM     25  C   JC5 d   1     -11.792 -38.577  -6.606  0.00  0.00     0.011 C 
ATOM     26  H15 JC5 d   1     -12.703 -38.888  -6.073  0.00  0.00     0.067 H 
ATOM     27  H16 JC5 d   1     -11.395 -39.428  -7.179  0.00  0.00     0.067 H 
ATOM     28  H17 JC5 d   1     -12.033 -37.752  -7.293  0.00  0.00     0.067 H 
ENDBRANCH  24  25
ENDBRANCH   9  24
ENDBRANCH   1   2
BRANCH   1  29
ATOM     29  C9  JC5 d   1     -10.296 -34.186  -6.110  0.00  0.00     0.028 C 
ATOM     30  H28 JC5 d   1      -9.487 -34.060  -5.376  0.00  0.00     0.075 H 
ATOM     31  H29 JC5 d   1     -10.019 -33.687  -7.050  0.00  0.00     0.075 H 
BRANCH  29  32
ATOM     32  C10 JC5 d   1     -11.575 -33.600  -5.573  0.00  0.00    -0.022 C 
ATOM     33  H8  JC5 d   1     -11.415 -32.529  -5.383  0.00  0.00     0.038 H 
ATOM     34  H9  JC5 d   1     -12.361 -33.724  -6.332  0.00  0.00     0.038 H 
BRANCH  32  35
ATOM     35  C11 JC5 d   1     -12.044 -34.254  -4.282  0.00  0.00     0.086 C 
ATOM     36  H18 JC5 d   1     -12.883 -33.663  -3.885  0.00  0.00     0.076 H 
ATOM     37  H19 JC5 d   1     -11.209 -34.232  -3.566  0.00  0.00     0.076 H 
BRANCH  35  38
ATOM     38  N2  JC5 d   1     -12.492 -35.647  -4.417  0.00  0.00    -0.063 N 
ATOM     39  C12 JC5 d   1     -13.713 -35.775  -5.317  0.00  0.00     0.108 C 
ATOM     40  C13 JC5 d   1     -14.433 -36.950  -4.728  0.00  0.00    -0.025 A 
ATOM     41  H20 JC5 d   1     -14.334 -34.868  -5.275  0.00  0.00     0.083 H 
ATOM     42  H21 JC5 d   1     -13.419 -35.971  -6.359  0.00  0.00     0.083 H 
ATOM     43  C14 JC5 d   1     -15.458 -37.724  -5.263  0.00  0.00    -0.075 A 
ATOM     44  C18 JC5 d   1     -13.948 -37.234  -3.457  0.00  0.00    -0.025 A 
ATOM     45  C15 JC5 d   1     -15.993 -38.770  -4.530  0.00  0.00    -0.082 A 
ATOM     46  H22 JC5 d   1     -15.838 -37.508  -6.255  0.00  0.00     0.084 H 
ATOM     47  C16 JC5 d   1     -15.506 -39.054  -3.268  0.00  0.00    -0.082 A 
ATOM     48  H10 JC5 d   1     -16.796 -39.367  -4.947  0.00  0.00     0.083 H 
ATOM     49  C17 JC5 d   1     -14.485 -38.286  -2.728  0.00  0.00    -0.075 A 
ATOM     50  H23 JC5 d   1     -15.922 -39.878  -2.700  0.00  0.00     0.083 H 
ATOM     51  H11 JC5 d   1     -14.107 -38.507  -1.737  0.00  0.00     0.084 H 
ATOM     52  C19 JC5 d   1     -12.838 -36.291  -3.085  0.00  0.00     0.108 C 
ATOM     53  H24 JC5 d   1     -11.976 -36.835  -2.671  0.00  0.00     0.083 H 
ATOM     54  H25 JC5 d   1     -13.181 -35.540  -2.358  0.00  0.00     0.083 H 
ATOM     55  H30 JC5 d   1     -11.735 -36.167  -4.832  0.00  0.00     0.280 HD
ENDBRANCH  35  38
ENDBRANCH  32  35
ENDBRANCH  29  32
ENDBRANCH   1  29
TORSDOF 11
