REMARK  4 active torsions:
REMARK  status: ('A' for Active; 'I' for Inactive)
REMARK    1  A    between atoms: C13_1  and  C19_21 
REMARK    2  A    between atoms: C21_5  and  N24_24 
REMARK    3  A    between atoms: C09_14  and  C04_9 
REMARK    4  A    between atoms: N10_15  and  C09_14 
ROOT
ATOM      1  N01 JEW d   1     -23.943 -20.732   8.227  0.00  0.00    -0.191 NA
ATOM      2  C02 JEW d   1     -23.295 -21.668   8.326  0.00  0.00     0.100 C 
ATOM      3  C03 JEW d   1     -22.423 -22.902   8.442  0.00  0.00     0.052 A 
ATOM      4  C04 JEW d   1     -22.293 -23.694   9.593  0.00  0.00    -0.019 A 
ATOM      5  C05 JEW d   1     -21.460 -24.811   9.556  0.00  0.00    -0.074 A 
ATOM      6  C06 JEW d   1     -20.766 -25.145   8.411  0.00  0.00    -0.082 A 
ATOM      7  C07 JEW d   1     -20.896 -24.359   7.282  0.00  0.00    -0.082 A 
ATOM      8  C08 JEW d   1     -21.719 -23.250   7.298  0.00  0.00    -0.062 A 
ATOM      9  H4  JEW d   1     -21.356 -25.428  10.441  0.00  0.00     0.084 H 
ATOM     10  H5  JEW d   1     -20.123 -26.018   8.397  0.00  0.00     0.083 H 
ATOM     11  H6  JEW d   1     -20.350 -24.614   6.381  0.00  0.00     0.083 H 
ATOM     12  H7  JEW d   1     -21.816 -22.643   6.405  0.00  0.00     0.085 H 
ENDROOT
BRANCH   4  13
ATOM     13  C09 JEW d   1     -22.985 -23.477  10.929  0.00  0.00     0.025 C 
ATOM     14  H8  JEW d   1     -22.206 -23.353  11.696  0.00  0.00     0.072 H 
ATOM     15  H9  JEW d   1     -23.579 -24.376  11.151  0.00  0.00     0.072 H 
BRANCH  13  16
ATOM     16  N10 JEW d   1     -23.855 -22.349  11.003  0.00  0.00    -0.352 N 
ATOM     17  C11 JEW d   1     -23.458 -21.082  11.358  0.00  0.00     0.045 A 
ATOM     18  C12 JEW d   1     -22.191 -20.552  11.716  0.00  0.00    -0.044 A 
ATOM     19  C16 JEW d   1     -24.560 -20.253  11.322  0.00  0.00    -0.008 A 
ATOM     20  C13 JEW d   1     -22.098 -19.204  12.046  0.00  0.00    -0.006 A 
ATOM     21  H10 JEW d   1     -21.312 -21.186  11.732  0.00  0.00     0.088 H 
ATOM     22  C14 JEW d   1     -23.207 -18.352  11.999  0.00  0.00    -0.070 A 
ATOM     23  C15 JEW d   1     -24.449 -18.876  11.638  0.00  0.00    -0.070 A 
ATOM     24  H11 JEW d   1     -23.103 -17.300  12.239  0.00  0.00     0.084 H 
ATOM     25  H1  JEW d   1     -25.322 -18.235  11.600  0.00  0.00     0.084 H 
ATOM     26  C17 JEW d   1     -25.652 -21.097  10.919  0.00  0.00    -0.056 A 
ATOM     27  C18 JEW d   1     -25.163 -22.381  10.742  0.00  0.00    -0.019 A 
ATOM     28  H2  JEW d   1     -26.685 -20.782  10.777  0.00  0.00     0.086 H 
ATOM     29  H12 JEW d   1     -25.740 -23.255  10.445  0.00  0.00     0.111 H 
BRANCH  20  30
ATOM     30  C19 JEW d   1     -20.735 -18.665  12.361  0.00  0.00     0.064 A 
ATOM     31  C20 JEW d   1     -20.318 -17.351  12.314  0.00  0.00    -0.010 A 
ATOM     32  C21 JEW d   1     -18.954 -17.362  12.611  0.00  0.00     0.143 A 
ATOM     33  H3  JEW d   1     -20.931 -16.479  12.090  0.00  0.00     0.093 H 
ATOM     34  N22 JEW d   1     -18.597 -18.653  12.787  0.00  0.00    -0.157 NA
ATOM     35  N23 JEW d   1     -19.688 -19.445  12.623  0.00  0.00    -0.276 N 
ATOM     36  H13 JEW d   1     -19.703 -20.473  12.690  0.00  0.00     0.189 HD
BRANCH  32  37
ATOM     37  N24 JEW d   1     -18.069 -16.246  12.712  0.00  0.00    -0.383 N 
ATOM     38  H14 JEW d   1     -17.076 -16.395  12.940  0.00  0.00     0.157 HD
ATOM     39  H15 JEW d   1     -18.424 -15.292  12.557  0.00  0.00     0.157 HD
ENDBRANCH  32  37
ENDBRANCH  20  30
ENDBRANCH  13  16
ENDBRANCH   4  13
TORSDOF 4
