REMARK  4 active torsions:
REMARK  status: ('A' for Active; 'I' for Inactive)
REMARK    1  A    between atoms: C14_19  and  C15_2 
REMARK    2  A    between atoms: C02_8  and  N01_7 
REMARK    3  A    between atoms: C07_13  and  C05_11 
REMARK    4  A    between atoms: N13_18  and  C14_19 
ROOT
ATOM      1  C10 JDQ d   1     -24.389  20.263 -11.185  0.00  0.00    -0.008 A 
ATOM      2  C21 JDQ d   1     -24.991  22.415 -10.646  0.00  0.00    -0.019 A 
ATOM      3  C22 JDQ d   1     -25.479  21.108 -10.785  0.00  0.00    -0.056 A 
ATOM      4  C07 JDQ d   1     -21.908  19.163 -11.959  0.00  0.00    -0.003 A 
ATOM      5  C08 JDQ d   1     -23.019  18.325 -11.868  0.00  0.00    -0.070 A 
ATOM      6  C09 JDQ d   1     -24.270  18.871 -11.480  0.00  0.00    -0.070 A 
ATOM      7  C11 JDQ d   1     -23.300  21.084 -11.273  0.00  0.00     0.045 A 
ATOM      8  C12 JDQ d   1     -22.022  20.519 -11.664  0.00  0.00    -0.044 A 
ATOM      9  N13 JDQ d   1     -23.710  22.393 -10.939  0.00  0.00    -0.352 N 
ATOM     10  H3  JDQ d   1     -25.568  23.289 -10.349  0.00  0.00     0.111 H 
ATOM     11  H4  JDQ d   1     -26.507  20.789 -10.618  0.00  0.00     0.086 H 
ATOM     12  H9  JDQ d   1     -22.928  17.268 -12.091  0.00  0.00     0.084 H 
ATOM     13  H10 JDQ d   1     -25.140  18.228 -11.407  0.00  0.00     0.084 H 
ATOM     14  H11 JDQ d   1     -21.149  21.158 -11.727  0.00  0.00     0.088 H 
ENDROOT
BRANCH   9  15
ATOM     15  C14 JDQ d   1     -22.870  23.558 -10.896  0.00  0.00     0.023 C 
ATOM     16  H12 JDQ d   1     -22.125  23.498 -11.703  0.00  0.00     0.072 H 
ATOM     17  H13 JDQ d   1     -23.489  24.457 -11.034  0.00  0.00     0.072 H 
BRANCH  15  18
ATOM     18  C15 JDQ d   1     -22.142  23.643  -9.534  0.00  0.00    -0.040 A 
ATOM     19  C20 JDQ d   1     -20.999  24.464  -9.396  0.00  0.00    -0.075 A 
ATOM     20  C19 JDQ d   1     -20.335  24.544  -8.151  0.00  0.00    -0.082 A 
ATOM     21  H2  JDQ d   1     -20.633  25.031 -10.244  0.00  0.00     0.084 H 
ATOM     22  C18 JDQ d   1     -20.815  23.800  -7.047  0.00  0.00    -0.083 A 
ATOM     23  H16 JDQ d   1     -19.460  25.174  -8.042  0.00  0.00     0.083 H 
ATOM     24  C17 JDQ d   1     -21.963  22.983  -7.184  0.00  0.00    -0.082 A 
ATOM     25  H15 JDQ d   1     -20.302  23.856  -6.094  0.00  0.00     0.083 H 
ATOM     26  C16 JDQ d   1     -22.628  22.908  -8.423  0.00  0.00    -0.075 A 
ATOM     27  H1  JDQ d   1     -22.330  22.416  -6.336  0.00  0.00     0.083 H 
ATOM     28  H14 JDQ d   1     -23.511  22.288  -8.527  0.00  0.00     0.084 H 
ENDBRANCH  15  18
ENDBRANCH   9  15
BRANCH   4  29
ATOM     29  C05 JDQ d   1     -20.544  18.617 -12.287  0.00  0.00     0.090 A 
ATOM     30  N04 JDQ d   1     -19.479  19.369 -12.546  0.00  0.00    -0.173 NA
ATOM     31  N03 JDQ d   1     -18.404  18.610 -12.727  0.00  0.00    -0.262 N 
ATOM     32  C02 JDQ d   1     -18.761  17.342 -12.551  0.00  0.00     0.117 A 
ATOM     33  H7  JDQ d   1     -17.459  18.945 -12.963  0.00  0.00     0.191 HD
ATOM     34  C06 JDQ d   1     -20.141  17.336 -12.240  0.00  0.00    -0.009 A 
ATOM     35  H8  JDQ d   1     -20.755  16.466 -12.009  0.00  0.00     0.093 H 
BRANCH  32  36
ATOM     36  N01 JDQ d   1     -17.888  16.221 -12.652  0.00  0.00    -0.384 N 
ATOM     37  H5  JDQ d   1     -18.252  15.270 -12.499  0.00  0.00     0.157 HD
ATOM     38  H6  JDQ d   1     -16.893  16.362 -12.878  0.00  0.00     0.157 HD
ENDBRANCH  32  36
ENDBRANCH   4  29
TORSDOF 4
