REMARK  4 active torsions:
REMARK  status: ('A' for Active; 'I' for Inactive)
REMARK    1  A    between atoms: C16_21  and  C17_3 
REMARK    2  A    between atoms: C02_9  and  N01_8 
REMARK    3  A    between atoms: C09_16  and  C05_12 
REMARK    4  A    between atoms: N15_20  and  C16_21 
ROOT
ATOM      1  C02 JEB d   1     -18.629  17.700 -12.695  0.00  0.00     0.138 A 
ATOM      2  N03 JEB d   1     -18.383  18.960 -12.588  0.00  0.00    -0.261 N 
ATOM      3  N04 JEB d   1     -19.566  19.613 -12.336  0.00  0.00    -0.171 NA
ATOM      4  C05 JEB d   1     -20.548  18.758 -12.326  0.00  0.00     0.111 A 
ATOM      5  C06 JEB d   1     -20.028  17.521 -12.489  0.00  0.00     0.120 A 
ATOM      6  C07 JEB d   1     -20.673  16.158 -12.549  0.00  0.00     0.106 C 
ATOM      7  N08 JEB d   1     -21.116  15.107 -12.600  0.00  0.00    -0.191 NA
ATOM      8  H8  JEB d   1     -17.457  19.403 -12.676  0.00  0.00     0.191 HD
ENDROOT
BRANCH   1   9
ATOM      9  N01 JEB d   1     -17.719  16.647 -12.923  0.00  0.00    -0.383 N 
ATOM     10  H6  JEB d   1     -18.059  15.677 -12.987  0.00  0.00     0.157 HD
ATOM     11  H7  JEB d   1     -16.714  16.848 -13.026  0.00  0.00     0.157 HD
ENDBRANCH   1   9
BRANCH   4  12
ATOM     12  C09 JEB d   1     -21.962  19.196 -11.975  0.00  0.00    -0.002 A 
ATOM     13  C10 JEB d   1     -23.015  18.246 -11.853  0.00  0.00    -0.070 A 
ATOM     14  C11 JEB d   1     -24.298  18.690 -11.436  0.00  0.00    -0.070 A 
ATOM     15  H1  JEB d   1     -22.840  17.200 -12.075  0.00  0.00     0.084 H 
ATOM     16  C12 JEB d   1     -24.514  20.077 -11.123  0.00  0.00    -0.008 A 
ATOM     17  H9  JEB d   1     -25.115  17.983 -11.354  0.00  0.00     0.084 H 
ATOM     18  C13 JEB d   1     -23.455  21.013 -11.237  0.00  0.00     0.045 A 
ATOM     19  C24 JEB d   1     -25.636  20.832 -10.678  0.00  0.00    -0.056 A 
ATOM     20  C14 JEB d   1     -22.151  20.573 -11.641  0.00  0.00    -0.044 A 
ATOM     21  N15 JEB d   1     -23.931  22.258 -10.871  0.00  0.00    -0.352 N 
ATOM     22  H10 JEB d   1     -21.324  21.272 -11.692  0.00  0.00     0.088 H 
ATOM     23  C23 JEB d   1     -25.245  22.191 -10.539  0.00  0.00    -0.019 A 
ATOM     24  H14 JEB d   1     -25.878  23.020 -10.226  0.00  0.00     0.111 H 
ATOM     25  H5  JEB d   1     -26.630  20.434 -10.477  0.00  0.00     0.086 H 
BRANCH  21  26
ATOM     26  C16 JEB d   1     -23.125  23.513 -10.858  0.00  0.00     0.025 C 
ATOM     27  H11 JEB d   1     -22.468  23.522 -11.740  0.00  0.00     0.072 H 
ATOM     28  H12 JEB d   1     -23.808  24.374 -10.901  0.00  0.00     0.072 H 
BRANCH  26  29
ATOM     29  C17 JEB d   1     -22.239  23.633  -9.565  0.00  0.00    -0.022 A 
ATOM     30  C22 JEB d   1     -21.041  24.356  -9.628  0.00  0.00    -0.072 A 
ATOM     31  C21 JEB d   1     -20.264  24.455  -8.438  0.00  0.00    -0.065 A 
ATOM     32  H4  JEB d   1     -20.716  24.824 -10.550  0.00  0.00     0.084 H 
ATOM     33  C20 JEB d   1     -20.744  23.838  -7.268  0.00  0.00     0.002 A 
ATOM     34  H3  JEB d   1     -19.323  24.994  -8.434  0.00  0.00     0.085 H 
ATOM     35  N19 JEB d   1     -21.900  23.173  -7.247  0.00  0.00    -0.273 NA
ATOM     36  H2  JEB d   1     -20.158  23.905  -6.359  0.00  0.00     0.114 H 
ATOM     37  C18 JEB d   1     -22.650  23.045  -8.323  0.00  0.00     0.009 A 
ATOM     38  H13 JEB d   1     -23.581  22.493  -8.269  0.00  0.00     0.115 H 
ENDBRANCH  26  29
ENDBRANCH  21  26
ENDBRANCH   4  12
TORSDOF 4
