REMARK  4 active torsions:
REMARK  status: ('A' for Active; 'I' for Inactive)
REMARK    1  A    between atoms: C18_20  and  C15_3 
REMARK    2  A    between atoms: C22_6  and  N25_25 
REMARK    3  A    between atoms: C08_14  and  C07_13 
REMARK    4  A    between atoms: N09_15  and  C08_14 
ROOT
ATOM      1  C20 JQB d   1     -20.898  15.955 -12.533  0.00  0.00     0.106 C 
ATOM      2  C22 JQB d   1     -18.882  17.475 -12.611  0.00  0.00     0.138 A 
ATOM      3  C18 JQB d   1     -20.766  18.589 -12.244  0.00  0.00     0.111 A 
ATOM      4  C19 JQB d   1     -20.249  17.313 -12.438  0.00  0.00     0.120 A 
ATOM      5  N21 JQB d   1     -21.345  14.905 -12.618  0.00  0.00    -0.191 NA
ATOM      6  N23 JQB d   1     -18.594  18.806 -12.491  0.00  0.00    -0.261 N 
ATOM      7  N24 JQB d   1     -19.729  19.471 -12.245  0.00  0.00    -0.171 NA
ATOM      8  H12 JQB d   1     -17.658  19.227 -12.576  0.00  0.00     0.191 HD
ENDROOT
BRANCH   2   9
ATOM      9  N25 JQB d   1     -17.913  16.444 -12.866  0.00  0.00    -0.383 N 
ATOM     10  H13 JQB d   1     -18.214  15.462 -12.943  0.00  0.00     0.157 HD
ATOM     11  H14 JQB d   1     -16.918  16.687 -12.972  0.00  0.00     0.157 HD
ENDBRANCH   2   9
BRANCH   3  12
ATOM     12  C15 JQB d   1     -22.152  19.051 -11.905  0.00  0.00    -0.002 A 
ATOM     13  C14 JQB d   1     -22.299  20.411 -11.546  0.00  0.00    -0.044 A 
ATOM     14  C13 JQB d   1     -23.578  20.863 -11.142  0.00  0.00     0.045 A 
ATOM     15  H10 JQB d   1     -21.454  21.090 -11.579  0.00  0.00     0.088 H 
ATOM     16  N09 JQB d   1     -24.033  22.103 -10.754  0.00  0.00    -0.352 N 
ATOM     17  C12 JQB d   1     -24.661  19.950 -11.067  0.00  0.00    -0.008 A 
ATOM     18  C10 JQB d   1     -25.339  22.057 -10.438  0.00  0.00    -0.019 A 
ATOM     19  C11 JQB d   1     -25.776  20.718 -10.621  0.00  0.00    -0.056 A 
ATOM     20  H1  JQB d   1     -25.950  22.894 -10.103  0.00  0.00     0.111 H 
ATOM     21  H9  JQB d   1     -26.785  20.344 -10.451  0.00  0.00     0.086 H 
ATOM     22  C17 JQB d   1     -24.475  18.562 -11.404  0.00  0.00    -0.070 A 
ATOM     23  C16 JQB d   1     -23.229  18.113 -11.817  0.00  0.00    -0.070 A 
ATOM     24  H2  JQB d   1     -25.306  17.870 -11.335  0.00  0.00     0.084 H 
ATOM     25  H11 JQB d   1     -23.074  17.070 -12.069  0.00  0.00     0.084 H 
BRANCH  16  26
ATOM     26  C08 JQB d   1     -23.215  23.305 -10.696  0.00  0.00     0.027 C 
ATOM     27  H7  JQB d   1     -22.426  23.239 -11.460  0.00  0.00     0.072 H 
ATOM     28  H8  JQB d   1     -23.849  24.180 -10.899  0.00  0.00     0.072 H 
BRANCH  26  29
ATOM     29  C07 JQB d   1     -22.580  23.465  -9.353  0.00  0.00     0.014 A 
ATOM     30  C02 JQB d   1     -21.827  24.621  -9.082  0.00  0.00     0.186 A 
ATOM     31  O01 JQB d   1     -21.694  25.600 -10.106  0.00  0.00    -0.172 OA
ATOM     32  N03 JQB d   1     -21.250  24.816  -7.935  0.00  0.00    -0.344 N 
ATOM     33  C04 JQB d   1     -21.352  23.920  -6.949  0.00  0.00    -0.021 A 
ATOM     34  H3  JQB d   1     -20.720  25.651  -7.787  0.00  0.00     0.167 HD
ATOM     35  C05 JQB d   1     -22.082  22.729  -7.114  0.00  0.00    -0.067 A 
ATOM     36  H4  JQB d   1     -20.860  24.116  -5.998  0.00  0.00     0.111 H 
ATOM     37  C06 JQB d   1     -22.716  22.478  -8.328  0.00  0.00    -0.070 A 
ATOM     38  H5  JQB d   1     -22.151  22.009  -6.299  0.00  0.00     0.085 H 
ATOM     39  H6  JQB d   1     -23.291  21.568  -8.490  0.00  0.00     0.084 H 
ENDBRANCH  26  29
ENDBRANCH  16  26
ENDBRANCH   3  12
TORSDOF 4
