REMARK  5 active torsions:
REMARK  status: ('A' for Active; 'I' for Inactive)
REMARK    1  A    between atoms: C12_18  and  C13_2 
REMARK    2  A    between atoms: C17_4  and  N18_21 
REMARK    3  A    between atoms: N02_9  and  C01_8 
REMARK    4  A    between atoms: C08_15  and  C07_14 
REMARK    5  A    between atoms: C08_15  and  N09_16 
ROOT
ATOM      1  C13 JE8 d   1     -20.654  18.706 -12.167  0.00  0.00     0.111 A 
ATOM      2  C15 JE8 d   1     -20.845  16.043 -12.394  0.00  0.00     0.106 C 
ATOM      3  C17 JE8 d   1     -18.796  17.558 -12.590  0.00  0.00     0.138 A 
ATOM      4  C14 JE8 d   1     -20.151  17.419 -12.343  0.00  0.00     0.120 A 
ATOM      5  N16 JE8 d   1     -21.297  14.983 -12.445  0.00  0.00    -0.191 NA
ATOM      6  N19 JE8 d   1     -18.484  18.865 -12.507  0.00  0.00    -0.261 N 
ATOM      7  N20 JE8 d   1     -19.620  19.558 -12.224  0.00  0.00    -0.171 NA
ATOM      8  H22 JE8 d   1     -17.546  19.271 -12.636  0.00  0.00     0.191 HD
ENDROOT
BRANCH   1   9
ATOM      9  C12 JE8 d   1     -22.009  19.174 -11.778  0.00  0.00    -0.002 A 
ATOM     10  C21 JE8 d   1     -23.084  18.249 -11.583  0.00  0.00    -0.070 A 
ATOM     11  C22 JE8 d   1     -24.321  18.704 -11.128  0.00  0.00    -0.070 A 
ATOM     12  H1  JE8 d   1     -22.936  17.195 -11.789  0.00  0.00     0.084 H 
ATOM     13  C23 JE8 d   1     -24.487  20.107 -10.849  0.00  0.00    -0.008 A 
ATOM     14  H2  JE8 d   1     -25.144  18.013 -10.987  0.00  0.00     0.084 H 
ATOM     15  C10 JE8 d   1     -23.406  21.011 -11.017  0.00  0.00     0.045 A 
ATOM     16  C24 JE8 d   1     -25.598  20.909 -10.374  0.00  0.00    -0.056 A 
ATOM     17  N09 JE8 d   1     -23.847  22.289 -10.664  0.00  0.00    -0.356 N 
ATOM     18  C11 JE8 d   1     -22.142  20.546 -11.473  0.00  0.00    -0.044 A 
ATOM     19  C25 JE8 d   1     -25.143  22.252 -10.295  0.00  0.00    -0.019 A 
ATOM     20  H23 JE8 d   1     -25.741  23.109  -9.988  0.00  0.00     0.111 H 
ATOM     21  H19 JE8 d   1     -21.305  21.225 -11.583  0.00  0.00     0.088 H 
ATOM     22  H3  JE8 d   1     -26.595  20.549 -10.124  0.00  0.00     0.086 H 
BRANCH  17  23
ATOM     23  C08 JE8 d   1     -23.030  23.499 -10.744  0.00  0.00     0.004 C 
ATOM     24  H17 JE8 d   1     -22.493  23.485 -11.704  0.00  0.00     0.065 H 
ATOM     25  H18 JE8 d   1     -23.703  24.368 -10.713  0.00  0.00     0.065 H 
BRANCH  23  26
ATOM     26  C07 JE8 d   1     -21.970  23.661  -9.594  0.00  0.00    -0.015 C 
ATOM     27  C03 JE8 d   1     -22.594  23.742  -8.207  0.00  0.00     0.088 C 
ATOM     28  N02 JE8 d   1     -21.653  24.076  -7.179  0.00  0.00    -0.074 N 
ATOM     29  H8  JE8 d   1     -23.381  24.511  -8.223  0.00  0.00     0.076 H 
ATOM     30  H9  JE8 d   1     -23.040  22.765  -7.968  0.00  0.00     0.076 H 
ATOM     31  C04 JE8 d   1     -20.731  25.134  -7.485  0.00  0.00     0.083 C 
ATOM     32  H7  JE8 d   1     -21.098  23.249  -7.021  0.00  0.00     0.279 HD
ATOM     33  C05 JE8 d   1     -20.213  25.151  -8.904  0.00  0.00    -0.042 C 
ATOM     34  H10 JE8 d   1     -19.868  25.038  -6.810  0.00  0.00     0.075 H 
ATOM     35  H11 JE8 d   1     -21.239  26.092  -7.298  0.00  0.00     0.075 H 
ATOM     36  C06 JE8 d   1     -21.187  24.817  -9.907  0.00  0.00    -0.057 C 
ATOM     37  H12 JE8 d   1     -19.387  24.428  -8.975  0.00  0.00     0.035 H 
ATOM     38  H13 JE8 d   1     -19.835  26.162  -9.118  0.00  0.00     0.035 H 
ATOM     39  H14 JE8 d   1     -20.659  24.631 -10.854  0.00  0.00     0.033 H 
ATOM     40  H15 JE8 d   1     -21.867  25.673 -10.028  0.00  0.00     0.033 H 
ATOM     41  H16 JE8 d   1     -21.311  22.780  -9.605  0.00  0.00     0.045 H 
BRANCH  28  42
ATOM     42  C01 JE8 d   1     -22.237  24.332  -6.146  0.00  0.00     0.066 C 
ATOM     43  H4  JE8 d   1     -22.943  23.521  -5.913  0.00  0.00     0.068 H 
ATOM     44  H5  JE8 d   1     -22.789  25.276  -6.261  0.00  0.00     0.068 H 
ATOM     45  H6  JE8 d   1     -21.509  24.430  -5.328  0.00  0.00     0.068 H 
ENDBRANCH  28  42
ENDBRANCH  23  26
ENDBRANCH  17  23
ENDBRANCH   1   9
BRANCH   3  46
ATOM     46  N18 JE8 d   1     -17.855  16.528 -12.862  0.00  0.00    -0.383 N 
ATOM     47  H20 JE8 d   1     -16.867  16.765 -13.030  0.00  0.00     0.157 HD
ATOM     48  H21 JE8 d   1     -18.161  15.545 -12.891  0.00  0.00     0.157 HD
ENDBRANCH   3  46
TORSDOF 5
