REMARK  5 active torsions:
REMARK  status: ('A' for Active; 'I' for Inactive)
REMARK    1  A    between atoms: C15_3  and  N14_19 
REMARK    2  A    between atoms: C16_20  and  C15_3 
REMARK    3  A    between atoms: N21_23  and  C22_6 
REMARK    4  A    between atoms: C02_9  and  N01_8 
REMARK    5  A    between atoms: C06_13  and  C05_12 
ROOT
ATOM      1  C24 JD8 d   1     -20.763  16.111 -12.459  0.00  0.00     0.106 C 
ATOM      2  C02 JD8 d   1     -18.752  17.640 -12.635  0.00  0.00     0.138 A 
ATOM      3  N03 JD8 d   1     -18.469  18.977 -12.556  0.00  0.00    -0.261 N 
ATOM      4  N04 JD8 d   1     -19.612  19.635 -12.313  0.00  0.00    -0.171 NA
ATOM      5  C05 JD8 d   1     -20.624  18.745 -12.266  0.00  0.00     0.111 A 
ATOM      6  C23 JD8 d   1     -20.107  17.463 -12.417  0.00  0.00     0.120 A 
ATOM      7  N25 JD8 d   1     -21.180  15.067 -12.499  0.00  0.00    -0.191 NA
ATOM      8  H14 JD8 d   1     -17.538  19.404 -12.665  0.00  0.00     0.191 HD
ENDROOT
BRANCH   2   9
ATOM      9  N01 JD8 d   1     -17.767  16.631 -12.892  0.00  0.00    -0.383 N 
ATOM     10  H12 JD8 d   1     -18.045  15.640 -12.939  0.00  0.00     0.157 HD
ATOM     11  H13 JD8 d   1     -16.781  16.897 -13.029  0.00  0.00     0.157 HD
ENDBRANCH   2   9
BRANCH   5  12
ATOM     12  C06 JD8 d   1     -22.041  19.184 -11.881  0.00  0.00    -0.002 A 
ATOM     13  C07 JD8 d   1     -22.214  20.547 -11.579  0.00  0.00    -0.044 A 
ATOM     14  C08 JD8 d   1     -23.477  20.963 -11.127  0.00  0.00     0.045 A 
ATOM     15  H15 JD8 d   1     -21.399  21.253 -11.691  0.00  0.00     0.088 H 
ATOM     16  C09 JD8 d   1     -24.500  20.048 -10.959  0.00  0.00    -0.008 A 
ATOM     17  N14 JD8 d   1     -23.926  22.246 -10.776  0.00  0.00    -0.354 N 
ATOM     18  C10 JD8 d   1     -24.295  18.647 -11.244  0.00  0.00    -0.070 A 
ATOM     19  C12 JD8 d   1     -25.594  20.814 -10.489  0.00  0.00    -0.056 A 
ATOM     20  C11 JD8 d   1     -23.067  18.225 -11.676  0.00  0.00    -0.070 A 
ATOM     21  H1  JD8 d   1     -25.105  17.938 -11.117  0.00  0.00     0.084 H 
ATOM     22  H16 JD8 d   1     -22.881  17.173 -11.859  0.00  0.00     0.084 H 
ATOM     23  C13 JD8 d   1     -25.175  22.183 -10.400  0.00  0.00    -0.019 A 
ATOM     24  H17 JD8 d   1     -26.582  20.430 -10.239  0.00  0.00     0.086 H 
ATOM     25  H2  JD8 d   1     -25.790  23.021 -10.076  0.00  0.00     0.111 H 
BRANCH  17  26
ATOM     26  C15 JD8 d   1     -23.104  23.445 -10.847  0.00  0.00     0.026 C 
ATOM     27  H3  JD8 d   1     -23.708  24.264 -11.264  0.00  0.00     0.068 H 
ATOM     28  H4  JD8 d   1     -22.247  23.248 -11.508  0.00  0.00     0.068 H 
BRANCH  26  29
ATOM     29  C16 JD8 d   1     -22.580  23.869  -9.474  0.00  0.00     0.119 C 
ATOM     30  C17 JD8 d   1     -21.521  22.897  -8.954  0.00  0.00    -0.036 C 
ATOM     31  C18 JD8 d   1     -21.088  23.233  -7.625  0.00  0.00    -0.062 C 
ATOM     32  H5  JD8 d   1     -20.652  22.924  -9.628  0.00  0.00     0.036 H 
ATOM     33  H6  JD8 d   1     -21.945  21.882  -8.943  0.00  0.00     0.036 H 
ATOM     34  C19 JD8 d   1     -20.743  24.615  -7.448  0.00  0.00    -0.042 C 
ATOM     35  H19 JD8 d   1     -20.204  22.624  -7.386  0.00  0.00     0.033 H 
ATOM     36  H20 JD8 d   1     -21.901  22.989  -6.926  0.00  0.00     0.033 H 
ATOM     37  C20 JD8 d   1     -21.610  25.639  -8.199  0.00  0.00     0.084 C 
ATOM     38  H21 JD8 d   1     -20.812  24.842  -6.374  0.00  0.00     0.035 H 
ATOM     39  H22 JD8 d   1     -19.704  24.746  -7.784  0.00  0.00     0.035 H 
ATOM     40  N21 JD8 d   1     -22.124  25.230  -9.477  0.00  0.00    -0.069 N 
ATOM     41  H7  JD8 d   1     -21.000  26.541  -8.357  0.00  0.00     0.076 H 
ATOM     42  H8  JD8 d   1     -22.469  25.885  -7.557  0.00  0.00     0.076 H 
ATOM     43  H23 JD8 d   1     -22.919  25.811  -9.691  0.00  0.00     0.280 HD
ATOM     44  H18 JD8 d   1     -23.429  23.819  -8.776  0.00  0.00     0.087 H 
BRANCH  40  45
ATOM     45  C22 JD8 d   1     -21.247  25.434 -10.354  0.00  0.00     0.067 C 
ATOM     46  H9  JD8 d   1     -21.632  25.124 -11.337  0.00  0.00     0.068 H 
ATOM     47  H10 JD8 d   1     -20.345  24.852 -10.113  0.00  0.00     0.068 H 
ATOM     48  H11 JD8 d   1     -20.997  26.505 -10.380  0.00  0.00     0.068 H 
ENDBRANCH  40  45
ENDBRANCH  26  29
ENDBRANCH  17  26
ENDBRANCH   5  12
TORSDOF 5
