REMARK  6 active torsions:
REMARK  status: ('A' for Active; 'I' for Inactive)
REMARK    1  A    between atoms: C15_3  and  N14_21 
REMARK    2  A    between atoms: C16_22  and  C15_3 
REMARK    3  A    between atoms: C19_24  and  C20_5 
REMARK    4  A    between atoms: C20_5  and  N21_25 
REMARK    5  A    between atoms: C02_11  and  N01_10 
REMARK    6  A    between atoms: C06_15  and  C05_14 
ROOT
ATOM      1  C02 JEK d   1     -18.719 -17.834  12.741  0.00  0.00     0.138 A 
ATOM      2  N03 JEK d   1     -18.457 -19.170  12.636  0.00  0.00    -0.261 N 
ATOM      3  N04 JEK d   1     -19.629 -19.797  12.404  0.00  0.00    -0.171 NA
ATOM      4  C05 JEK d   1     -20.645 -18.922  12.389  0.00  0.00     0.111 A 
ATOM      5  C29 JEK d   1     -20.096 -17.666  12.564  0.00  0.00     0.120 A 
ATOM      6  C30 JEK d   1     -20.798 -16.264  12.626  0.00  0.00     0.106 C 
ATOM      7  N31 JEK d   1     -21.269 -15.200  12.677  0.00  0.00    -0.191 NA
ATOM      8  H17 JEK d   1     -17.533 -19.618  12.719  0.00  0.00     0.191 HD
ENDROOT
BRANCH   1   9
ATOM      9  N01 JEK d   1     -17.809 -16.844  12.990  0.00  0.00    -0.383 N 
ATOM     10  H15 JEK d   1     -18.118 -15.863  13.049  0.00  0.00     0.157 HD
ATOM     11  H16 JEK d   1     -16.814 -17.079  13.119  0.00  0.00     0.157 HD
ENDBRANCH   1   9
BRANCH   4  12
ATOM     12  C06 JEK d   1     -22.081 -19.342  12.044  0.00  0.00    -0.002 A 
ATOM     13  C07 JEK d   1     -22.286 -20.685  11.732  0.00  0.00    -0.044 A 
ATOM     14  C08 JEK d   1     -23.580 -21.120  11.330  0.00  0.00     0.045 A 
ATOM     15  H18 JEK d   1     -21.467 -21.392  11.795  0.00  0.00     0.088 H 
ATOM     16  C09 JEK d   1     -24.616 -20.222  11.212  0.00  0.00    -0.008 A 
ATOM     17  N14 JEK d   1     -24.046 -22.399  10.977  0.00  0.00    -0.352 N 
ATOM     18  C10 JEK d   1     -24.398 -18.860  11.501  0.00  0.00    -0.070 A 
ATOM     19  C12 JEK d   1     -25.769 -21.018  10.782  0.00  0.00    -0.056 A 
ATOM     20  C11 JEK d   1     -23.117 -18.422  11.903  0.00  0.00    -0.070 A 
ATOM     21  H1  JEK d   1     -25.212 -18.150  11.415  0.00  0.00     0.084 H 
ATOM     22  H19 JEK d   1     -22.940 -17.371  12.102  0.00  0.00     0.084 H 
ATOM     23  C13 JEK d   1     -25.345 -22.357  10.665  0.00  0.00    -0.019 A 
ATOM     24  H20 JEK d   1     -26.773 -20.642  10.588  0.00  0.00     0.086 H 
ATOM     25  H2  JEK d   1     -25.964 -23.204  10.373  0.00  0.00     0.111 H 
BRANCH  17  26
ATOM     26  C15 JEK d   1     -23.207 -23.617  11.013  0.00  0.00     0.023 C 
ATOM     27  H3  JEK d   1     -23.864 -24.487  11.158  0.00  0.00     0.072 H 
ATOM     28  H4  JEK d   1     -22.514 -23.535  11.863  0.00  0.00     0.072 H 
BRANCH  26  29
ATOM     29  C16 JEK d   1     -22.389 -23.839   9.745  0.00  0.00    -0.040 A 
ATOM     30  C17 JEK d   1     -22.855 -23.475   8.486  0.00  0.00    -0.075 A 
ATOM     31  C18 JEK d   1     -22.061 -23.737   7.349  0.00  0.00    -0.075 A 
ATOM     32  H5  JEK d   1     -23.820 -22.994   8.379  0.00  0.00     0.084 H 
ATOM     33  C19 JEK d   1     -20.779 -24.356   7.489  0.00  0.00    -0.033 A 
ATOM     34  H21 JEK d   1     -22.425 -23.468   6.364  0.00  0.00     0.084 H 
ATOM     35  C27 JEK d   1     -20.335 -24.711   8.725  0.00  0.00    -0.075 A 
ATOM     36  C28 JEK d   1     -21.137 -24.453   9.878  0.00  0.00    -0.075 A 
ATOM     37  H27 JEK d   1     -19.369 -25.191   8.835  0.00  0.00     0.084 H 
ATOM     38  H14 JEK d   1     -20.775 -24.734  10.861  0.00  0.00     0.084 H 
BRANCH  33  39
ATOM     39  C20 JEK d   1     -19.874 -24.655   6.229  0.00  0.00     0.107 C 
ATOM     40  H6  JEK d   1     -18.813 -24.612   6.516  0.00  0.00     0.083 H 
ATOM     41  H7  JEK d   1     -20.072 -23.910   5.444  0.00  0.00     0.083 H 
BRANCH  39  42
ATOM     42  N21 JEK d   1     -20.139 -25.748   5.824  0.00  0.00    -0.067 N 
ATOM     43  C22 JEK d   1     -19.347 -26.851   6.379  0.00  0.00     0.084 C 
ATOM     44  C23 JEK d   1     -18.659 -27.759   5.372  0.00  0.00    -0.042 C 
ATOM     45  H8  JEK d   1     -20.020 -27.474   6.987  0.00  0.00     0.076 H 
ATOM     46  H9  JEK d   1     -18.569 -26.415   7.023  0.00  0.00     0.076 H 
ATOM     47  C24 JEK d   1     -19.454 -27.984   4.215  0.00  0.00    -0.062 C 
ATOM     48  H23 JEK d   1     -18.452 -28.727   5.852  0.00  0.00     0.035 H 
ATOM     49  H24 JEK d   1     -17.712 -27.292   5.064  0.00  0.00     0.035 H 
ATOM     50  C25 JEK d   1     -19.742 -26.714   3.560  0.00  0.00    -0.042 C 
ATOM     51  H10 JEK d   1     -20.398 -28.466   4.509  0.00  0.00     0.033 H 
ATOM     52  H11 JEK d   1     -18.909 -28.639   3.519  0.00  0.00     0.033 H 
ATOM     53  C26 JEK d   1     -20.547 -25.791   4.459  0.00  0.00     0.084 C 
ATOM     54  H25 JEK d   1     -20.316 -26.908   2.642  0.00  0.00     0.035 H 
ATOM     55  H26 JEK d   1     -18.793 -26.222   3.302  0.00  0.00     0.035 H 
ATOM     56  H12 JEK d   1     -20.472 -24.772   4.051  0.00  0.00     0.076 H 
ATOM     57  H13 JEK d   1     -21.596 -26.121   4.430  0.00  0.00     0.076 H 
ATOM     58  H22 JEK d   1     -21.021 -25.916   6.282  0.00  0.00     0.280 HD
ENDBRANCH  39  42
ENDBRANCH  33  39
ENDBRANCH  26  29
ENDBRANCH  17  26
ENDBRANCH   4  12
TORSDOF 6
