REMARK  6 active torsions:
REMARK  status: ('A' for Active; 'I' for Inactive)
REMARK    1  A    between atoms: C15_2  and  C14_19 
REMARK    2  A    between atoms: O21_23  and  C22_5 
REMARK    3  A    between atoms: C02_8  and  N01_7 
REMARK    4  A    between atoms: C07_13  and  C05_11 
REMARK    5  A    between atoms: C14_19  and  N13_18 
REMARK    6  A    between atoms: C19_22  and  O21_23 
ROOT
ATOM      1  C10 JFE d   1     -24.420 -20.192  11.235  0.00  0.00    -0.008 A 
ATOM      2  C24 JFE d   1     -25.499 -21.042  10.821  0.00  0.00    -0.056 A 
ATOM      3  C07 JFE d   1     -21.972 -19.082  11.978  0.00  0.00    -0.006 A 
ATOM      4  C08 JFE d   1     -23.089 -18.250  11.936  0.00  0.00    -0.070 A 
ATOM      5  C09 JFE d   1     -24.325 -18.810  11.562  0.00  0.00    -0.070 A 
ATOM      6  C11 JFE d   1     -23.290 -21.004  11.268  0.00  0.00     0.045 A 
ATOM      7  C12 JFE d   1     -22.049 -20.433  11.633  0.00  0.00    -0.044 A 
ATOM      8  N13 JFE d   1     -23.658 -22.268  10.914  0.00  0.00    -0.352 N 
ATOM      9  C23 JFE d   1     -24.987 -22.313  10.642  0.00  0.00    -0.019 A 
ATOM     10  H6  JFE d   1     -26.535 -20.740  10.674  0.00  0.00     0.086 H 
ATOM     11  H11 JFE d   1     -23.008 -17.198  12.185  0.00  0.00     0.084 H 
ATOM     12  H12 JFE d   1     -25.210 -18.185  11.523  0.00  0.00     0.084 H 
ATOM     13  H13 JFE d   1     -21.155 -21.046  11.645  0.00  0.00     0.088 H 
ATOM     14  H18 JFE d   1     -25.550 -23.194  10.337  0.00  0.00     0.111 H 
ENDROOT
BRANCH   8  15
ATOM     15  C14 JFE d   1     -22.776 -23.388  10.824  0.00  0.00     0.023 C 
ATOM     16  H14 JFE d   1     -21.979 -23.286  11.575  0.00  0.00     0.072 H 
ATOM     17  H15 JFE d   1     -23.340 -24.313  11.012  0.00  0.00     0.072 H 
BRANCH  15  18
ATOM     18  C15 JFE d   1     -22.154 -23.448   9.427  0.00  0.00    -0.037 A 
ATOM     19  C20 JFE d   1     -22.468 -22.471   8.477  0.00  0.00    -0.043 A 
ATOM     20  C19 JFE d   1     -21.892 -22.527   7.185  0.00  0.00     0.068 A 
ATOM     21  H2  JFE d   1     -23.153 -21.670   8.730  0.00  0.00     0.088 H 
ATOM     22  C18 JFE d   1     -21.027 -23.541   6.874  0.00  0.00    -0.051 A 
ATOM     23  C17 JFE d   1     -20.713 -24.520   7.826  0.00  0.00    -0.080 A 
ATOM     24  H17 JFE d   1     -20.583 -23.587   5.886  0.00  0.00     0.087 H 
ATOM     25  C16 JFE d   1     -21.281 -24.469   9.110  0.00  0.00    -0.075 A 
ATOM     26  H1  JFE d   1     -20.028 -25.321   7.571  0.00  0.00     0.083 H 
ATOM     27  H16 JFE d   1     -21.035 -25.226   9.846  0.00  0.00     0.084 H 
BRANCH  20  28
ATOM     28  O21 JFE d   1     -22.191 -21.536   6.221  0.00  0.00    -0.356 OA
BRANCH  28  29
ATOM     29  C22 JFE d   1     -23.319 -20.678   6.506  0.00  0.00     0.010 C 
ATOM     30  H3  JFE d   1     -23.446 -19.956   5.686  0.00  0.00     0.066 H 
ATOM     31  H4  JFE d   1     -23.140 -20.137   7.447  0.00  0.00     0.066 H 
ATOM     32  H5  JFE d   1     -24.229 -21.288   6.601  0.00  0.00     0.066 H 
ENDBRANCH  28  29
ENDBRANCH  20  28
ENDBRANCH  15  18
ENDBRANCH   8  15
BRANCH   3  33
ATOM     33  C05 JFE d   1     -20.593 -18.523  12.292  0.00  0.00     0.064 A 
ATOM     34  N04 JFE d   1     -19.530 -19.279  12.543  0.00  0.00    -0.276 N 
ATOM     35  N03 JFE d   1     -18.450 -18.481  12.707  0.00  0.00    -0.157 NA
ATOM     36  H9  JFE d   1     -19.528 -20.307  12.603  0.00  0.00     0.189 HD
ATOM     37  C02 JFE d   1     -18.821 -17.191  12.521  0.00  0.00     0.143 A 
ATOM     38  C06 JFE d   1     -20.197 -17.195  12.228  0.00  0.00    -0.010 A 
ATOM     39  H10 JFE d   1     -20.822 -16.333  11.998  0.00  0.00     0.093 H 
BRANCH  37  40
ATOM     40  N01 JFE d   1     -17.964 -16.090  12.615  0.00  0.00    -0.383 N 
ATOM     41  H7  JFE d   1     -18.328 -15.139  12.458  0.00  0.00     0.157 HD
ATOM     42  H8  JFE d   1     -16.969 -16.230  12.841  0.00  0.00     0.157 HD
ENDBRANCH  37  40
ENDBRANCH   3  33
TORSDOF 6
