REMARK  3 active torsions:
REMARK  status: ('A' for Active; 'I' for Inactive)
REMARK    1  A    between atoms: C19_23  and  C8_4 
REMARK    2  A    between atoms: N22_24  and  C26_12 
REMARK    3  A    between atoms: C19_23  and  C25_26 
ROOT
ATOM      1  C4  JJN d   1      -5.141 -16.555  23.676  0.00  0.00    -0.057 A 
ATOM      2  C5  JJN d   1      -5.153 -16.728  25.059  0.00  0.00     0.037 A 
ATOM      3  C6  JJN d   1      -6.189 -17.422  25.682  0.00  0.00    -0.019 A 
ATOM      4  C8  JJN d   1      -4.886 -16.279  27.304  0.00  0.00     0.126 C 
ATOM      5  C10 JJN d   1      -6.758 -14.739  27.967  0.00  0.00     0.254 C 
ATOM      6  C13 JJN d   1      -7.184 -17.208  28.021  0.00  0.00    -0.030 A 
ATOM      7  C15 JJN d   1      -9.023 -18.083  29.318  0.00  0.00    -0.082 A 
ATOM      8  C17 JJN d   1      -8.648 -15.712  29.253  0.00  0.00    -0.067 A 
ATOM      9  C1  JJN d   1      -6.152 -17.145  22.926  0.00  0.00    -0.081 A 
ATOM     10  C2  JJN d   1      -7.176 -17.855  23.546  0.00  0.00    -0.082 A 
ATOM     11  C3  JJN d   1      -7.176 -18.031  24.921  0.00  0.00    -0.074 A 
ATOM     12  N7  JJN d   1      -4.245 -16.249  25.990  0.00  0.00    -0.362 N 
ATOM     13  C9  JJN d   1      -5.940 -17.424  27.180  0.00  0.00     0.043 C 
ATOM     14  N11 JJN d   1      -5.511 -14.976  27.521  0.00  0.00    -0.329 N 
ATOM     15  C12 JJN d   1      -7.535 -15.908  28.426  0.00  0.00     0.039 A 
ATOM     16  C14 JJN d   1      -7.922 -18.287  28.501  0.00  0.00    -0.075 A 
ATOM     17  C16 JJN d   1      -9.392 -16.801  29.684  0.00  0.00    -0.082 A 
ATOM     18  O18 JJN d   1      -7.224 -13.603  27.987  0.00  0.00    -0.268 OA
ATOM     19  H1  JJN d   1      -4.362 -15.974  23.196  0.00  0.00     0.086 H 
ATOM     20  H2  JJN d   1      -9.597 -18.932  29.672  0.00  0.00     0.083 H 
ATOM     21  H3  JJN d   1      -8.928 -14.710  29.556  0.00  0.00     0.085 H 
ATOM     22  H13 JJN d   1      -6.143 -17.051  21.846  0.00  0.00     0.083 H 
ATOM     23  H14 JJN d   1      -7.979 -18.273  22.950  0.00  0.00     0.083 H 
ATOM     24  H15 JJN d   1      -7.939 -18.638  25.396  0.00  0.00     0.084 H 
ATOM     25  H16 JJN d   1      -3.287 -15.928  25.791  0.00  0.00     0.162 HD
ATOM     26  H17 JJN d   1      -5.496 -18.382  27.487  0.00  0.00     0.061 H 
ATOM     27  H18 JJN d   1      -4.951 -14.173  27.316  0.00  0.00     0.165 HD
ATOM     28  H19 JJN d   1      -7.633 -19.297  28.233  0.00  0.00     0.084 H 
ATOM     29  H20 JJN d   1     -10.264 -16.647  30.309  0.00  0.00     0.083 H 
ENDROOT
BRANCH   4  30
ATOM     30  C19 JJN d   1      -3.753 -16.518  28.485  0.00  0.00     0.004 C 
ATOM     31  C20 JJN d   1      -4.331 -16.563  29.914  0.00  0.00    -0.032 C 
ATOM     32  C21 JJN d   1      -3.299 -16.669  31.030  0.00  0.00     0.084 C 
ATOM     33  H4  JJN d   1      -4.912 -15.643  30.075  0.00  0.00     0.036 H 
ATOM     34  H5  JJN d   1      -4.998 -17.435  29.984  0.00  0.00     0.036 H 
ATOM     35  N22 JJN d   1      -2.426 -17.888  30.889  0.00  0.00    -0.075 N 
ATOM     36  H6  JJN d   1      -3.825 -16.721  31.994  0.00  0.00     0.076 H 
ATOM     37  H7  JJN d   1      -2.661 -15.773  31.008  0.00  0.00     0.076 H 
ATOM     38  C23 JJN d   1      -1.891 -18.007  29.489  0.00  0.00     0.084 C 
ATOM     39  H21 JJN d   1      -2.998 -18.698  31.069  0.00  0.00     0.279 HD
ATOM     40  C24 JJN d   1      -2.982 -17.854  28.429  0.00  0.00    -0.032 C 
ATOM     41  H22 JJN d   1      -1.135 -17.223  29.333  0.00  0.00     0.076 H 
ATOM     42  H23 JJN d   1      -1.423 -18.996  29.373  0.00  0.00     0.076 H 
ATOM     43  H8  JJN d   1      -2.511 -17.937  27.438  0.00  0.00     0.036 H 
ATOM     44  H9  JJN d   1      -3.705 -18.673  28.561  0.00  0.00     0.036 H 
BRANCH  35  45
ATOM     45  C26 JJN d   1      -1.322 -17.882  31.892  0.00  0.00     0.066 C 
ATOM     46  H10 JJN d   1      -0.704 -18.783  31.763  0.00  0.00     0.068 H 
ATOM     47  H11 JJN d   1      -1.748 -17.872  32.906  0.00  0.00     0.068 H 
ATOM     48  H12 JJN d   1      -0.700 -16.987  31.747  0.00  0.00     0.068 H 
ENDBRANCH  35  45
BRANCH  30  49
ATOM     49  C25 JJN d   1      -2.763 -15.349  28.379  0.00  0.00    -0.065 C 
ATOM     50  H24 JJN d   1      -3.313 -14.398  28.419  0.00  0.00     0.028 H 
ATOM     51  H25 JJN d   1      -2.216 -15.416  27.427  0.00  0.00     0.028 H 
ATOM     52  H26 JJN d   1      -2.050 -15.395  29.215  0.00  0.00     0.028 H 
ENDBRANCH  30  49
ENDBRANCH   4  30
TORSDOF 3
