REMARK  8 active torsions:
REMARK  status: ('A' for Active; 'I' for Inactive)
REMARK    1  A    between atoms: N19_28  and  C4_3 
REMARK    2  A    between atoms: C8_5  and  C31_30 
REMARK    3  A    between atoms: C21_11  and  C22_10 
REMARK    4  A    between atoms: C20_20  and  C21_11 
REMARK    5  A    between atoms: C9_12  and  C10_18 
REMARK    6  A    between atoms: C20_20  and  C28_25 
REMARK    7  A    between atoms: C20_20  and  N19_28 
REMARK    8  A    between atoms: C31_30  and  C32_31 
ROOT
ATOM      1  C5  JLE d   1       4.670   1.637  -6.258  0.00  0.00     0.058 A 
ATOM      2  C6  JLE d   1       4.361   2.114  -7.523  0.00  0.00     0.114 A 
ATOM      3  C4  JLE d   1       3.858   0.623  -5.746  0.00  0.00     0.139 A 
ATOM      4  C2  JLE d   1       2.611   0.631  -7.687  0.00  0.00     0.090 A 
ATOM      5  C8  JLE d   1       6.237   3.297  -6.597  0.00  0.00    -0.004 A 
ATOM      6  N3  JLE d   1       3.346   1.614  -8.231  0.00  0.00    -0.234 NA
ATOM      7  C9  JLE d   1       5.767   2.342  -5.722  0.00  0.00     0.005 A 
ATOM      8  N1  JLE d   1       2.874   0.109  -6.494  0.00  0.00    -0.224 NA
ATOM      9  S7  JLE d   1       5.335   3.407  -8.037  0.00  0.00    -0.073 SA
ATOM     10  H1  JLE d   1       1.766   0.246  -8.246  0.00  0.00     0.146 H 
ENDROOT
BRANCH   3  11
ATOM     11  N19 JLE d   1       4.031   0.086  -4.467  0.00  0.00    -0.359 N 
ATOM     12  H15 JLE d   1       4.846   0.381  -3.910  0.00  0.00     0.162 HD
BRANCH  11  13
ATOM     13  C20 JLE d   1       3.109  -0.867  -3.899  0.00  0.00     0.099 C 
ATOM     14  H10 JLE d   1       2.065  -0.593  -4.112  0.00  0.00     0.090 H 
BRANCH  13  15
ATOM     15  C21 JLE d   1       3.357  -0.935  -2.359  0.00  0.00    -0.013 C 
ATOM     16  H5  JLE d   1       2.755  -1.743  -1.918  0.00  0.00     0.043 H 
ATOM     17  H6  JLE d   1       4.423  -1.121  -2.159  0.00  0.00     0.043 H 
BRANCH  15  18
ATOM     18  C22 JLE d   1       2.937   0.424  -1.755  0.00  0.00    -0.056 A 
ATOM     19  C23 JLE d   1       3.917   1.335  -1.371  0.00  0.00    -0.077 A 
ATOM     20  C24 JLE d   1       3.622   2.558  -0.843  0.00  0.00    -0.082 A 
ATOM     21  H4  JLE d   1       4.958   1.061  -1.497  0.00  0.00     0.084 H 
ATOM     22  C25 JLE d   1       2.263   2.890  -0.723  0.00  0.00    -0.083 A 
ATOM     23  H3  JLE d   1       4.402   3.243  -0.530  0.00  0.00     0.083 H 
ATOM     24  C26 JLE d   1       1.268   1.973  -1.054  0.00  0.00    -0.082 A 
ATOM     25  H2  JLE d   1       1.984   3.875  -0.367  0.00  0.00     0.083 H 
ATOM     26  C27 JLE d   1       1.610   0.714  -1.564  0.00  0.00    -0.077 A 
ATOM     27  H13 JLE d   1       0.225   2.235  -0.916  0.00  0.00     0.083 H 
ATOM     28  H14 JLE d   1       0.844  -0.015  -1.802  0.00  0.00     0.084 H 
ENDBRANCH  15  18
ENDBRANCH  13  15
BRANCH  13  29
ATOM     29  C28 JLE d   1       3.478  -2.251  -4.548  0.00  0.00     0.197 C 
ATOM     30  O30 JLE d   1       4.546  -2.402  -5.142  0.00  0.00    -0.646 OA
ATOM     31  O29 JLE d   1       2.693  -3.191  -4.480  0.00  0.00    -0.646 OA
ENDBRANCH  13  29
ENDBRANCH  11  13
ENDBRANCH   3  11
BRANCH   7  32
ATOM     32  C10 JLE d   1       6.427   2.079  -4.425  0.00  0.00    -0.011 A 
ATOM     33  C13 JLE d   1       6.976   0.801  -4.274  0.00  0.00    -0.071 A 
ATOM     34  C12 JLE d   1       7.622   0.415  -3.098  0.00  0.00    -0.080 A 
ATOM     35  H9  JLE d   1       6.898   0.093  -5.091  0.00  0.00     0.084 H 
ATOM     36  C11 JLE d   1       7.759   1.336  -2.067  0.00  0.00    -0.056 A 
ATOM     37  H8  JLE d   1       8.012  -0.591  -2.991  0.00  0.00     0.083 H 
ATOM     38  C14 JLE d   1       7.214   2.608  -2.208  0.00  0.00     0.043 A 
ATOM     39  H7  JLE d   1       8.287   1.065  -1.159  0.00  0.00     0.086 H 
ATOM     40  C15 JLE d   1       6.588   2.990  -3.390  0.00  0.00     0.003 A 
ATOM     41  N18 JLE d   1       7.240   3.671  -1.376  0.00  0.00    -0.365 N 
ATOM     42  C16 JLE d   1       6.183   4.305  -3.237  0.00  0.00    -0.055 A 
ATOM     43  C17 JLE d   1       6.597   4.702  -1.976  0.00  0.00    -0.022 A 
ATOM     44  H12 JLE d   1       5.644   4.909  -3.966  0.00  0.00     0.087 H 
ATOM     45  H11 JLE d   1       6.432   5.685  -1.537  0.00  0.00     0.111 H 
ATOM     46  H21 JLE d   1       7.675   3.694  -0.443  0.00  0.00     0.165 HD
ENDBRANCH   7  32
BRANCH   5  47
ATOM     47  C31 JLE d   1       7.400   4.222  -6.368  0.00  0.00    -0.037 C 
ATOM     48  H16 JLE d   1       8.021   3.839  -5.545  0.00  0.00     0.040 H 
ATOM     49  H17 JLE d   1       7.030   5.226  -6.112  0.00  0.00     0.040 H 
BRANCH  47  50
ATOM     50  C32 JLE d   1       8.208   4.289  -7.617  0.00  0.00    -0.072 C 
ATOM     51  H18 JLE d   1       9.064   4.963  -7.464  0.00  0.00     0.028 H 
ATOM     52  H19 JLE d   1       7.583   4.670  -8.438  0.00  0.00     0.028 H 
ATOM     53  H20 JLE d   1       8.574   3.283  -7.871  0.00  0.00     0.028 H 
ENDBRANCH  47  50
ENDBRANCH   5  47
TORSDOF 8
