REMARK  4 active torsions:
REMARK  status: ('A' for Active; 'I' for Inactive)
REMARK    1  A    between atoms: C5_2  and  C12_9 
REMARK    2  A    between atoms: C7_5  and  C6_3 
REMARK       I    between atoms: N2_11  and  C7_5 
REMARK    3  A    between atoms: C10_8  and  N3_13 
REMARK    4  A    between atoms: N2_11  and  C1_14 
ROOT
ATOM      1  C5  JO2 d   1      27.464  21.355  -6.514  0.00  0.00     0.056 A 
ATOM      2  C6  JO2 d   1      26.844  20.382  -7.305  0.00  0.00     0.051 A 
ATOM      3  C11 JO2 d   1      26.911  20.481  -8.696  0.00  0.00    -0.035 A 
ATOM      4  C8  JO2 d   1      28.074  22.453  -7.115  0.00  0.00    -0.063 A 
ATOM      5  C9  JO2 d   1      28.123  22.589  -8.485  0.00  0.00    -0.050 A 
ATOM      6  C10 JO2 d   1      27.530  21.594  -9.268  0.00  0.00     0.103 A 
ATOM      7  H3  JO2 d   1      26.488  19.704  -9.323  0.00  0.00     0.088 H 
ATOM      8  H4  JO2 d   1      28.521  23.218  -6.490  0.00  0.00     0.085 H 
ATOM      9  H5  JO2 d   1      28.608  23.444  -8.943  0.00  0.00     0.087 H 
ENDROOT
BRANCH   2  10
ATOM     10  C7  JO2 d   1      26.235  19.161  -6.678  0.00  0.00     0.253 C 
ATOM     11  N2  JO2 d   1      24.991  18.809  -7.048  0.00  0.00    -0.343 N 
ATOM     12  H7  JO2 d   1      24.417  19.454  -7.552  0.00  0.00     0.163 HD
ATOM     13  O3  JO2 d   1      26.861  18.502  -5.842  0.00  0.00    -0.268 OA
BRANCH  11  14
ATOM     14  C1  JO2 d   1      24.485  17.497  -6.716  0.00  0.00     0.098 C 
ATOM     15  C4  JO2 d   1      22.961  17.482  -6.535  0.00  0.00     0.036 C 
ATOM     16  C3  JO2 d   1      22.519  16.284  -7.323  0.00  0.00     0.226 C 
ATOM     17  H1  JO2 d   1      22.694  17.373  -5.474  0.00  0.00     0.051 H 
ATOM     18  H2  JO2 d   1      22.510  18.402  -6.935  0.00  0.00     0.051 H 
ATOM     19  N1  JO2 d   1      23.573  15.844  -8.091  0.00  0.00    -0.296 N 
ATOM     20  O1  JO2 d   1      21.439  15.732  -7.286  0.00  0.00    -0.273 OA
ATOM     21  C2  JO2 d   1      24.737  16.518  -7.842  0.00  0.00     0.247 C 
ATOM     22  H6  JO2 d   1      23.496  15.107  -8.762  0.00  0.00     0.171 HD
ATOM     23  O2  JO2 d   1      25.777  16.374  -8.470  0.00  0.00    -0.271 OA
ATOM     24  H8  JO2 d   1      24.976  17.153  -5.794  0.00  0.00     0.088 H 
ENDBRANCH  11  14
ENDBRANCH   2  10
BRANCH   1  25
ATOM     25  C12 JO2 d   1      27.437  21.285  -5.018  0.00  0.00     0.210 C 
ATOM     26  O6  JO2 d   1      26.324  21.115  -4.487  0.00  0.00    -0.644 OA
ATOM     27  O7  JO2 d   1      28.520  21.386  -4.410  0.00  0.00    -0.644 OA
ENDBRANCH   1  25
BRANCH   6  28
ATOM     28  N3  JO2 d   1      27.559  21.724 -10.721  0.00  0.00    -0.116 N 
ATOM     29  O4  JO2 d   1      28.333  22.536 -11.216  0.00  0.00    -0.532 OA
ATOM     30  O5  JO2 d   1      26.827  21.016 -11.385  0.00  0.00    -0.532 OA
ENDBRANCH   6  28
TORSDOF 4
