REMARK  2 active torsions:
REMARK  status: ('A' for Active; 'I' for Inactive)
REMARK    1  A    between atoms: C10_8  and  N3_13 
REMARK    2  A    between atoms: N2_11  and  C3_12 
ROOT
ATOM      1  C5  JOB d   1      25.811  18.714  -8.898  0.00  0.00     0.262 A 
ATOM      2  C6  JOB d   1      26.911  19.702  -8.998  0.00  0.00     0.050 A 
ATOM      3  C11 JOB d   1      29.048  21.389  -8.638  0.00  0.00    -0.057 A 
ATOM      4  C7  JOB d   1      27.562  19.751  -7.780  0.00  0.00     0.048 A 
ATOM      5  C8  JOB d   1      26.902  18.796  -6.859  0.00  0.00     0.262 A 
ATOM      6  C9  JOB d   1      27.297  20.480 -10.061  0.00  0.00    -0.041 A 
ATOM      7  C10 JOB d   1      28.390  21.343  -9.874  0.00  0.00     0.026 A 
ATOM      8  C12 JOB d   1      28.640  20.593  -7.579  0.00  0.00    -0.065 A 
ATOM      9  N2  JOB d   1      25.892  18.186  -7.608  0.00  0.00    -0.265 N 
ATOM     10  O3  JOB d   1      24.986  18.388  -9.720  0.00  0.00    -0.267 OA
ATOM     11  O4  JOB d   1      27.138  18.550  -5.700  0.00  0.00    -0.267 OA
ATOM     12  H1  JOB d   1      29.890  22.058  -8.508  0.00  0.00     0.086 H 
ATOM     13  H2  JOB d   1      26.777  20.430 -11.011  0.00  0.00     0.088 H 
ATOM     14  H3  JOB d   1      29.150  20.630  -6.623  0.00  0.00     0.085 H 
ENDROOT
BRANCH   9  15
ATOM     15  C3  JOB d   1      25.034  17.132  -7.106  0.00  0.00     0.108 C 
ATOM     16  C4  JOB d   1      25.044  15.920  -8.012  0.00  0.00     0.248 C 
ATOM     17  N1  JOB d   1      23.750  15.534  -8.229  0.00  0.00    -0.296 N 
ATOM     18  O1  JOB d   1      26.033  15.379  -8.470  0.00  0.00    -0.271 OA
ATOM     19  C1  JOB d   1      22.830  16.351  -7.617  0.00  0.00     0.226 C 
ATOM     20  H4  JOB d   1      23.498  14.737  -8.778  0.00  0.00     0.171 HD
ATOM     21  C2  JOB d   1      23.554  17.538  -7.047  0.00  0.00     0.037 C 
ATOM     22  O2  JOB d   1      21.634  16.119  -7.564  0.00  0.00    -0.273 OA
ATOM     23  H8  JOB d   1      23.370  18.437  -7.654  0.00  0.00     0.051 H 
ATOM     24  H9  JOB d   1      23.241  17.726  -6.009  0.00  0.00     0.051 H 
ATOM     25  H5  JOB d   1      25.383  16.854  -6.101  0.00  0.00     0.089 H 
ENDBRANCH   9  15
BRANCH   7  26
ATOM     26  N3  JOB d   1      28.816  22.147 -10.918  0.00  0.00    -0.399 N 
ATOM     27  H6  JOB d   1      29.617  22.781 -10.786  0.00  0.00     0.156 HD
ATOM     28  H7  JOB d   1      28.332  22.111 -11.826  0.00  0.00     0.156 HD
ENDBRANCH   7  26
TORSDOF 2
