REMARK  4 active torsions:
REMARK  status: ('A' for Active; 'I' for Inactive)
REMARK    1  A    between atoms: C5_2  and  C6_3 
REMARK       I    between atoms: N2_12  and  C5_2 
REMARK    2  A    between atoms: C6_3  and  C7_5 
REMARK    3  A    between atoms: C7_5  and  C8_6 
REMARK    4  A    between atoms: C3_13  and  N2_12 
ROOT
ATOM      1  C6  JOK d   1      25.267  15.435  29.584  0.00  0.00     0.013 C 
ATOM      2  H1  JOK d   1      26.353  15.351  29.738  0.00  0.00     0.047 H 
ATOM      3  H2  JOK d   1      24.752  14.665  30.177  0.00  0.00     0.047 H 
ENDROOT
BRANCH   1   4
ATOM      4  C5  JOK d   1      25.019  15.106  28.164  0.00  0.00     0.218 C 
ATOM      5  N2  JOK d   1      24.423  13.932  27.969  0.00  0.00    -0.347 N 
ATOM      6  H11 JOK d   1      24.212  13.352  28.756  0.00  0.00     0.163 HD
ATOM      7  O3  JOK d   1      25.362  15.839  27.236  0.00  0.00    -0.274 OA
BRANCH   5   8
ATOM      8  C3  JOK d   1      24.077  13.482  26.644  0.00  0.00     0.098 C 
ATOM      9  C4  JOK d   1      22.627  13.767  26.331  0.00  0.00     0.247 C 
ATOM     10  N1  JOK d   1      22.137  12.712  25.616  0.00  0.00    -0.296 N 
ATOM     11  O2  JOK d   1      22.010  14.752  26.656  0.00  0.00    -0.271 OA
ATOM     12  C1  JOK d   1      22.974  11.624  25.618  0.00  0.00     0.226 C 
ATOM     13  H10 JOK d   1      21.258  12.730  25.140  0.00  0.00     0.171 HD
ATOM     14  C2  JOK d   1      24.193  11.967  26.428  0.00  0.00     0.036 C 
ATOM     15  O1  JOK d   1      22.739  10.586  25.027  0.00  0.00    -0.273 OA
ATOM     16  H13 JOK d   1      24.187  11.433  27.390  0.00  0.00     0.051 H 
ATOM     17  H14 JOK d   1      25.112  11.719  25.877  0.00  0.00     0.051 H 
ATOM     18  H12 JOK d   1      24.729  14.004  25.929  0.00  0.00     0.088 H 
ENDBRANCH   5   8
ENDBRANCH   1   4
BRANCH   1  19
ATOM     19  C7  JOK d   1      24.905  16.606  30.094  0.00  0.00    -0.033 C 
ATOM     20  H4  JOK d   1      25.445  17.360  29.502  0.00  0.00     0.040 H 
ATOM     21  H5  JOK d   1      25.290  16.605  31.125  0.00  0.00     0.040 H 
BRANCH  19  22
ATOM     22  C8  JOK d   1      23.533  17.106  30.195  0.00  0.00    -0.058 A 
ATOM     23  C9  JOK d   1      22.505  16.488  29.486  0.00  0.00    -0.077 A 
ATOM     24  C10 JOK d   1      21.203  16.937  29.587  0.00  0.00    -0.082 A 
ATOM     25  H6  JOK d   1      22.730  15.643  28.846  0.00  0.00     0.084 H 
ATOM     26  C11 JOK d   1      20.904  18.023  30.377  0.00  0.00    -0.083 A 
ATOM     27  H7  JOK d   1      20.414  16.432  29.042  0.00  0.00     0.083 H 
ATOM     28  C12 JOK d   1      21.899  18.646  31.092  0.00  0.00    -0.082 A 
ATOM     29  H3  JOK d   1      19.885  18.387  30.436  0.00  0.00     0.083 H 
ATOM     30  C13 JOK d   1      23.202  18.188  31.010  0.00  0.00    -0.077 A 
ATOM     31  H8  JOK d   1      21.663  19.497  31.721  0.00  0.00     0.083 H 
ATOM     32  H9  JOK d   1      23.977  18.678  31.588  0.00  0.00     0.084 H 
ENDBRANCH  19  22
ENDBRANCH   1  19
TORSDOF 4
