REMARK  4 active torsions:
REMARK  status: ('A' for Active; 'I' for Inactive)
REMARK       I    between atoms: N2_10  and  C6_3 
REMARK    1  A    between atoms: C6_3  and  O3_17 
REMARK    2  A    between atoms: C7_5  and  C8_6 
REMARK    3  A    between atoms: O3_17  and  C7_5 
REMARK    4  A    between atoms: C2_14  and  N2_10 
ROOT
ATOM      1  C6  JP8 d   1      25.453 -13.436   2.893  0.00  0.00     0.361 C 
ATOM      2  N2  JP8 d   1      25.288 -14.292   1.891  0.00  0.00    -0.324 N 
ATOM      3  O4  JP8 d   1      25.341 -12.219   2.785  0.00  0.00    -0.239 OA
ATOM      4  H13 JP8 d   1      25.390 -15.269   2.076  0.00  0.00     0.165 HD
ENDROOT
BRANCH   1   5
ATOM      5  O3  JP8 d   1      25.759 -14.045   4.149  0.00  0.00    -0.302 OA
BRANCH   5   6
ATOM      6  C7  JP8 d   1      26.863 -13.677   5.022  0.00  0.00     0.057 C 
ATOM      7  H5  JP8 d   1      27.641 -14.454   5.002  0.00  0.00     0.078 H 
ATOM      8  H6  JP8 d   1      27.296 -12.716   4.706  0.00  0.00     0.078 H 
BRANCH   6   9
ATOM      9  C8  JP8 d   1      26.274 -13.557   6.417  0.00  0.00     0.123 C 
ATOM     10  C9  JP8 d   1      25.286 -14.646   6.807  0.00  0.00    -0.035 C 
ATOM     11  C10 JP8 d   1      25.333 -14.770   8.312  0.00  0.00    -0.041 C 
ATOM     12  H8  JP8 d   1      25.573 -15.600   6.341  0.00  0.00     0.036 H 
ATOM     13  H9  JP8 d   1      24.272 -14.369   6.483  0.00  0.00     0.036 H 
ATOM     14  C11 JP8 d   1      26.510 -13.884   8.713  0.00  0.00     0.082 C 
ATOM     15  H10 JP8 d   1      24.398 -14.408   8.764  0.00  0.00     0.035 H 
ATOM     16  H11 JP8 d   1      25.507 -15.813   8.614  0.00  0.00     0.035 H 
ATOM     17  N3  JP8 d   1      27.274 -13.604   7.516  0.00  0.00    -0.069 N 
ATOM     18  H3  JP8 d   1      27.141 -14.407   9.447  0.00  0.00     0.075 H 
ATOM     19  H4  JP8 d   1      26.141 -12.945   9.151  0.00  0.00     0.075 H 
ATOM     20  H16 JP8 d   1      27.949 -14.334   7.349  0.00  0.00     0.277 HD
ATOM     21  H17 JP8 d   1      27.750 -12.719   7.599  0.00  0.00     0.277 HD
ATOM     22  H7  JP8 d   1      25.757 -12.587   6.452  0.00  0.00     0.087 H 
ENDBRANCH   6   9
ENDBRANCH   5   6
ENDBRANCH   1   5
BRANCH   2  23
ATOM     23  C2  JP8 d   1      24.963 -13.869   0.529  0.00  0.00     0.092 C 
ATOM     24  C3  JP8 d   1      26.104 -14.352  -0.367  0.00  0.00    -0.030 C 
ATOM     25  C4  JP8 d   1      25.780 -14.058  -1.830  0.00  0.00     0.012 C 
ATOM     26  H14 JP8 d   1      27.032 -13.831  -0.088  0.00  0.00     0.037 H 
ATOM     27  H15 JP8 d   1      26.238 -15.436  -0.234  0.00  0.00     0.037 H 
ATOM     28  C5  JP8 d   1      24.395 -14.569  -2.163  0.00  0.00     0.224 C 
ATOM     29  H1  JP8 d   1      25.819 -12.972  -2.001  0.00  0.00     0.047 H 
ATOM     30  H2  JP8 d   1      26.518 -14.558  -2.475  0.00  0.00     0.047 H 
ATOM     31  N1  JP8 d   1      23.491 -14.749  -1.187  0.00  0.00    -0.296 N 
ATOM     32  O2  JP8 d   1      24.085 -14.800  -3.328  0.00  0.00    -0.273 OA
ATOM     33  C1  JP8 d   1      23.665 -14.479   0.099  0.00  0.00     0.247 C 
ATOM     34  H12 JP8 d   1      22.603 -15.122  -1.455  0.00  0.00     0.171 HD
ATOM     35  O1  JP8 d   1      22.779 -14.749   0.905  0.00  0.00    -0.271 OA
ATOM     36  H18 JP8 d   1      24.885 -12.773   0.481  0.00  0.00     0.087 H 
ENDBRANCH   2  23
TORSDOF 4
