REMARK  13 active torsions:
REMARK  status: ('A' for Active; 'I' for Inactive)
REMARK    1  A    between atoms: C1_1  and  C2_2 
REMARK    2  A    between atoms: O3P_14  and  C1_1 
REMARK    3  A    between atoms: C2_2  and  C3_3 
REMARK    4  A    between atoms: C2_2  and  O2_10 
REMARK    5  A    between atoms: C3_3  and  O3_11 
REMARK    6  A    between atoms: C4_4  and  C5_5 
REMARK    7  A    between atoms: O4P_15  and  C4_4 
REMARK    8  A    between atoms: C5_5  and  N_9 
REMARK    9  A    between atoms: N_9  and  C6_6 
REMARK   10  A    between atoms: N_9  and  C7_7 
REMARK   11  A    between atoms: N_9  and  C8_8 
REMARK   12  A    between atoms: P_16  and  O3P_14 
REMARK   13  A    between atoms: O4P_15  and  P_16 
ROOT
ATOM      1  C4  CH5 d   1     -10.298  37.976 -26.408  0.00  0.00     0.054 C 
ATOM      2  H6  CH5 d   1     -10.505  37.858 -25.334  0.00  0.00     0.077 H 
ATOM      3  H7  CH5 d   1      -9.453  37.332 -26.691  0.00  0.00     0.077 H 
ENDROOT
BRANCH   1   4
ATOM      4  C5  CH5 d   1      -9.954  39.421 -26.702  0.00  0.00     0.104 C 
ATOM      5  H8  CH5 d   1      -9.864  39.528 -27.793  0.00  0.00     0.079 H 
ATOM      6  H9  CH5 d   1      -8.983  39.636 -26.232  0.00  0.00     0.079 H 
BRANCH   4   7
ATOM      7  N   CH5 d   1     -10.947  40.471 -26.214  0.00  0.00    -0.077 N 
BRANCH   7   8
ATOM      8  C6  CH5 d   1     -11.206  40.328 -24.745  0.00  0.00     0.067 C 
ATOM      9  H10 CH5 d   1     -11.924  41.097 -24.423  0.00  0.00     0.068 H 
ATOM     10  H11 CH5 d   1     -10.263  40.453 -24.193  0.00  0.00     0.068 H 
ATOM     11  H12 CH5 d   1     -11.621  39.330 -24.541  0.00  0.00     0.068 H 
ENDBRANCH   7   8
BRANCH   7  12
ATOM     12  C7  CH5 d   1     -12.249  40.353 -26.952  0.00  0.00     0.067 C 
ATOM     13  H13 CH5 d   1     -12.069  40.457 -28.032  0.00  0.00     0.068 H 
ATOM     14  H14 CH5 d   1     -12.934  41.146 -26.617  0.00  0.00     0.068 H 
ATOM     15  H15 CH5 d   1     -12.698  39.370 -26.748  0.00  0.00     0.068 H 
ENDBRANCH   7  12
BRANCH   7  16
ATOM     16  C8  CH5 d   1     -10.357  41.821 -26.475  0.00  0.00     0.067 C 
ATOM     17  H16 CH5 d   1      -9.402  41.914 -25.937  0.00  0.00     0.068 H 
ATOM     18  H17 CH5 d   1     -11.052  42.599 -26.126  0.00  0.00     0.068 H 
ATOM     19  H18 CH5 d   1     -10.183  41.943 -27.554  0.00  0.00     0.068 H 
ENDBRANCH   7  16
ENDBRANCH   4   7
ENDBRANCH   1   4
BRANCH   1  20
ATOM     20  O4P CH5 d   1     -11.468  37.601 -27.170  0.00  0.00    -0.288 OA
BRANCH  20  21
ATOM     21  P   CH5 d   1     -12.344  36.268 -26.782  0.00  0.00     0.408 P 
ATOM     22  O1P CH5 d   1     -13.293  36.025 -27.892  0.00  0.00    -0.624 OA
ATOM     23  O2P CH5 d   1     -12.959  36.518 -25.379  0.00  0.00    -0.624 OA
BRANCH  21  24
ATOM     24  O3P CH5 d   1     -11.262  35.082 -26.675  0.00  0.00    -0.287 OA
BRANCH  24  25
ATOM     25  C1  CH5 d   1     -10.533  34.597 -27.827  0.00  0.00     0.057 C 
ATOM     26  H1  CH5 d   1     -11.252  34.310 -28.609  0.00  0.00     0.079 H 
ATOM     27  H2  CH5 d   1      -9.884  35.401 -28.203  0.00  0.00     0.079 H 
BRANCH  25  28
ATOM     28  C2  CH5 d   1      -9.678  33.397 -27.482  0.00  0.00     0.077 C 
ATOM     29  H3  CH5 d   1      -9.064  33.156 -28.363  0.00  0.00     0.089 H 
BRANCH  28  30
ATOM     30  C3  CH5 d   1      -8.742  33.659 -26.323  0.00  0.00     0.042 C 
ATOM     31  H4  CH5 d   1      -9.331  33.810 -25.407  0.00  0.00     0.078 H 
ATOM     32  H5  CH5 d   1      -8.150  34.562 -26.531  0.00  0.00     0.078 H 
BRANCH  30  33
ATOM     33  O3  CH5 d   1      -7.863  32.551 -26.141  0.00  0.00    -0.398 OA
ATOM     34  H20 CH5 d   1      -8.373  31.770 -25.960  0.00  0.00     0.209 HD
ENDBRANCH  30  33
ENDBRANCH  28  30
BRANCH  28  35
ATOM     35  O2  CH5 d   1     -10.515  32.268 -27.191  0.00  0.00    -0.391 OA
ATOM     36  H19 CH5 d   1      -9.972  31.502 -27.047  0.00  0.00     0.210 HD
ENDBRANCH  28  35
ENDBRANCH  25  28
ENDBRANCH  24  25
ENDBRANCH  21  24
ENDBRANCH  20  21
ENDBRANCH   1  20
TORSDOF 13
