REMARK  5 active torsions:
REMARK  status: ('A' for Active; 'I' for Inactive)
REMARK    1  A    between atoms: C3_13  and  C4_1 
REMARK    2  A    between atoms: C7_5  and  N2_12 
REMARK    3  A    between atoms: N1_11  and  C1_15 
REMARK       I    between atoms: C2_16  and  N1_11 
REMARK    4  A    between atoms: O1_17  and  C3_13 
REMARK    5  A    between atoms: C2_16  and  O1_17 
ROOT
ATOM      1  C3  JPW d   1      24.058  18.082  30.223  0.00  0.00     0.034 C 
ATOM      2  H19 JPW d   1      24.003  17.554  31.186  0.00  0.00     0.075 H 
ATOM      3  H20 JPW d   1      25.106  18.136  29.894  0.00  0.00     0.075 H 
ENDROOT
BRANCH   1   4
ATOM      4  C4  JPW d   1      23.530  19.492  30.407  0.00  0.00    -0.033 C 
ATOM      5  C5  JPW d   1      22.021  19.549  30.211  0.00  0.00    -0.058 C 
ATOM      6  C6  JPW d   1      21.404  20.876  30.638  0.00  0.00    -0.038 C 
ATOM      7  H2  JPW d   1      21.562  18.744  30.804  0.00  0.00     0.033 H 
ATOM      8  H3  JPW d   1      21.802  19.390  29.145  0.00  0.00     0.033 H 
ATOM      9  C7  JPW d   1      21.794  21.181  32.071  0.00  0.00     0.100 C 
ATOM     10  H4  JPW d   1      20.308  20.811  30.563  0.00  0.00     0.036 H 
ATOM     11  H5  JPW d   1      21.770  21.678  29.980  0.00  0.00     0.036 H 
ATOM     12  C8  JPW d   1      23.300  21.312  32.186  0.00  0.00    -0.038 C 
ATOM     13  H6  JPW d   1      21.471  20.340  32.703  0.00  0.00     0.083 H 
ATOM     14  C9  JPW d   1      23.970  20.006  31.780  0.00  0.00    -0.058 C 
ATOM     15  H7  JPW d   1      23.566  21.550  33.226  0.00  0.00     0.036 H 
ATOM     16  H8  JPW d   1      23.647  22.120  31.525  0.00  0.00     0.036 H 
ATOM     17  H9  JPW d   1      25.058  20.165  31.759  0.00  0.00     0.033 H 
ATOM     18  H10 JPW d   1      23.726  19.241  32.532  0.00  0.00     0.033 H 
ATOM     19  H1  JPW d   1      23.988  20.135  29.641  0.00  0.00     0.043 H 
BRANCH   9  20
ATOM     20  N2  JPW d   1      21.113  22.424  32.563  0.00  0.00    -0.075 N 
ATOM     21  H16 JPW d   1      20.114  22.316  32.478  0.00  0.00     0.274 HD
ATOM     22  H17 JPW d   1      21.414  23.212  32.012  0.00  0.00     0.274 HD
ATOM     23  H18 JPW d   1      21.353  22.578  33.530  0.00  0.00     0.274 HD
ENDBRANCH   9  20
ENDBRANCH   1   4
BRANCH   1  24
ATOM     24  O1  JPW d   1      23.297  17.339  29.239  0.00  0.00    -0.304 OA
BRANCH  24  25
ATOM     25  C2  JPW d   1      24.051  16.547  28.404  0.00  0.00     0.361 C 
ATOM     26  N1  JPW d   1      23.234  15.625  27.949  0.00  0.00    -0.324 N 
ATOM     27  H15 JPW d   1      22.300  15.611  28.307  0.00  0.00     0.165 HD
ATOM     28  O2  JPW d   1      25.219  16.679  28.086  0.00  0.00    -0.239 OA
BRANCH  26  29
ATOM     29  C1  JPW d   1      23.597  14.620  26.957  0.00  0.00     0.092 C 
ATOM     30  C10 JPW d   1      22.494  14.406  26.009  0.00  0.00     0.247 C 
ATOM     31  N3  JPW d   1      22.271  13.133  25.566  0.00  0.00    -0.296 N 
ATOM     32  O3  JPW d   1      21.782  15.313  25.615  0.00  0.00    -0.271 OA
ATOM     33  C11 JPW d   1      23.089  12.032  25.744  0.00  0.00     0.224 C 
ATOM     34  H21 JPW d   1      21.424  12.981  25.057  0.00  0.00     0.171 HD
ATOM     35  C12 JPW d   1      24.235  12.214  26.668  0.00  0.00     0.012 C 
ATOM     36  O4  JPW d   1      22.843  10.978  25.210  0.00  0.00    -0.273 OA
ATOM     37  C13 JPW d   1      24.086  13.361  27.646  0.00  0.00    -0.030 C 
ATOM     38  H11 JPW d   1      25.136  12.394  26.064  0.00  0.00     0.047 H 
ATOM     39  H12 JPW d   1      24.360  11.286  27.245  0.00  0.00     0.047 H 
ATOM     40  H13 JPW d   1      25.062  13.564  28.110  0.00  0.00     0.037 H 
ATOM     41  H14 JPW d   1      23.363  13.075  28.424  0.00  0.00     0.037 H 
ATOM     42  H22 JPW d   1      24.443  15.015  26.376  0.00  0.00     0.087 H 
ENDBRANCH  26  29
ENDBRANCH  24  25
ENDBRANCH   1  24
TORSDOF 5
