REMARK  14 active torsions:
REMARK  status: ('A' for Active; 'I' for Inactive)
REMARK    1  A    between atoms: C01_1  and  C17_17 
REMARK    2  A    between atoms: N02_19  and  C01_1 
REMARK    3  A    between atoms: C04_4  and  O02_26 
REMARK    4  A    between atoms: C05_5  and  O01_25 
REMARK    5  A    between atoms: C07_7  and  C08_8 
REMARK    6  A    between atoms: O03_27  and  C11_11 
REMARK    7  A    between atoms: C14_14  and  C13_13 
REMARK    8  A    between atoms: C13_13  and  O03_27 
REMARK    9  A    between atoms: O04_28  and  C14_14 
REMARK   10  A    between atoms: C15_15  and  C16_16 
REMARK   11  A    between atoms: C15_15  and  O04_28 
REMARK   12  A    between atoms: C16_16  and  N05_22 
REMARK   13  A    between atoms: N05_22  and  N06_23 
REMARK   14  A    between atoms: N06_23  and  N07_24 
ROOT
ATOM      1  C02 JSK d   1      -5.326 -37.159  57.483  0.00  0.00    -0.068 A 
ATOM      2  C06 JSK d   1      -3.610 -35.473  56.763  0.00  0.00    -0.068 A 
ATOM      3  C07 JSK d   1      -4.008 -36.582  57.608  0.00  0.00    -0.008 A 
ATOM      4  C10 JSK d   1      -6.233 -36.574  56.534  0.00  0.00    -0.050 A 
ATOM      5  C11 JSK d   1      -5.802 -35.465  55.746  0.00  0.00     0.068 A 
ATOM      6  C12 JSK d   1      -4.511 -34.916  55.850  0.00  0.00    -0.050 A 
ATOM      7  H3  JSK d   1      -5.622 -38.009  58.087  0.00  0.00     0.085 H 
ATOM      8  H8  JSK d   1      -2.606 -35.072  56.840  0.00  0.00     0.085 H 
ATOM      9  H11 JSK d   1      -7.235 -36.971  56.418  0.00  0.00     0.087 H 
ATOM     10  H12 JSK d   1      -4.219 -34.075  55.232  0.00  0.00     0.087 H 
ENDROOT
BRANCH   3  11
ATOM     11  C08 JSK d   1      -2.984 -37.023  58.409  0.00  0.00     0.088 A 
ATOM     12  C09 JSK d   1      -2.995 -38.304  59.282  0.00  0.00     0.056 A 
ATOM     13  N02 JSK d   1      -1.583 -38.205  59.816  0.00  0.00    -0.279 N 
ATOM     14  H9  JSK d   1      -3.152 -39.214  58.685  0.00  0.00     0.076 H 
ATOM     15  H10 JSK d   1      -3.748 -38.257  60.083  0.00  0.00     0.076 H 
ATOM     16  N03 JSK d   1      -1.074 -37.118  59.288  0.00  0.00    -0.070 NA
ATOM     17  N04 JSK d   1      -1.807 -36.441  58.471  0.00  0.00    -0.134 NA
BRANCH  13  18
ATOM     18  C01 JSK d   1      -1.062 -39.283  60.790  0.00  0.00     0.043 C 
ATOM     19  H1  JSK d   1      -1.366 -40.268  60.405  0.00  0.00     0.070 H 
ATOM     20  H2  JSK d   1       0.036 -39.222  60.813  0.00  0.00     0.070 H 
BRANCH  18  21
ATOM     21  C17 JSK d   1      -1.580 -39.152  62.236  0.00  0.00     0.145 C 
ATOM     22  C05 JSK d   1      -1.360 -40.189  63.334  0.00  0.00     0.090 C 
ATOM     23  C04 JSK d   1      -1.118 -39.331  64.599  0.00  0.00     0.085 C 
ATOM     24  H7  JSK d   1      -0.446 -40.750  63.090  0.00  0.00     0.090 H 
ATOM     25  C03 JSK d   1      -0.849 -37.820  64.100  0.00  0.00     0.108 C 
ATOM     26  H6  JSK d   1      -0.179 -39.683  65.050  0.00  0.00     0.089 H 
ATOM     27  N01 JSK d   1      -0.540 -38.156  62.719  0.00  0.00    -0.064 N 
ATOM     28  H4  JSK d   1      -0.003 -37.347  64.620  0.00  0.00     0.079 H 
ATOM     29  H5  JSK d   1      -1.739 -37.180  64.191  0.00  0.00     0.079 H 
ATOM     30  H22 JSK d   1       0.379 -38.567  62.664  0.00  0.00     0.277 HD
ATOM     31  H23 JSK d   1      -0.571 -37.325  62.149  0.00  0.00     0.277 HD
ATOM     32  H21 JSK d   1      -2.625 -38.809  62.237  0.00  0.00     0.091 H 
BRANCH  22  33
ATOM     33  O01 JSK d   1      -2.419 -41.195  63.581  0.00  0.00    -0.391 OA
ATOM     34  H26 JSK d   1      -2.561 -41.704  62.792  0.00  0.00     0.210 HD
ENDBRANCH  22  33
BRANCH  23  35
ATOM     35  O02 JSK d   1      -2.113 -39.499  65.624  0.00  0.00    -0.391 OA
ATOM     36  H27 JSK d   1      -1.899 -38.944  66.365  0.00  0.00     0.210 HD
ENDBRANCH  23  35
ENDBRANCH  18  21
ENDBRANCH  13  18
ENDBRANCH   3  11
BRANCH   5  37
ATOM     37  O03 JSK d   1      -6.648 -34.810  54.794  0.00  0.00    -0.349 OA
BRANCH  37  38
ATOM     38  C13 JSK d   1      -7.750 -35.597  54.298  0.00  0.00     0.046 C 
ATOM     39  H13 JSK d   1      -7.413 -36.491  53.752  0.00  0.00     0.078 H 
ATOM     40  H14 JSK d   1      -8.444 -35.895  55.098  0.00  0.00     0.078 H 
BRANCH  38  41
ATOM     41  C14 JSK d   1      -8.357 -34.535  53.363  0.00  0.00     0.040 C 
ATOM     42  H15 JSK d   1      -7.538 -33.889  53.013  0.00  0.00     0.077 H 
ATOM     43  H16 JSK d   1      -9.069 -33.938  53.951  0.00  0.00     0.077 H 
BRANCH  41  44
ATOM     44  O04 JSK d   1      -9.038 -35.021  52.227  0.00  0.00    -0.387 OA
BRANCH  44  45
ATOM     45  C15 JSK d   1      -9.686 -34.000  51.465  0.00  0.00     0.036 C 
ATOM     46  H17 JSK d   1      -8.964 -33.189  51.287  0.00  0.00     0.076 H 
ATOM     47  H18 JSK d   1      -9.998 -34.431  50.502  0.00  0.00     0.076 H 
BRANCH  45  48
ATOM     48  C16 JSK d   1     -10.959 -33.388  52.173  0.00  0.00     0.031 C 
ATOM     49  H19 JSK d   1     -10.713 -33.071  53.197  0.00  0.00     0.069 H 
ATOM     50  H20 JSK d   1     -11.773 -34.127  52.204  0.00  0.00     0.069 H 
BRANCH  48  51
ATOM     51  N05 JSK d   1     -11.375 -32.159  51.309  0.00  0.00    -0.294 N 
ATOM     52  H24 JSK d   1     -11.726 -31.366  51.864  0.00  0.00     0.184 HD
BRANCH  51  53
ATOM     53  N06 JSK d   1     -11.368 -31.931  50.009  0.00  0.00    -0.081 NA
BRANCH  53  54
ATOM     54  N07 JSK d   1     -12.178 -32.368  49.109  0.00  0.00    -0.186 NA
ATOM     55  H25 JSK d   1     -12.047 -32.107  48.144  0.00  0.00     0.214 HD
ENDBRANCH  53  54
ENDBRANCH  51  53
ENDBRANCH  48  51
ENDBRANCH  45  48
ENDBRANCH  44  45
ENDBRANCH  41  44
ENDBRANCH  38  41
ENDBRANCH  37  38
ENDBRANCH   5  37
TORSDOF 14
