REMARK  8 active torsions:
REMARK  status: ('A' for Active; 'I' for Inactive)
REMARK    1  A    between atoms: C1_1  and  N2_20 
REMARK    2  A    between atoms: C6_22  and  C1_1 
REMARK       I    between atoms: N2_20  and  C3_2 
REMARK       I    between atoms: C3_2  and  N5_21 
REMARK    3  A    between atoms: C9_4  and  C13_8 
REMARK    4  A    between atoms: C14_9  and  S19_27 
REMARK    5  A    between atoms: S19_27  and  C20_12 
REMARK    6  A    between atoms: C34_18  and  C21_13 
REMARK    7  A    between atoms: C32_17  and  O33_35 
REMARK    8  A    between atoms: N5_21  and  C34_18 
REMARK       I    between atoms: C6_22  and  N7_23 
ROOT
ATOM      1  C3  JUZ d   1      -3.426   0.767 -25.779  0.00  0.00     0.316 C 
ATOM      2  O4  JUZ d   1      -3.717   0.036 -26.692  0.00  0.00    -0.247 OA
ATOM      3  N2  JUZ d   1      -2.346   0.542 -25.026  0.00  0.00    -0.334 N 
ATOM      4  N5  JUZ d   1      -4.134   1.854 -25.459  0.00  0.00    -0.339 N 
ATOM      5  H22 JUZ d   1      -2.111   1.207 -24.317  0.00  0.00     0.164 HD
ATOM      6  H23 JUZ d   1      -3.789   2.428 -24.716  0.00  0.00     0.164 HD
ENDROOT
BRANCH   3   7
ATOM      7  C1  JUZ d   1      -1.504  -0.618 -25.190  0.00  0.00     0.070 C 
ATOM      8  H1  JUZ d   1      -0.475  -0.397 -24.871  0.00  0.00     0.078 H 
ATOM      9  H2  JUZ d   1      -1.500  -0.947 -26.240  0.00  0.00     0.078 H 
BRANCH   7  10
ATOM     10  C6  JUZ d   1      -2.117  -1.676 -24.305  0.00  0.00     0.238 C 
ATOM     11  N7  JUZ d   1      -1.785  -2.953 -24.490  0.00  0.00    -0.342 N 
ATOM     12  C9  JUZ d   1      -0.861  -3.470 -25.506  0.00  0.00     0.041 C 
ATOM     13  C10 JUZ d   1      -2.321  -4.062 -23.705  0.00  0.00    -0.002 C 
ATOM     14  C12 JUZ d   1      -1.192  -4.948 -25.609  0.00  0.00    -0.041 C 
ATOM     15  H3  JUZ d   1      -1.040  -2.965 -26.466  0.00  0.00     0.080 H 
ATOM     16  C11 JUZ d   1      -1.525  -5.301 -24.152  0.00  0.00    -0.048 C 
ATOM     17  H8  JUZ d   1      -0.330  -5.526 -25.974  0.00  0.00     0.036 H 
ATOM     18  H9  JUZ d   1      -2.055  -5.120 -26.269  0.00  0.00     0.036 H 
ATOM     19  H6  JUZ d   1      -2.136  -6.214 -24.090  0.00  0.00     0.035 H 
ATOM     20  H7  JUZ d   1      -0.612  -5.429 -23.552  0.00  0.00     0.035 H 
ATOM     21  H4  JUZ d   1      -2.176  -3.878 -22.630  0.00  0.00     0.064 H 
ATOM     22  H5  JUZ d   1      -3.393  -4.198 -23.912  0.00  0.00     0.064 H 
ATOM     23  O8  JUZ d   1      -2.899  -1.389 -23.441  0.00  0.00    -0.272 OA
BRANCH  12  24
ATOM     24  C13 JUZ d   1       0.587  -3.304 -25.129  0.00  0.00    -0.018 A 
ATOM     25  C14 JUZ d   1       1.589  -3.456 -26.073  0.00  0.00     0.008 A 
ATOM     26  C15 JUZ d   1       2.927  -3.304 -25.733  0.00  0.00    -0.066 A 
ATOM     27  C16 JUZ d   1       3.266  -3.003 -24.444  0.00  0.00    -0.082 A 
ATOM     28  H10 JUZ d   1       3.698  -3.423 -26.486  0.00  0.00     0.085 H 
ATOM     29  C17 JUZ d   1       2.273  -2.853 -23.511  0.00  0.00    -0.082 A 
ATOM     30  H11 JUZ d   1       4.306  -2.884 -24.163  0.00  0.00     0.083 H 
ATOM     31  C18 JUZ d   1       0.950  -3.018 -23.850  0.00  0.00    -0.073 A 
ATOM     32  H24 JUZ d   1       2.534  -2.600 -22.490  0.00  0.00     0.083 H 
ATOM     33  H25 JUZ d   1       0.186  -2.919 -23.087  0.00  0.00     0.084 H 
BRANCH  25  34
ATOM     34  S19 JUZ d   1       1.163  -3.836 -27.717  0.00  0.00    -0.134 SA
BRANCH  34  35
ATOM     35  C20 JUZ d   1       0.323  -2.370 -28.317  0.00  0.00    -0.030 C 
ATOM     36  H12 JUZ d   1       0.015  -2.525 -29.362  0.00  0.00     0.042 H 
ATOM     37  H13 JUZ d   1       1.004  -1.508 -28.259  0.00  0.00     0.042 H 
ATOM     38  H14 JUZ d   1      -0.566  -2.177 -27.698  0.00  0.00     0.042 H 
ENDBRANCH  34  35
ENDBRANCH  25  34
ENDBRANCH  12  24
ENDBRANCH   7  10
ENDBRANCH   3   7
BRANCH   4  39
ATOM     39  C34 JUZ d   1      -5.361   2.265 -26.104  0.00  0.00     0.021 C 
ATOM     40  H18 JUZ d   1      -5.171   3.148 -26.732  0.00  0.00     0.071 H 
ATOM     41  H19 JUZ d   1      -5.742   1.445 -26.730  0.00  0.00     0.071 H 
BRANCH  39  42
ATOM     42  C21 JUZ d   1      -6.382   2.608 -25.038  0.00  0.00    -0.040 A 
ATOM     43  C22 JUZ d   1      -6.903   1.607 -24.254  0.00  0.00    -0.073 A 
ATOM     44  C23 JUZ d   1      -7.820   1.905 -23.283  0.00  0.00    -0.056 A 
ATOM     45  H15 JUZ d   1      -6.588   0.581 -24.405  0.00  0.00     0.084 H 
ATOM     46  C24 JUZ d   1      -8.243   3.201 -23.090  0.00  0.00     0.037 A 
ATOM     47  H26 JUZ d   1      -8.217   1.113 -22.659  0.00  0.00     0.086 H 
ATOM     48  C25 JUZ d   1      -7.738   4.207 -23.879  0.00  0.00    -0.002 A 
ATOM     49  N27 JUZ d   1      -9.196   3.472 -22.109  0.00  0.00    -0.382 N 
ATOM     50  C30 JUZ d   1      -8.181   5.639 -23.644  0.00  0.00     0.068 C 
ATOM     51  C26 JUZ d   1      -6.801   3.897 -24.840  0.00  0.00    -0.065 A 
ATOM     52  C29 JUZ d   1      -8.447   5.787 -22.143  0.00  0.00    -0.016 C 
ATOM     53  O31 JUZ d   1      -9.392   5.963 -24.338  0.00  0.00    -0.378 OA
ATOM     54  H16 JUZ d   1      -7.384   6.327 -23.963  0.00  0.00     0.091 H 
ATOM     55  C28 JUZ d   1      -9.586   4.833 -21.755  0.00  0.00     0.039 C 
ATOM     56  H30 JUZ d   1      -8.738   6.824 -21.918  0.00  0.00     0.040 H 
ATOM     57  H31 JUZ d   1      -7.539   5.530 -21.578  0.00  0.00     0.040 H 
ATOM     58  C32 JUZ d   1     -10.832   5.264 -22.513  0.00  0.00     0.075 C 
ATOM     59  H29 JUZ d   1      -9.775   4.890 -20.673  0.00  0.00     0.076 H 
ATOM     60  C35 JUZ d   1     -10.538   5.184 -23.997  0.00  0.00     0.046 C 
ATOM     61  H17 JUZ d   1     -11.086   6.298 -22.238  0.00  0.00     0.089 H 
ATOM     62  H20 JUZ d   1     -11.407   5.561 -24.556  0.00  0.00     0.078 H 
ATOM     63  H21 JUZ d   1     -10.353   4.135 -24.270  0.00  0.00     0.078 H 
ATOM     64  H27 JUZ d   1      -6.387   4.690 -25.452  0.00  0.00     0.085 H 
ATOM     65  H28 JUZ d   1      -9.640   2.684 -21.617  0.00  0.00     0.160 HD
BRANCH  58  66
ATOM     66  O33 JUZ d   1     -11.932   4.420 -22.222  0.00  0.00    -0.391 OA
ATOM     67  H32 JUZ d   1     -12.118   4.454 -21.291  0.00  0.00     0.210 HD
ENDBRANCH  58  66
ENDBRANCH  39  42
ENDBRANCH   4  39
TORSDOF 8
