REMARK  8 active torsions:
REMARK  status: ('A' for Active; 'I' for Inactive)
REMARK    1  A    between atoms: S2_21  and  C1_1 
REMARK    2  A    between atoms: C3_2  and  S2_21 
REMARK    3  A    between atoms: C9_22  and  C8_7 
REMARK       I    between atoms: C14_24  and  N13_10 
REMARK    4  A    between atoms: C16_11  and  C14_24 
REMARK    5  A    between atoms: N17_26  and  C16_11 
REMARK       I    between atoms: C18_12  and  N17_26 
REMARK       I    between atoms: N20_28  and  C18_12 
REMARK    6  A    between atoms: C21_13  and  N20_28 
REMARK    7  A    between atoms: C22_29  and  C21_13 
REMARK    8  A    between atoms: C32_19  and  O34_34 
ROOT
ATOM      1  C18 JV2 d   1      -3.220   0.606 -25.213  0.00  0.00     0.316 C 
ATOM      2  N17 JV2 d   1      -2.104   0.391 -24.502  0.00  0.00    -0.334 N 
ATOM      3  O19 JV2 d   1      -3.574  -0.170 -26.117  0.00  0.00    -0.247 OA
ATOM      4  N20 JV2 d   1      -3.912   1.711 -24.890  0.00  0.00    -0.339 N 
ATOM      5  H26 JV2 d   1      -1.784   1.070 -23.841  0.00  0.00     0.164 HD
ATOM      6  H27 JV2 d   1      -3.566   2.288 -24.150  0.00  0.00     0.164 HD
ENDROOT
BRANCH   2   7
ATOM      7  C16 JV2 d   1      -1.374  -0.830 -24.704  0.00  0.00     0.070 C 
ATOM      8  H12 JV2 d   1      -1.417  -1.129 -25.762  0.00  0.00     0.078 H 
ATOM      9  H13 JV2 d   1      -0.324  -0.701 -24.402  0.00  0.00     0.078 H 
BRANCH   7  10
ATOM     10  C14 JV2 d   1      -2.053  -1.883 -23.827  0.00  0.00     0.238 C 
ATOM     11  N13 JV2 d   1      -1.698  -3.164 -24.003  0.00  0.00    -0.342 N 
ATOM     12  C12 JV2 d   1      -2.269  -4.259 -23.221  0.00  0.00    -0.002 C 
ATOM     13  C9  JV2 d   1      -0.737  -3.690 -24.973  0.00  0.00     0.041 C 
ATOM     14  C11 JV2 d   1      -1.414  -5.491 -23.592  0.00  0.00    -0.048 C 
ATOM     15  H10 JV2 d   1      -2.196  -4.046 -22.144  0.00  0.00     0.064 H 
ATOM     16  H11 JV2 d   1      -3.322  -4.422 -23.492  0.00  0.00     0.064 H 
ATOM     17  C10 JV2 d   1      -1.007  -5.200 -25.034  0.00  0.00    -0.041 C 
ATOM     18  H8  JV2 d   1      -2.004  -6.417 -23.526  0.00  0.00     0.035 H 
ATOM     19  H9  JV2 d   1      -0.532  -5.572 -22.940  0.00  0.00     0.035 H 
ATOM     20  H24 JV2 d   1      -1.820  -5.435 -25.737  0.00  0.00     0.036 H 
ATOM     21  H25 JV2 d   1      -0.103  -5.759 -25.318  0.00  0.00     0.036 H 
ATOM     22  H23 JV2 d   1      -0.939  -3.236 -25.954  0.00  0.00     0.080 H 
ATOM     23  O15 JV2 d   1      -2.880  -1.623 -22.958  0.00  0.00    -0.272 OA
BRANCH  13  24
ATOM     24  C8  JV2 d   1       0.741  -3.426 -24.625  0.00  0.00    -0.018 A 
ATOM     25  C3  JV2 d   1       1.787  -3.627 -25.571  0.00  0.00     0.008 A 
ATOM     26  C4  JV2 d   1       3.127  -3.414 -25.199  0.00  0.00    -0.066 A 
ATOM     27  C5  JV2 d   1       3.452  -3.014 -23.906  0.00  0.00    -0.082 A 
ATOM     28  H4  JV2 d   1       3.916  -3.563 -25.928  0.00  0.00     0.085 H 
ATOM     29  C6  JV2 d   1       2.430  -2.857 -22.967  0.00  0.00    -0.082 A 
ATOM     30  H5  JV2 d   1       4.484  -2.827 -23.632  0.00  0.00     0.083 H 
ATOM     31  C7  JV2 d   1       1.109  -3.073 -23.336  0.00  0.00    -0.073 A 
ATOM     32  H6  JV2 d   1       2.668  -2.567 -21.950  0.00  0.00     0.083 H 
ATOM     33  H7  JV2 d   1       0.334  -2.961 -22.586  0.00  0.00     0.084 H 
BRANCH  25  34
ATOM     34  S2  JV2 d   1       1.400  -4.154 -27.208  0.00  0.00    -0.134 SA
BRANCH  34  35
ATOM     35  C1  JV2 d   1       0.673  -2.663 -27.727  0.00  0.00    -0.030 C 
ATOM     36  H1  JV2 d   1       0.340  -2.761 -28.771  0.00  0.00     0.042 H 
ATOM     37  H2  JV2 d   1       1.410  -1.850 -27.653  0.00  0.00     0.042 H 
ATOM     38  H3  JV2 d   1      -0.191  -2.434 -27.086  0.00  0.00     0.042 H 
ENDBRANCH  34  35
ENDBRANCH  25  34
ENDBRANCH  13  24
ENDBRANCH   7  10
ENDBRANCH   2   7
BRANCH   4  39
ATOM     39  C21 JV2 d   1      -5.129   2.107 -25.556  0.00  0.00     0.021 C 
ATOM     40  H14 JV2 d   1      -5.476   1.281 -26.195  0.00  0.00     0.071 H 
ATOM     41  H15 JV2 d   1      -4.928   2.992 -26.177  0.00  0.00     0.071 H 
BRANCH  39  42
ATOM     42  C22 JV2 d   1      -6.218   2.445 -24.540  0.00  0.00    -0.040 A 
ATOM     43  C23 JV2 d   1      -6.992   3.584 -24.694  0.00  0.00    -0.065 A 
ATOM     44  C24 JV2 d   1      -8.037   3.864 -23.812  0.00  0.00    -0.002 A 
ATOM     45  H16 JV2 d   1      -6.783   4.266 -25.510  0.00  0.00     0.085 H 
ATOM     46  C25 JV2 d   1      -8.836   5.148 -23.982  0.00  0.00     0.068 C 
ATOM     47  C29 JV2 d   1      -8.293   3.013 -22.748  0.00  0.00     0.037 A 
ATOM     48  C26 JV2 d   1     -10.243   4.946 -23.402  0.00  0.00    -0.016 C 
ATOM     49  O36 JV2 d   1      -8.258   6.240 -23.212  0.00  0.00    -0.378 OA
ATOM     50  H28 JV2 d   1      -8.886   5.414 -25.048  0.00  0.00     0.091 H 
ATOM     51  C27 JV2 d   1     -10.120   4.534 -21.929  0.00  0.00     0.039 C 
ATOM     52  H29 JV2 d   1     -10.811   5.885 -23.476  0.00  0.00     0.040 H 
ATOM     53  H30 JV2 d   1     -10.764   4.157 -23.964  0.00  0.00     0.040 H 
ATOM     54  C32 JV2 d   1      -9.401   5.632 -21.133  0.00  0.00     0.075 C 
ATOM     55  N28 JV2 d   1      -9.355   3.273 -21.856  0.00  0.00    -0.382 N 
ATOM     56  H17 JV2 d   1     -11.124   4.379 -21.506  0.00  0.00     0.076 H 
ATOM     57  C35 JV2 d   1      -8.085   6.032 -21.801  0.00  0.00     0.046 C 
ATOM     58  H20 JV2 d   1      -9.185   5.258 -20.121  0.00  0.00     0.089 H 
ATOM     59  H21 JV2 d   1      -7.346   5.232 -21.645  0.00  0.00     0.078 H 
ATOM     60  H22 JV2 d   1      -7.720   6.963 -21.344  0.00  0.00     0.078 H 
ATOM     61  H31 JV2 d   1      -9.601   2.572 -21.142  0.00  0.00     0.160 HD
ATOM     62  C30 JV2 d   1      -7.518   1.855 -22.585  0.00  0.00    -0.056 A 
ATOM     63  C31 JV2 d   1      -6.493   1.585 -23.481  0.00  0.00    -0.073 A 
ATOM     64  H18 JV2 d   1      -7.718   1.175 -21.765  0.00  0.00     0.086 H 
ATOM     65  H19 JV2 d   1      -5.896   0.689 -23.354  0.00  0.00     0.084 H 
BRANCH  54  66
ATOM     66  O34 JV2 d   1     -10.267   6.778 -21.042  0.00  0.00    -0.391 OA
ATOM     67  H32 JV2 d   1     -11.083   6.525 -20.627  0.00  0.00     0.210 HD
ENDBRANCH  54  66
ENDBRANCH  39  42
ENDBRANCH   4  39
TORSDOF 8
