REMARK  5 active torsions:
REMARK  status: ('A' for Active; 'I' for Inactive)
REMARK    1  A    between atoms: C5_3  and  C4_2 
REMARK    2  A    between atoms: C4_2  and  N3_19 
REMARK       I    between atoms: N7_21  and  C5_3 
REMARK    3  A    between atoms: C8_4  and  N7_21 
REMARK    4  A    between atoms: C9_22  and  C8_4 
REMARK    5  A    between atoms: C21_10  and  O23_27 
ROOT
ATOM      1  C8  JVH d   1      -5.295   2.306 -26.074  0.00  0.00     0.019 C 
ATOM      2  H3  JVH d   1      -5.693   1.473 -26.672  0.00  0.00     0.071 H 
ATOM      3  H4  JVH d   1      -5.139   3.181 -26.723  0.00  0.00     0.071 H 
ENDROOT
BRANCH   1   4
ATOM      4  N7  JVH d   1      -3.994   1.898 -25.591  0.00  0.00    -0.355 N 
ATOM      5  C5  JVH d   1      -3.405   0.747 -25.961  0.00  0.00     0.236 C 
ATOM      6  O6  JVH d   1      -3.891  -0.066 -26.743  0.00  0.00    -0.272 OA
ATOM      7  H20 JVH d   1      -3.511   2.498 -24.954  0.00  0.00     0.162 HD
BRANCH   5   8
ATOM      8  C4  JVH d   1      -2.031   0.550 -25.432  0.00  0.00     0.079 C 
ATOM      9  H1  JVH d   1      -1.954   1.151 -24.514  0.00  0.00     0.079 H 
ATOM     10  H2  JVH d   1      -1.339   0.947 -26.189  0.00  0.00     0.079 H 
BRANCH   8  11
ATOM     11  N3  JVH d   1      -1.573  -0.774 -25.102  0.00  0.00    -0.279 N 
ATOM     12  C2  JVH d   1      -0.631  -1.351 -25.825  0.00  0.00     0.232 A 
ATOM     13  C30 JVH d   1      -0.339  -2.708 -25.247  0.00  0.00     0.040 A 
ATOM     14  O1  JVH d   1      -0.173  -0.836 -26.807  0.00  0.00    -0.272 OA
ATOM     15  C32 JVH d   1      -0.863  -3.859 -26.146  0.00  0.00    -0.041 C 
ATOM     16  C28 JVH d   1      -1.208  -2.802 -23.937  0.00  0.00     0.040 A 
ATOM     17  H11 JVH d   1       0.736  -2.824 -25.046  0.00  0.00     0.056 H 
ATOM     18  C34 JVH d   1      -2.340  -3.942 -25.653  0.00  0.00    -0.057 C 
ATOM     19  C38 JVH d   1      -0.250  -5.135 -25.485  0.00  0.00    -0.060 C 
ATOM     20  H12 JVH d   1      -0.705  -3.747 -27.229  0.00  0.00     0.041 H 
ATOM     21  C35 JVH d   1      -2.056  -4.077 -24.139  0.00  0.00    -0.041 C 
ATOM     22  H13 JVH d   1      -2.865  -4.819 -26.058  0.00  0.00     0.034 H 
ATOM     23  H14 JVH d   1      -2.910  -3.032 -25.890  0.00  0.00     0.034 H 
ATOM     24  C37 JVH d   1      -1.071  -5.296 -24.124  0.00  0.00    -0.060 C 
ATOM     25  H15 JVH d   1      -2.929  -4.175 -23.477  0.00  0.00     0.041 H 
ATOM     26  H16 JVH d   1      -1.624  -6.247 -24.109  0.00  0.00     0.033 H 
ATOM     27  H17 JVH d   1      -0.401  -5.248 -23.253  0.00  0.00     0.033 H 
ATOM     28  H18 JVH d   1       0.822  -4.994 -25.281  0.00  0.00     0.033 H 
ATOM     29  H19 JVH d   1      -0.387  -6.015 -26.131  0.00  0.00     0.033 H 
ATOM     30  C26 JVH d   1      -1.963  -1.486 -24.052  0.00  0.00     0.232 A 
ATOM     31  H27 JVH d   1      -0.624  -2.860 -23.007  0.00  0.00     0.056 H 
ATOM     32  O27 JVH d   1      -2.800  -1.111 -23.278  0.00  0.00    -0.272 OA
ENDBRANCH   8  11
ENDBRANCH   5   8
ENDBRANCH   1   4
BRANCH   1  33
ATOM     33  C9  JVH d   1      -6.355   2.680 -25.078  0.00  0.00    -0.040 A 
ATOM     34  C10 JVH d   1      -7.079   3.848 -25.238  0.00  0.00    -0.065 A 
ATOM     35  C11 JVH d   1      -8.100   4.144 -24.362  0.00  0.00    -0.002 A 
ATOM     36  H21 JVH d   1      -6.844   4.527 -26.049  0.00  0.00     0.085 H 
ATOM     37  C12 JVH d   1      -8.365   3.280 -23.282  0.00  0.00     0.037 A 
ATOM     38  C17 JVH d   1      -8.871   5.440 -24.522  0.00  0.00     0.068 C 
ATOM     39  N13 JVH d   1      -9.416   3.542 -22.367  0.00  0.00    -0.382 N 
ATOM     40  C24 JVH d   1      -7.651   2.093 -23.161  0.00  0.00    -0.056 A 
ATOM     41  C14 JVH d   1     -10.163   4.817 -22.460  0.00  0.00     0.039 C 
ATOM     42  H5  JVH d   1      -9.658   2.850 -21.643  0.00  0.00     0.160 HD
ATOM     43  C16 JVH d   1     -10.297   5.230 -23.939  0.00  0.00    -0.016 C 
ATOM     44  C21 JVH d   1      -9.439   5.916 -21.682  0.00  0.00     0.075 C 
ATOM     45  H22 JVH d   1     -11.166   4.677 -22.032  0.00  0.00     0.076 H 
ATOM     46  H6  JVH d   1     -10.815   4.438 -24.500  0.00  0.00     0.040 H 
ATOM     47  H7  JVH d   1     -10.870   6.166 -24.013  0.00  0.00     0.040 H 
ATOM     48  C20 JVH d   1      -8.086   6.297 -22.321  0.00  0.00     0.046 C 
ATOM     49  H9  JVH d   1      -9.255   5.563 -20.657  0.00  0.00     0.089 H 
ATOM     50  O19 JVH d   1      -8.237   6.499 -23.739  0.00  0.00    -0.378 OA
ATOM     51  H23 JVH d   1      -7.362   5.487 -22.146  0.00  0.00     0.078 H 
ATOM     52  H24 JVH d   1      -7.717   7.225 -21.860  0.00  0.00     0.078 H 
ATOM     53  C25 JVH d   1      -6.626   1.807 -24.039  0.00  0.00    -0.073 A 
ATOM     54  H10 JVH d   1      -7.901   1.390 -22.374  0.00  0.00     0.086 H 
ATOM     55  H26 JVH d   1      -6.037   0.905 -23.916  0.00  0.00     0.084 H 
ATOM     56  H8  JVH d   1      -8.921   5.725 -25.583  0.00  0.00     0.091 H 
BRANCH  44  57
ATOM     57  O23 JVH d   1     -10.288   7.061 -21.644  0.00  0.00    -0.391 OA
ATOM     58  H25 JVH d   1     -11.120   6.824 -21.251  0.00  0.00     0.210 HD
ENDBRANCH  44  57
ENDBRANCH   1  33
TORSDOF 5
