REMARK  2 active torsions:
REMARK  status: ('A' for Active; 'I' for Inactive)
REMARK    1  A    between atoms: C2_2  and  C1_1 
REMARK    2  A    between atoms: N3_12  and  C2_2 
ROOT
ATOM      1  C4  JVQ d   1      -9.663   5.708 -24.290  0.00  0.00     0.024 C 
ATOM      2  C5  JVQ d   1      -8.806   4.520 -23.921  0.00  0.00    -0.011 A 
ATOM      3  C6  JVQ d   1      -7.907   4.028 -24.871  0.00  0.00    -0.038 A 
ATOM      4  C7  JVQ d   1      -7.077   2.962 -24.573  0.00  0.00     0.105 A 
ATOM      5  C11 JVQ d   1      -7.133   2.385 -23.310  0.00  0.00     0.107 A 
ATOM      6  C12 JVQ d   1      -8.009   2.874 -22.357  0.00  0.00    -0.022 A 
ATOM      7  C15 JVQ d   1     -11.107   4.752 -21.786  0.00  0.00     0.001 C 
ATOM      8  C16 JVQ d   1     -11.395   6.258 -21.935  0.00  0.00     0.024 C 
ATOM      9  C17 JVQ d   1     -10.183   7.083 -22.279  0.00  0.00     0.221 C 
ATOM     10  N3  JVQ d   1      -9.406   6.828 -23.362  0.00  0.00    -0.348 N 
ATOM     11  O8  JVQ d   1      -6.138   2.322 -25.321  0.00  0.00    -0.323 OA
ATOM     12  C9  JVQ d   1      -5.726   1.160 -24.573  0.00  0.00     0.115 C 
ATOM     13  O10 JVQ d   1      -6.234   1.364 -23.246  0.00  0.00    -0.323 OA
ATOM     14  C13 JVQ d   1      -8.853   3.940 -22.649  0.00  0.00     0.038 A 
ATOM     15  N14 JVQ d   1      -9.693   4.426 -21.621  0.00  0.00    -0.389 N 
ATOM     16  O18 JVQ d   1      -9.899   8.020 -21.545  0.00  0.00    -0.273 OA
ATOM     17  H6  JVQ d   1     -10.724   5.423 -24.231  0.00  0.00     0.071 H 
ATOM     18  H7  JVQ d   1      -9.424   6.024 -25.316  0.00  0.00     0.071 H 
ATOM     19  H8  JVQ d   1      -7.859   4.487 -25.852  0.00  0.00     0.088 H 
ATOM     20  H9  JVQ d   1      -8.038   2.421 -21.372  0.00  0.00     0.091 H 
ATOM     21  H10 JVQ d   1     -11.476   4.239 -22.686  0.00  0.00     0.064 H 
ATOM     22  H11 JVQ d   1     -11.651   4.382 -20.904  0.00  0.00     0.064 H 
ATOM     23  H12 JVQ d   1     -11.806   6.627 -20.984  0.00  0.00     0.049 H 
ATOM     24  H13 JVQ d   1     -12.141   6.390 -22.733  0.00  0.00     0.049 H 
ATOM     25  H14 JVQ d   1      -4.629   1.081 -24.558  0.00  0.00     0.118 H 
ATOM     26  H15 JVQ d   1      -6.154   0.247 -25.013  0.00  0.00     0.118 H 
ATOM     27  H16 JVQ d   1      -9.278   4.560 -20.688  0.00  0.00     0.159 HD
ENDROOT
BRANCH  10  28
ATOM     28  C2  JVQ d   1      -8.140   7.565 -23.520  0.00  0.00    -0.005 C 
ATOM     29  H4  JVQ d   1      -7.778   7.447 -24.552  0.00  0.00     0.063 H 
ATOM     30  H5  JVQ d   1      -8.312   8.631 -23.311  0.00  0.00     0.063 H 
BRANCH  28  31
ATOM     31  C1  JVQ d   1      -7.083   7.022 -22.546  0.00  0.00    -0.061 C 
ATOM     32  H1  JVQ d   1      -6.144   7.581 -22.675  0.00  0.00     0.029 H 
ATOM     33  H2  JVQ d   1      -6.907   5.956 -22.753  0.00  0.00     0.029 H 
ATOM     34  H3  JVQ d   1      -7.441   7.140 -21.513  0.00  0.00     0.029 H 
ENDBRANCH  28  31
ENDBRANCH  10  28
TORSDOF 2
