REMARK  4 active torsions:
REMARK  status: ('A' for Active; 'I' for Inactive)
REMARK       I    between atoms: C2_1  and  N3_12 
REMARK    1  A    between atoms: C9_13  and  C2_1 
REMARK    2  A    between atoms: N3_12  and  C4_2 
REMARK    3  A    between atoms: C12_7  and  N11_15 
REMARK    4  A    between atoms: C13_16  and  C12_7 
REMARK       I    between atoms: N11_15  and  C9_13 
ROOT
ATOM      1  C2  JW2 d   1       4.996  19.912  18.811  0.00  0.00     0.309 C 
ATOM      2  O1  JW2 d   1       4.691  20.426  19.875  0.00  0.00    -0.262 OA
ATOM      3  N3  JW2 d   1       6.236  20.044  18.305  0.00  0.00    -0.348 N 
ATOM      4  H15 JW2 d   1       6.460  19.602  17.437  0.00  0.00     0.163 HD
ENDROOT
BRANCH   1   5
ATOM      5  C9  JW2 d   1       4.001  19.114  18.043  0.00  0.00     0.309 C 
ATOM      6  O10 JW2 d   1       4.308  18.544  16.999  0.00  0.00    -0.262 OA
ATOM      7  N11 JW2 d   1       2.759  19.055  18.554  0.00  0.00    -0.347 N 
ATOM      8  H16 JW2 d   1       2.563  19.547  19.402  0.00  0.00     0.163 HD
BRANCH   7   9
ATOM      9  C12 JW2 d   1       1.683  18.296  17.914  0.00  0.00     0.035 C 
ATOM     10  H10 JW2 d   1       2.079  17.778  17.028  0.00  0.00     0.073 H 
ATOM     11  H11 JW2 d   1       0.882  18.985  17.609  0.00  0.00     0.073 H 
BRANCH   9  12
ATOM     12  C13 JW2 d   1       1.128  17.280  18.881  0.00  0.00     0.051 A 
ATOM     13  C14 JW2 d   1       1.904  16.826  19.955  0.00  0.00    -0.058 A 
ATOM     14  C15 JW2 d   1       1.354  15.887  20.829  0.00  0.00    -0.080 A 
ATOM     15  H17 JW2 d   1       2.912  17.197  20.104  0.00  0.00     0.086 H 
ATOM     16  C16 JW2 d   1       0.058  15.419  20.596  0.00  0.00    -0.066 A 
ATOM     17  H12 JW2 d   1       1.924  15.526  21.677  0.00  0.00     0.083 H 
ATOM     18  C17 JW2 d   1      -0.648  15.903  19.494  0.00  0.00     0.003 A 
ATOM     19  H13 JW2 d   1      -0.392  14.691  21.261  0.00  0.00     0.085 H 
ATOM     20  N18 JW2 d   1      -0.108  16.815  18.694  0.00  0.00    -0.264 NA
ATOM     21  H14 JW2 d   1      -1.645  15.531  19.289  0.00  0.00     0.114 H 
ENDBRANCH   9  12
ENDBRANCH   7   9
ENDBRANCH   1   5
BRANCH   3  22
ATOM     22  C4  JW2 d   1       7.262  20.821  18.999  0.00  0.00     0.012 C 
ATOM     23  C5  JW2 d   1       8.579  20.523  18.274  0.00  0.00    -0.046 C 
ATOM     24  C6  JW2 d   1       9.027  21.868  17.680  0.00  0.00    -0.063 C 
ATOM     25  H2  JW2 d   1       8.421  19.783  17.476  0.00  0.00     0.035 H 
ATOM     26  H3  JW2 d   1       9.331  20.144  18.982  0.00  0.00     0.035 H 
ATOM     27  C7  JW2 d   1       7.747  22.720  17.556  0.00  0.00    -0.063 C 
ATOM     28  H4  JW2 d   1       9.484  21.717  16.691  0.00  0.00     0.033 H 
ATOM     29  H5  JW2 d   1       9.751  22.359  18.347  0.00  0.00     0.033 H 
ATOM     30  C8  JW2 d   1       6.996  22.332  18.840  0.00  0.00    -0.046 C 
ATOM     31  H6  JW2 d   1       7.172  22.453  16.657  0.00  0.00     0.033 H 
ATOM     32  H7  JW2 d   1       7.980  23.795  17.536  0.00  0.00     0.033 H 
ATOM     33  H8  JW2 d   1       7.388  22.889  19.704  0.00  0.00     0.035 H 
ATOM     34  H9  JW2 d   1       5.919  22.529  18.735  0.00  0.00     0.035 H 
ATOM     35  H1  JW2 d   1       7.312  20.544  20.062  0.00  0.00     0.072 H 
ENDBRANCH   3  22
TORSDOF 4
