REMARK  11 active torsions:
REMARK  status: ('A' for Active; 'I' for Inactive)
REMARK    1  A    between atoms: O1_32  and  C1_1 
REMARK    2  A    between atoms: C9_28  and  C10_2 
REMARK    3  A    between atoms: C11_3  and  O3_34 
REMARK    4  A    between atoms: O3_34  and  C12_4 
REMARK    5  A    between atoms: C15_7  and  C17_9 
REMARK    6  A    between atoms: C18_10  and  C19_11 
REMARK    7  A    between atoms: C18_10  and  C20_13 
REMARK    8  A    between atoms: N3_31  and  C18_10 
REMARK    9  A    between atoms: C2_12  and  O1_32 
REMARK   10  A    between atoms: N1_29  and  C6_25 
REMARK   11  A    between atoms: C8_27  and  C7_26 
REMARK       I    between atoms: C7_26  and  N1_29 
ROOT
ATOM      1  C10 K3W d   1      28.029  13.203  -2.136  0.00  0.00     0.052 A 
ATOM      2  C11 K3W d   1      28.203  12.653  -0.842  0.00  0.00     0.086 A 
ATOM      3  C13 K3W d   1      27.882  11.313  -0.610  0.00  0.00    -0.049 A 
ATOM      4  C14 K3W d   1      27.386  10.518  -1.629  0.00  0.00    -0.068 A 
ATOM      5  C15 K3W d   1      27.197  11.043  -2.905  0.00  0.00    -0.008 A 
ATOM      6  C16 K3W d   1      27.513  12.387  -3.149  0.00  0.00    -0.050 A 
ATOM      7  H7  K3W d   1      28.023  10.891   0.379  0.00  0.00     0.087 H 
ATOM      8  H8  K3W d   1      27.143   9.480  -1.432  0.00  0.00     0.085 H 
ATOM      9  H9  K3W d   1      27.355  12.801  -4.138  0.00  0.00     0.087 H 
ENDROOT
BRANCH   5  10
ATOM     10  C17 K3W d   1      26.651  10.240  -4.041  0.00  0.00     0.070 C 
ATOM     11  C27 K3W d   1      26.688   8.692  -4.003  0.00  0.00     0.006 C 
ATOM     12  C22 K3W d   1      26.947   8.181  -5.444  0.00  0.00     0.037 C 
ATOM     13  C26 K3W d   1      25.417   8.038  -3.416  0.00  0.00    -0.041 C 
ATOM     14  H24 K3W d   1      27.534   8.392  -3.368  0.00  0.00     0.051 H 
ATOM     15  C21 K3W d   1      25.924   8.853  -6.332  0.00  0.00     0.245 C 
ATOM     16  C23 K3W d   1      26.977   6.645  -5.542  0.00  0.00    -0.038 C 
ATOM     17  H17 K3W d   1      27.942   8.532  -5.756  0.00  0.00     0.056 H 
ATOM     18  N3  K3W d   1      25.624  10.191  -6.059  0.00  0.00    -0.234 N 
ATOM     19  O4  K3W d   1      25.341   8.251  -7.218  0.00  0.00    -0.271 OA
ATOM     20  N2  K3W d   1      26.202  10.911  -5.050  0.00  0.00    -0.173 NA
ATOM     21  C24 K3W d   1      25.864   6.007  -4.785  0.00  0.00    -0.106 C 
ATOM     22  H18 K3W d   1      27.933   6.284  -5.136  0.00  0.00     0.040 H 
ATOM     23  H19 K3W d   1      26.895   6.357  -6.600  0.00  0.00     0.040 H 
ATOM     24  C25 K3W d   1      25.219   6.607  -3.806  0.00  0.00    -0.106 C 
ATOM     25  H20 K3W d   1      25.569   4.994  -5.054  0.00  0.00     0.076 H 
ATOM     26  H21 K3W d   1      24.493   6.023  -3.243  0.00  0.00     0.076 H 
ATOM     27  H22 K3W d   1      25.479   8.090  -2.319  0.00  0.00     0.040 H 
ATOM     28  H23 K3W d   1      24.544   8.612  -3.761  0.00  0.00     0.040 H 
BRANCH  18  29
ATOM     29  C18 K3W d   1      24.624  10.926  -6.887  0.00  0.00     0.031 C 
ATOM     30  H10 K3W d   1      24.133  10.199  -7.551  0.00  0.00     0.074 H 
BRANCH  29  31
ATOM     31  C19 K3W d   1      25.345  11.941  -7.771  0.00  0.00    -0.056 C 
ATOM     32  H11 K3W d   1      24.609  12.483  -8.382  0.00  0.00     0.030 H 
ATOM     33  H12 K3W d   1      26.053  11.416  -8.430  0.00  0.00     0.030 H 
ATOM     34  H13 K3W d   1      25.893  12.654  -7.138  0.00  0.00     0.030 H 
ENDBRANCH  29  31
BRANCH  29  35
ATOM     35  C20 K3W d   1      23.533  11.544  -6.010  0.00  0.00    -0.056 C 
ATOM     36  H14 K3W d   1      23.060  10.757  -5.404  0.00  0.00     0.030 H 
ATOM     37  H15 K3W d   1      22.775  12.020  -6.649  0.00  0.00     0.030 H 
ATOM     38  H16 K3W d   1      23.980  12.299  -5.346  0.00  0.00     0.030 H 
ENDBRANCH  29  35
ENDBRANCH  18  29
ENDBRANCH   5  10
BRANCH   1  39
ATOM     39  C9  K3W d   1      28.340  14.585  -2.423  0.00  0.00    -0.054 C 
ATOM     40  C8  K3W d   1      28.536  15.683  -2.906  0.00  0.00     0.000 C 
BRANCH  40  41
ATOM     41  C7  K3W d   1      28.526  17.080  -3.223  0.00  0.00     0.301 C 
ATOM     42  N1  K3W d   1      27.584  17.542  -4.134  0.00  0.00    -0.316 N 
ATOM     43  H29 K3W d   1      27.804  18.428  -4.542  0.00  0.00     0.170 HD
ATOM     44  O2  K3W d   1      29.301  17.814  -2.613  0.00  0.00    -0.258 OA
BRANCH  42  45
ATOM     45  C6  K3W d   1      26.355  16.971  -4.590  0.00  0.00     0.038 A 
ATOM     46  C28 K3W d   1      25.212  17.735  -4.861  0.00  0.00    -0.025 A 
ATOM     47  C2  K3W d   1      24.050  17.117  -5.349  0.00  0.00     0.070 A 
ATOM     48  H25 K3W d   1      25.225  18.806  -4.693  0.00  0.00     0.091 H 
ATOM     49  C3  K3W d   1      24.034  15.748  -5.582  0.00  0.00    -0.051 A 
ATOM     50  C4  K3W d   1      25.175  15.008  -5.335  0.00  0.00    -0.078 A 
ATOM     51  H26 K3W d   1      23.137  15.265  -5.953  0.00  0.00     0.087 H 
ATOM     52  C5  K3W d   1      26.325  15.602  -4.838  0.00  0.00    -0.057 A 
ATOM     53  H27 K3W d   1      25.171  13.942  -5.534  0.00  0.00     0.083 H 
ATOM     54  H28 K3W d   1      27.204  14.998  -4.642  0.00  0.00     0.086 H 
BRANCH  47  55
ATOM     55  O1  K3W d   1      22.835  17.699  -5.630  0.00  0.00    -0.356 OA
BRANCH  55  56
ATOM     56  C1  K3W d   1      22.760  19.102  -5.900  0.00  0.00     0.010 C 
ATOM     57  H1  K3W d   1      21.715  19.381  -6.101  0.00  0.00     0.066 H 
ATOM     58  H2  K3W d   1      23.378  19.340  -6.778  0.00  0.00     0.066 H 
ATOM     59  H3  K3W d   1      23.129  19.663  -5.029  0.00  0.00     0.066 H 
ENDBRANCH  55  56
ENDBRANCH  47  55
ENDBRANCH  42  45
ENDBRANCH  40  41
ENDBRANCH   1  39
BRANCH   2  60
ATOM     60  O3  K3W d   1      28.730  13.478   0.117  0.00  0.00    -0.354 OA
BRANCH  60  61
ATOM     61  C12 K3W d   1      29.554  12.872   1.115  0.00  0.00     0.010 C 
ATOM     62  H4  K3W d   1      29.908  13.643   1.816  0.00  0.00     0.066 H 
ATOM     63  H5  K3W d   1      30.418  12.390   0.634  0.00  0.00     0.066 H 
ATOM     64  H6  K3W d   1      28.971  12.117   1.663  0.00  0.00     0.066 H 
ENDBRANCH  60  61
ENDBRANCH   2  60
TORSDOF 11
