REMARK  11 active torsions:
REMARK  status: ('A' for Active; 'I' for Inactive)
REMARK    1  A    between atoms: C8_3  and  C5_2 
REMARK       I    between atoms: C21_20  and  N3_5 
REMARK    2  A    between atoms: N3_5  and  C22_21 
REMARK    3  A    between atoms: C2_6  and  O1_34 
REMARK    4  A    between atoms: O1_34  and  C1_8 
REMARK    5  A    between atoms: C9_31  and  C10_9 
REMARK    6  A    between atoms: C9_31  and  C11_10 
REMARK    7  A    between atoms: C3_29  and  C19_18 
REMARK    8  A    between atoms: C20_19  and  C21_20 
REMARK    9  A    between atoms: C22_21  and  C23_22 
REMARK   10  A    between atoms: C23_22  and  C24_23 
REMARK   11  A    between atoms: C9_31  and  N2_33 
ROOT
ATOM      1  C6  K1Q d   1      27.306  10.474  -1.813  0.00  0.00    -0.068 A 
ATOM      2  C5  K1Q d   1      27.004  11.063  -3.036  0.00  0.00    -0.008 A 
ATOM      3  C4  K1Q d   1      27.220  12.434  -3.223  0.00  0.00    -0.050 A 
ATOM      4  C2  K1Q d   1      28.053  12.604  -0.958  0.00  0.00     0.086 A 
ATOM      5  C3  K1Q d   1      27.742  13.220  -2.190  0.00  0.00     0.052 A 
ATOM      6  C7  K1Q d   1      27.825  11.238  -0.784  0.00  0.00    -0.049 A 
ATOM      7  H1  K1Q d   1      27.134   9.414  -1.666  0.00  0.00     0.085 H 
ATOM      8  H2  K1Q d   1      26.981  12.890  -4.177  0.00  0.00     0.087 H 
ATOM      9  H29 K1Q d   1      28.057  10.772   0.167  0.00  0.00     0.087 H 
ENDROOT
BRANCH   2  10
ATOM     10  C8  K1Q d   1      26.444  10.260  -4.160  0.00  0.00     0.070 C 
ATOM     11  N1  K1Q d   1      25.845  10.923  -5.086  0.00  0.00    -0.173 NA
ATOM     12  N2  K1Q d   1      25.308  10.217  -6.121  0.00  0.00    -0.234 N 
ATOM     13  C12 K1Q d   1      25.709   8.951  -6.495  0.00  0.00     0.245 C 
ATOM     14  C13 K1Q d   1      26.801   8.300  -5.673  0.00  0.00     0.037 C 
ATOM     15  O2  K1Q d   1      25.173   8.397  -7.439  0.00  0.00    -0.271 OA
ATOM     16  C14 K1Q d   1      26.896   6.769  -5.810  0.00  0.00    -0.038 C 
ATOM     17  C18 K1Q d   1      26.609   8.738  -4.199  0.00  0.00     0.006 C 
ATOM     18  H13 K1Q d   1      27.761   8.706  -6.025  0.00  0.00     0.056 H 
ATOM     19  C15 K1Q d   1      25.912   6.041  -4.958  0.00  0.00    -0.106 C 
ATOM     20  H14 K1Q d   1      27.909   6.454  -5.521  0.00  0.00     0.040 H 
ATOM     21  H15 K1Q d   1      26.715   6.500  -6.861  0.00  0.00     0.040 H 
ATOM     22  C16 K1Q d   1      25.288   6.587  -3.934  0.00  0.00    -0.106 C 
ATOM     23  H16 K1Q d   1      25.697   5.000  -5.195  0.00  0.00     0.076 H 
ATOM     24  C17 K1Q d   1      25.409   8.026  -3.554  0.00  0.00    -0.041 C 
ATOM     25  H17 K1Q d   1      24.645   5.950  -3.328  0.00  0.00     0.076 H 
ATOM     26  H18 K1Q d   1      25.515   8.089  -2.461  0.00  0.00     0.040 H 
ATOM     27  H19 K1Q d   1      24.490   8.545  -3.864  0.00  0.00     0.040 H 
ATOM     28  H20 K1Q d   1      27.512   8.468  -3.631  0.00  0.00     0.051 H 
BRANCH  12  29
ATOM     29  C9  K1Q d   1      24.271  10.948  -6.897  0.00  0.00     0.031 C 
ATOM     30  H30 K1Q d   1      23.679  10.215  -7.464  0.00  0.00     0.074 H 
BRANCH  29  31
ATOM     31  C10 K1Q d   1      24.962  11.870  -7.891  0.00  0.00    -0.056 C 
ATOM     32  H7  K1Q d   1      24.204  12.417  -8.472  0.00  0.00     0.030 H 
ATOM     33  H8  K1Q d   1      25.586  11.273  -8.572  0.00  0.00     0.030 H 
ATOM     34  H9  K1Q d   1      25.595  12.587  -7.347  0.00  0.00     0.030 H 
ENDBRANCH  29  31
BRANCH  29  35
ATOM     35  C11 K1Q d   1      23.318  11.696  -5.966  0.00  0.00    -0.056 C 
ATOM     36  H10 K1Q d   1      22.849  10.983  -5.272  0.00  0.00     0.030 H 
ATOM     37  H11 K1Q d   1      22.539  12.194  -6.562  0.00  0.00     0.030 H 
ATOM     38  H12 K1Q d   1      23.880  12.449  -5.394  0.00  0.00     0.030 H 
ENDBRANCH  29  35
ENDBRANCH  12  29
ENDBRANCH   2  10
BRANCH   5  39
ATOM     39  C19 K1Q d   1      28.016  14.624  -2.379  0.00  0.00    -0.054 C 
ATOM     40  C20 K1Q d   1      28.357  15.768  -2.533  0.00  0.00    -0.000 C 
BRANCH  40  41
ATOM     41  C21 K1Q d   1      28.834  17.089  -2.807  0.00  0.00     0.296 C 
ATOM     42  N3  K1Q d   1      28.548  17.521  -4.042  0.00  0.00    -0.350 N 
ATOM     43  H3  K1Q d   1      28.528  18.505  -4.217  0.00  0.00     0.163 HD
ATOM     44  O3  K1Q d   1      29.469  17.775  -2.004  0.00  0.00    -0.258 OA
BRANCH  42  45
ATOM     45  C22 K1Q d   1      28.267  16.609  -5.133  0.00  0.00    -0.000 C 
ATOM     46  H21 K1Q d   1      27.825  15.688  -4.724  0.00  0.00     0.064 H 
ATOM     47  H22 K1Q d   1      29.209  16.366  -5.647  0.00  0.00     0.064 H 
BRANCH  45  48
ATOM     48  C23 K1Q d   1      27.320  17.206  -6.114  0.00  0.00    -0.023 C 
ATOM     49  H23 K1Q d   1      27.341  16.571  -7.012  0.00  0.00     0.042 H 
ATOM     50  H24 K1Q d   1      27.701  18.207  -6.364  0.00  0.00     0.042 H 
BRANCH  48  51
ATOM     51  C24 K1Q d   1      25.867  17.368  -5.716  0.00  0.00    -0.018 A 
ATOM     52  C25 K1Q d   1      24.978  16.299  -5.651  0.00  0.00     0.122 A 
ATOM     53  C26 K1Q d   1      23.641  16.442  -5.367  0.00  0.00    -0.045 A 
ATOM     54  F1  K1Q d   1      25.454  15.043  -5.857  0.00  0.00    -0.206 F 
ATOM     55  C27 K1Q d   1      23.148  17.708  -5.158  0.00  0.00    -0.080 A 
ATOM     56  H25 K1Q d   1      22.991  15.577  -5.309  0.00  0.00     0.088 H 
ATOM     57  C28 K1Q d   1      23.989  18.805  -5.227  0.00  0.00    -0.082 A 
ATOM     58  H26 K1Q d   1      22.096  17.848  -4.938  0.00  0.00     0.083 H 
ATOM     59  C29 K1Q d   1      25.338  18.640  -5.511  0.00  0.00    -0.074 A 
ATOM     60  H27 K1Q d   1      23.592  19.799  -5.058  0.00  0.00     0.083 H 
ATOM     61  H28 K1Q d   1      25.985  19.508  -5.574  0.00  0.00     0.084 H 
ENDBRANCH  48  51
ENDBRANCH  45  48
ENDBRANCH  42  45
ENDBRANCH  40  41
ENDBRANCH   5  39
BRANCH   4  62
ATOM     62  O1  K1Q d   1      28.565  13.434   0.008  0.00  0.00    -0.354 OA
BRANCH  62  63
ATOM     63  C1  K1Q d   1      29.186  12.839   1.147  0.00  0.00     0.010 C 
ATOM     64  H4  K1Q d   1      29.543  13.629   1.825  0.00  0.00     0.066 H 
ATOM     65  H5  K1Q d   1      30.037  12.224   0.821  0.00  0.00     0.066 H 
ATOM     66  H6  K1Q d   1      28.456  12.206   1.674  0.00  0.00     0.066 H 
ENDBRANCH  62  63
ENDBRANCH   4  62
TORSDOF 11
