REMARK  4 active torsions:
REMARK  status: ('A' for Active; 'I' for Inactive)
REMARK    1  A    between atoms: C1_8  and  C5_1 
REMARK       I    between atoms: C5_1  and  N7_12 
REMARK    2  A    between atoms: C6_2  and  C12_15 
REMARK    3  A    between atoms: N7_12  and  C8_3 
REMARK    4  A    between atoms: N2_9  and  C13_5 
ROOT
ATOM      1  C6  K4T d   1      12.636 -12.579  73.715  0.00  0.00     0.089 A 
ATOM      2  C1  K4T d   1      14.147 -12.024  72.178  0.00  0.00     0.122 A 
ATOM      3  N2  K4T d   1      13.548 -13.221  71.880  0.00  0.00    -0.268 N 
ATOM      4  C3  K4T d   1      13.583 -11.595  73.368  0.00  0.00    -0.020 A 
ATOM      5  N4  K4T d   1      12.683 -13.508  72.785  0.00  0.00    -0.172 NA
ATOM      6  H9  K4T d   1      13.822 -10.687  73.920  0.00  0.00     0.091 H 
ENDROOT
BRANCH   2   7
ATOM      7  C5  K4T d   1      15.194 -11.331  71.407  0.00  0.00     0.270 C 
ATOM      8  N7  K4T d   1      16.069 -10.531  72.046  0.00  0.00    -0.351 N 
ATOM      9  H10 K4T d   1      16.002 -10.411  73.036  0.00  0.00     0.163 HD
ATOM     10  O11 K4T d   1      15.282 -11.482  70.200  0.00  0.00    -0.266 OA
BRANCH   8  11
ATOM     11  C8  K4T d   1      17.121  -9.835  71.296  0.00  0.00     0.013 A 
ATOM     12  C10 K4T d   1      17.985  -8.827  72.050  0.00  0.00    -0.044 A 
ATOM     13  C9  K4T d   1      16.932  -8.337  71.053  0.00  0.00    -0.044 A 
ATOM     14  H2  K4T d   1      19.055  -8.732  71.811  0.00  0.00     0.036 H 
ATOM     15  H3  K4T d   1      17.835  -8.672  73.129  0.00  0.00     0.036 H 
ATOM     16  H11 K4T d   1      16.025  -7.831  71.415  0.00  0.00     0.036 H 
ATOM     17  H12 K4T d   1      17.244  -7.891  70.097  0.00  0.00     0.036 H 
ATOM     18  H1  K4T d   1      17.553 -10.489  70.524  0.00  0.00     0.072 H 
ENDBRANCH   8  11
ENDBRANCH   2   7
BRANCH   3  19
ATOM     19  C13 K4T d   1      13.834 -14.060  70.712  0.00  0.00     0.003 C 
ATOM     20  H4  K4T d   1      13.199 -14.958  70.741  0.00  0.00     0.059 H 
ATOM     21  H5  K4T d   1      14.893 -14.359  70.726  0.00  0.00     0.059 H 
ATOM     22  H6  K4T d   1      13.625 -13.493  69.793  0.00  0.00     0.059 H 
ENDBRANCH   3  19
BRANCH   1  23
ATOM     23  C12 K4T d   1      11.769 -12.596  74.923  0.00  0.00    -0.006 A 
ATOM     24  C15 K4T d   1      11.941 -11.643  75.934  0.00  0.00    -0.071 A 
ATOM     25  C17 K4T d   1      11.136 -11.672  77.063  0.00  0.00    -0.082 A 
ATOM     26  H7  K4T d   1      12.705 -10.881  75.834  0.00  0.00     0.084 H 
ATOM     27  C18 K4T d   1      10.162 -12.652  77.200  0.00  0.00    -0.083 A 
ATOM     28  H8  K4T d   1      11.268 -10.928  77.840  0.00  0.00     0.083 H 
ATOM     29  C16 K4T d   1       9.984 -13.602  76.201  0.00  0.00    -0.082 A 
ATOM     30  H15 K4T d   1       9.540 -12.676  78.087  0.00  0.00     0.083 H 
ATOM     31  C14 K4T d   1      10.786 -13.585  75.071  0.00  0.00    -0.071 A 
ATOM     32  H14 K4T d   1       9.215 -14.359  76.306  0.00  0.00     0.083 H 
ATOM     33  H13 K4T d   1      10.653 -14.337  74.301  0.00  0.00     0.084 H 
ENDBRANCH   1  23
TORSDOF 4
