REMARK  6 active torsions:
REMARK  status: ('A' for Active; 'I' for Inactive)
REMARK    1  A    between atoms: O2'_12  and  PA_1 
REMARK    2  A    between atoms: C5'_6  and  O5'_5 
REMARK    3  A    between atoms: C4'_7  and  C5'_6 
REMARK    4  A    between atoms: C3'_9  and  O3'_10 
REMARK    5  A    between atoms: C2'_11  and  O2'_12 
REMARK    6  A    between atoms: C1'_13  and  N9_14 
ROOT
ATOM      1  C4' 2AM d   1      22.847  13.772  -2.521  0.00  0.00     0.088 C 
ATOM      2  O4' 2AM d   1      22.864  12.360  -2.088  0.00  0.00    -0.353 OA
ATOM      3  C3' 2AM d   1      21.852  14.606  -1.631  0.00  0.00     0.092 C 
ATOM      4  C2' 2AM d   1      21.483  13.452  -0.657  0.00  0.00     0.121 C 
ATOM      5  C1' 2AM d   1      21.604  12.145  -1.411  0.00  0.00     0.140 C 
ATOM      6  H4  2AM d   1      22.479  13.801  -3.557  0.00  0.00     0.090 H 
ATOM      7  H5  2AM d   1      22.319  15.473  -1.142  0.00  0.00     0.091 H 
ATOM      8  H7  2AM d   1      22.175  13.451   0.198  0.00  0.00     0.095 H 
ATOM      9  H8  2AM d   1      20.762  12.030  -2.109  0.00  0.00     0.123 H 
ENDROOT
BRANCH   5  10
ATOM     10  N9  2AM d   1      21.751  10.903  -0.629  0.00  0.00    -0.294 N 
ATOM     11  C8  2AM d   1      22.599  10.623   0.430  0.00  0.00     0.071 C 
ATOM     12  N7  2AM d   1      22.632   9.342   0.756  0.00  0.00    -0.236 NA
ATOM     13  H9  2AM d   1      23.183  11.385   0.945  0.00  0.00     0.144 H 
ATOM     14  C5  2AM d   1      21.721   8.757  -0.105  0.00  0.00     0.149 C 
ATOM     15  C6  2AM d   1      21.336   7.384  -0.121  0.00  0.00     0.155 C 
ATOM     16  C4  2AM d   1      21.380   9.644  -1.113  0.00  0.00     0.167 C 
ATOM     17  N6  2AM d   1      21.648   6.534   0.752  0.00  0.00    -0.382 N 
ATOM     18  N1  2AM d   1      20.541   7.093  -1.220  0.00  0.00    -0.222 NA
ATOM     19  H10 2AM d   1      21.325   5.560   0.661  0.00  0.00     0.157 HD
ATOM     20  H11 2AM d   1      22.226   6.812   1.558  0.00  0.00     0.157 HD
ATOM     21  C2  2AM d   1      20.158   8.070  -2.125  0.00  0.00     0.091 C 
ATOM     22  N3  2AM d   1      20.448   9.403  -2.090  0.00  0.00    -0.222 NA
ATOM     23  H12 2AM d   1      19.555   7.735  -2.962  0.00  0.00     0.146 H 
ENDBRANCH   5  10
BRANCH   4  24
ATOM     24  O2' 2AM d   1      20.163  13.628  -0.188  0.00  0.00    -0.270 OA
BRANCH  24  25
ATOM     25  PA  2AM d   1      19.667  13.828   1.377  0.00  0.00     0.422 P 
ATOM     26  O1A 2AM d   1      20.808  14.487   1.961  0.00  0.00    -0.617 OA
ATOM     27  O2A 2AM d   1      19.730  12.384   1.818  0.00  0.00    -0.617 OA
ATOM     28  O3A 2AM d   1      18.382  14.473   1.214  0.00  0.00    -0.617 OA
ENDBRANCH  24  25
ENDBRANCH   4  24
BRANCH   3  29
ATOM     29  O3' 2AM d   1      20.681  15.001  -2.377  0.00  0.00    -0.390 OA
ATOM     30  H6  2AM d   1      20.102  15.501  -1.814  0.00  0.00     0.210 HD
ENDBRANCH   3  29
BRANCH   1  31
ATOM     31  C5' 2AM d   1      24.232  14.379  -2.509  0.00  0.00     0.043 C 
ATOM     32  H2  2AM d   1      24.803  14.016  -3.376  0.00  0.00     0.078 H 
ATOM     33  H3  2AM d   1      24.156  15.476  -2.553  0.00  0.00     0.078 H 
BRANCH  31  34
ATOM     34  O5' 2AM d   1      24.901  13.985  -1.285  0.00  0.00    -0.398 OA
ATOM     35  H1  2AM d   1      24.963  13.038  -1.250  0.00  0.00     0.209 HD
ENDBRANCH  31  34
ENDBRANCH   1  31
TORSDOF 6
