REMARK  10 active torsions:
REMARK  status: ('A' for Active; 'I' for Inactive)
REMARK    1  A    between atoms: C_26  and  C9_5 
REMARK    2  A    between atoms: C7_10  and  C8_8 
REMARK    3  A    between atoms: C8_8  and  O1_30 
REMARK    4  A    between atoms: C1_29  and  C2_9 
REMARK    5  A    between atoms: C15_12  and  C16_11 
REMARK    6  A    between atoms: S_21  and  C15_12 
REMARK       I    between atoms: N1_15  and  C13_13 
REMARK    7  A    between atoms: C13_13  and  C14_24 
REMARK    8  A    between atoms: N2_23  and  S_21 
REMARK    9  A    between atoms: C14_24  and  N2_23 
REMARK       I    between atoms: N_28  and  C_26 
REMARK   10  A    between atoms: N_28  and  C1_29 
ROOT
ATOM      1  C9  KDQ d   1      17.739 -11.369  20.831  0.00  0.00     0.091 C 
ATOM      2  C10 KDQ d   1      18.594 -11.277  19.562  0.00  0.00    -0.036 C 
ATOM      3  C11 KDQ d   1      19.865 -12.036  19.924  0.00  0.00    -0.048 C 
ATOM      4  C13 KDQ d   1      17.521 -13.190  22.459  0.00  0.00     0.238 C 
ATOM      5  C12 KDQ d   1      19.388 -13.175  20.792  0.00  0.00    -0.001 C 
ATOM      6  N1  KDQ d   1      18.176 -12.633  21.430  0.00  0.00    -0.337 N 
ATOM      7  O2  KDQ d   1      16.488 -12.714  22.924  0.00  0.00    -0.272 OA
ATOM      8  H5  KDQ d   1      17.941 -10.522  21.503  0.00  0.00     0.087 H 
ATOM      9  H6  KDQ d   1      18.820 -10.229  19.317  0.00  0.00     0.036 H 
ATOM     10  H7  KDQ d   1      18.084 -11.751  18.710  0.00  0.00     0.036 H 
ATOM     11  H8  KDQ d   1      20.560 -11.389  20.479  0.00  0.00     0.035 H 
ATOM     12  H9  KDQ d   1      20.361 -12.418  19.020  0.00  0.00     0.035 H 
ATOM     13  H14 KDQ d   1      20.145 -13.440  21.545  0.00  0.00     0.064 H 
ATOM     14  H15 KDQ d   1      19.151 -14.060  20.184  0.00  0.00     0.064 H 
ENDROOT
BRANCH   1  15
ATOM     15  C   KDQ d   1      16.249 -11.409  20.502  0.00  0.00     0.240 C 
ATOM     16  O   KDQ d   1      15.745 -12.402  19.973  0.00  0.00    -0.271 OA
ATOM     17  N   KDQ d   1      15.559 -10.302  20.791  0.00  0.00    -0.355 N 
ATOM     18  H23 KDQ d   1      16.027  -9.551  21.258  0.00  0.00     0.162 HD
BRANCH  17  19
ATOM     19  C1  KDQ d   1      14.150 -10.147  20.452  0.00  0.00     0.019 C 
ATOM     20  H24 KDQ d   1      14.024  -9.200  19.907  0.00  0.00     0.071 H 
ATOM     21  H25 KDQ d   1      13.853 -10.985  19.804  0.00  0.00     0.071 H 
BRANCH  19  22
ATOM     22  C2  KDQ d   1      13.243 -10.130  21.660  0.00  0.00    -0.030 A 
ATOM     23  C3  KDQ d   1      13.173  -9.004  22.476  0.00  0.00    -0.054 A 
ATOM     24  C4  KDQ d   1      12.298  -8.976  23.539  0.00  0.00     0.034 A 
ATOM     25  H1  KDQ d   1      13.808  -8.149  22.274  0.00  0.00     0.087 H 
ATOM     26  C5  KDQ d   1      11.482 -10.043  23.824  0.00  0.00    -0.061 A 
ATOM     27 CL   KDQ d   1      12.243  -7.563  24.549  0.00  0.00    -0.084 Cl
ATOM     28  C6  KDQ d   1      11.555 -11.169  23.028  0.00  0.00    -0.073 A 
ATOM     29  H2  KDQ d   1      10.792 -10.002  24.659  0.00  0.00     0.086 H 
ATOM     30  C7  KDQ d   1      12.422 -11.233  21.940  0.00  0.00    -0.027 A 
ATOM     31  H3  KDQ d   1      10.924 -12.021  23.255  0.00  0.00     0.084 H 
BRANCH  30  32
ATOM     32  C8  KDQ d   1      12.439 -12.461  21.068  0.00  0.00     0.041 C 
ATOM     33  H10 KDQ d   1      12.803 -12.183  20.068  0.00  0.00     0.081 H 
ATOM     34  H11 KDQ d   1      11.415 -12.856  20.989  0.00  0.00     0.081 H 
BRANCH  32  35
ATOM     35  O1  KDQ d   1      13.273 -13.460  21.593  0.00  0.00    -0.396 OA
ATOM     36  H26 KDQ d   1      12.962 -13.710  22.455  0.00  0.00     0.209 HD
ENDBRANCH  32  35
ENDBRANCH  30  32
ENDBRANCH  19  22
ENDBRANCH  17  19
ENDBRANCH   1  15
BRANCH   4  37
ATOM     37  C14 KDQ d   1      18.128 -14.448  22.992  0.00  0.00     0.076 C 
ATOM     38  H21 KDQ d   1      19.081 -14.218  23.491  0.00  0.00     0.079 H 
ATOM     39  H22 KDQ d   1      18.307 -15.153  22.167  0.00  0.00     0.079 H 
BRANCH  37  40
ATOM     40  N2  KDQ d   1      17.202 -15.035  23.948  0.00  0.00    -0.310 N 
ATOM     41  H20 KDQ d   1      16.293 -14.643  24.089  0.00  0.00     0.172 HD
BRANCH  40  42
ATOM     42  S   KDQ d   1      17.687 -16.355  24.787  0.00  0.00     0.231 S 
ATOM     43  O4  KDQ d   1      18.597 -17.070  23.944  0.00  0.00    -0.206 OA
ATOM     44  O3  KDQ d   1      16.494 -17.006  25.235  0.00  0.00    -0.206 OA
BRANCH  42  45
ATOM     45  C15 KDQ d   1      18.591 -15.780  26.218  0.00  0.00     0.070 C 
ATOM     46  H12 KDQ d   1      17.895 -15.235  26.872  0.00  0.00     0.066 H 
ATOM     47  H13 KDQ d   1      18.988 -16.655  26.753  0.00  0.00     0.066 H 
BRANCH  45  48
ATOM     48  C16 KDQ d   1      19.740 -14.868  25.880  0.00  0.00    -0.043 A 
ATOM     49  C21 KDQ d   1      20.891 -15.368  25.286  0.00  0.00    -0.076 A 
ATOM     50  C20 KDQ d   1      21.899 -14.513  24.868  0.00  0.00    -0.082 A 
ATOM     51  H4  KDQ d   1      21.003 -16.437  25.148  0.00  0.00     0.084 H 
ATOM     52  C19 KDQ d   1      21.772 -13.151  25.045  0.00  0.00    -0.083 A 
ATOM     53  H16 KDQ d   1      22.790 -14.916  24.401  0.00  0.00     0.083 H 
ATOM     54  C18 KDQ d   1      20.645 -12.644  25.659  0.00  0.00    -0.082 A 
ATOM     55  H17 KDQ d   1      22.554 -12.482  24.703  0.00  0.00     0.083 H 
ATOM     56  C17 KDQ d   1      19.637 -13.497  26.079  0.00  0.00    -0.076 A 
ATOM     57  H18 KDQ d   1      20.548 -11.575  25.813  0.00  0.00     0.083 H 
ATOM     58  H19 KDQ d   1      18.759 -13.090  26.568  0.00  0.00     0.084 H 
ENDBRANCH  45  48
ENDBRANCH  42  45
ENDBRANCH  40  42
ENDBRANCH  37  40
ENDBRANCH   4  37
TORSDOF 10
