REMARK  9 active torsions:
REMARK  status: ('A' for Active; 'I' for Inactive)
REMARK    1  A    between atoms: C2_2  and  C1_1 
REMARK    2  A    between atoms: C2_2  and  C3_3 
REMARK    3  A    between atoms: N4_23  and  C2_2 
REMARK    4  A    between atoms: N18_13  and  C7_4 
REMARK    5  A    between atoms: C8_5  and  C9_6 
REMARK    6  A    between atoms: C19_14  and  N18_13 
REMARK    7  A    between atoms: C29_32  and  C30_20 
REMARK    8  A    between atoms: C25_30  and  N22_28 
REMARK    9  A    between atoms: C28_31  and  C29_32 
ROOT
ATOM      1  N18 KUW d   1      -0.401   7.457   4.598  0.00  0.00    -0.379 N 
ATOM      2  H13 KUW d   1      -0.086   8.428   4.462  0.00  0.00     0.160 HD
ENDROOT
BRANCH   1   3
ATOM      3  C7  KUW d   1      -1.553   7.059   3.904  0.00  0.00     0.122 A 
ATOM      4  C8  KUW d   1      -2.339   5.960   4.143  0.00  0.00     0.122 A 
ATOM      5  S15 KUW d   1      -3.622   6.108   2.927  0.00  0.00     0.271 S 
ATOM      6  O17 KUW d   1      -3.430   5.058   1.995  0.00  0.00    -0.200 OA
ATOM      7  N4  KUW d   1      -3.178   7.569   2.220  0.00  0.00    -0.232 N 
ATOM      8  O16 KUW d   1      -4.860   6.316   3.583  0.00  0.00    -0.200 OA
ATOM      9  C5  KUW d   1      -2.042   7.928   2.850  0.00  0.00     0.285 A 
ATOM     10  O6  KUW d   1      -1.447   8.965   2.585  0.00  0.00    -0.265 OA
BRANCH   4  11
ATOM     11  C9  KUW d   1      -2.245   4.833   5.083  0.00  0.00    -0.010 A 
ATOM     12  C10 KUW d   1      -2.379   5.027   6.473  0.00  0.00    -0.071 A 
ATOM     13  C11 KUW d   1      -2.299   3.926   7.318  0.00  0.00    -0.082 A 
ATOM     14  H8  KUW d   1      -2.542   6.020   6.877  0.00  0.00     0.084 H 
ATOM     15  C12 KUW d   1      -2.105   2.649   6.798  0.00  0.00    -0.083 A 
ATOM     16  H9  KUW d   1      -2.388   4.063   8.390  0.00  0.00     0.083 H 
ATOM     17  C13 KUW d   1      -1.984   2.446   5.422  0.00  0.00    -0.082 A 
ATOM     18  H10 KUW d   1      -2.047   1.801   7.471  0.00  0.00     0.083 H 
ATOM     19  C14 KUW d   1      -2.053   3.540   4.565  0.00  0.00    -0.071 A 
ATOM     20  H11 KUW d   1      -1.838   1.448   5.026  0.00  0.00     0.083 H 
ATOM     21  H12 KUW d   1      -1.958   3.395   3.495  0.00  0.00     0.084 H 
ENDBRANCH   4  11
BRANCH   7  22
ATOM     22  C2  KUW d   1      -3.891   8.315   1.173  0.00  0.00     0.024 C 
ATOM     23  H4  KUW d   1      -3.174   8.824   0.512  0.00  0.00     0.073 H 
BRANCH  22  24
ATOM     24  C1  KUW d   1      -4.765   9.329   1.934  0.00  0.00    -0.056 C 
ATOM     25  H1  KUW d   1      -5.337   9.933   1.214  0.00  0.00     0.030 H 
ATOM     26  H2  KUW d   1      -4.122   9.988   2.537  0.00  0.00     0.030 H 
ATOM     27  H3  KUW d   1      -5.460   8.791   2.595  0.00  0.00     0.030 H 
ENDBRANCH  22  24
BRANCH  22  28
ATOM     28  C3  KUW d   1      -4.815   7.423   0.341  0.00  0.00    -0.056 C 
ATOM     29  H5  KUW d   1      -4.213   6.688  -0.214  0.00  0.00     0.030 H 
ATOM     30  H6  KUW d   1      -5.382   8.043  -0.369  0.00  0.00     0.030 H 
ATOM     31  H7  KUW d   1      -5.514   6.896   1.007  0.00  0.00     0.030 H 
ENDBRANCH  22  28
ENDBRANCH   7  22
ENDBRANCH   1   3
BRANCH   1  32
ATOM     32  C19 KUW d   1       0.395   6.623   5.496  0.00  0.00     0.013 C 
ATOM     33  C20 KUW d   1       1.135   5.520   4.720  0.00  0.00    -0.031 C 
ATOM     34  C21 KUW d   1       1.893   4.653   5.725  0.00  0.00    -0.002 C 
ATOM     35  H15 KUW d   1       1.843   5.975   4.012  0.00  0.00     0.038 H 
ATOM     36  H16 KUW d   1       0.410   4.903   4.168  0.00  0.00     0.038 H 
ATOM     37  N22 KUW d   1       2.699   5.483   6.661  0.00  0.00    -0.364 N 
ATOM     38  H17 KUW d   1       2.565   3.976   5.178  0.00  0.00     0.064 H 
ATOM     39  H18 KUW d   1       1.169   4.061   6.304  0.00  0.00     0.064 H 
ATOM     40  C23 KUW d   1       2.081   6.655   7.317  0.00  0.00    -0.002 C 
ATOM     41  C24 KUW d   1       1.353   7.524   6.287  0.00  0.00    -0.031 C 
ATOM     42  H23 KUW d   1       1.361   6.309   8.073  0.00  0.00     0.064 H 
ATOM     43  H24 KUW d   1       2.865   7.252   7.805  0.00  0.00     0.064 H 
ATOM     44  H19 KUW d   1       0.784   8.313   6.800  0.00  0.00     0.038 H 
ATOM     45  H20 KUW d   1       2.083   7.983   5.604  0.00  0.00     0.038 H 
ATOM     46  H14 KUW d   1      -0.284   6.133   6.209  0.00  0.00     0.072 H 
BRANCH  37  47
ATOM     47  C25 KUW d   1       4.065   5.243   6.842  0.00  0.00     0.147 A 
ATOM     48  N26 KUW d   1       4.899   6.291   6.891  0.00  0.00    -0.241 NA
ATOM     49  C27 KUW d   1       6.209   6.161   7.063  0.00  0.00     0.011 A 
ATOM     50  C28 KUW d   1       6.767   4.902   7.215  0.00  0.00    -0.029 A 
ATOM     51  H21 KUW d   1       6.842   7.040   7.085  0.00  0.00     0.115 H 
ATOM     52  C33 KUW d   1       5.947   3.782   7.193  0.00  0.00    -0.050 A 
ATOM     53  C34 KUW d   1       4.583   3.944   7.010  0.00  0.00     0.080 A 
ATOM     54  H22 KUW d   1       6.369   2.791   7.318  0.00  0.00     0.087 H 
ATOM     55 CL1  KUW d   1       3.612   2.502   6.993  0.00  0.00    -0.080 Cl
BRANCH  50  56
ATOM     56  C29 KUW d   1       8.250   4.717   7.424  0.00  0.00     0.041 C 
ATOM     57  H25 KUW d   1       8.568   3.776   6.952  0.00  0.00     0.056 H 
ATOM     58  H26 KUW d   1       8.789   5.558   6.963  0.00  0.00     0.056 H 
BRANCH  56  59
ATOM     59  C30 KUW d   1       8.571   4.668   8.900  0.00  0.00     0.177 C 
ATOM     60  O31 KUW d   1       7.780   5.013   9.750  0.00  0.00    -0.648 OA
ATOM     61  O32 KUW d   1       9.770   4.231   9.294  0.00  0.00    -0.648 OA
ENDBRANCH  56  59
ENDBRANCH  50  56
ENDBRANCH  37  47
ENDBRANCH   1  32
TORSDOF 9
