REMARK  9 active torsions:
REMARK  status: ('A' for Active; 'I' for Inactive)
REMARK    1  A    between atoms: C11_5  and  C10_4 
REMARK    2  A    between atoms: C32_17  and  C11_5 
REMARK    3  A    between atoms: C15_7  and  C14_6 
REMARK    4  A    between atoms: C18_29  and  C15_7 
REMARK    5  A    between atoms: C22_12  and  C21_11 
REMARK    6  A    between atoms: O23_30  and  C22_12 
REMARK    7  A    between atoms: C29_34  and  C31_16 
REMARK    8  A    between atoms: C36_36  and  C4_23 
REMARK    9  A    between atoms: C25_31  and  O23_30 
ROOT
ATOM      1  C30 KVB d   1      18.838  13.846  17.422  0.00  0.00     0.005 A 
ATOM      2  C31 KVB d   1      18.852  12.428  17.198  0.00  0.00    -0.005 A 
ATOM      3  C32 KVB d   1      19.935  11.708  17.750  0.00  0.00    -0.024 A 
ATOM      4  C33 KVB d   1      20.911  12.364  18.508  0.00  0.00     0.010 A 
ATOM      5  C35 KVB d   1      19.887  14.432  18.201  0.00  0.00     0.082 A 
ATOM      6  N34 KVB d   1      20.874  13.664  18.713  0.00  0.00    -0.259 NA
ATOM      7  C36 KVB d   1      19.878  15.828  18.428  0.00  0.00     0.077 A 
ATOM      8  C37 KVB d   1      18.891  16.600  17.866  0.00  0.00    -0.066 A 
ATOM      9  C38 KVB d   1      17.848  16.041  17.121  0.00  0.00    -0.081 A 
ATOM     10  C39 KVB d   1      17.819  14.691  16.908  0.00  0.00    -0.070 A 
ATOM     11  H15 KVB d   1      21.720  11.786  18.939  0.00  0.00     0.115 H 
ATOM     12  H21 KVB d   1      18.921  17.675  18.004  0.00  0.00     0.084 H 
ATOM     13  H22 KVB d   1      17.067  16.674  16.715  0.00  0.00     0.083 H 
ATOM     14  H23 KVB d   1      17.005  14.258  16.337  0.00  0.00     0.084 H 
ENDROOT
BRANCH   2  15
ATOM     15  C29 KVB d   1      17.833  11.762  16.326  0.00  0.00    -0.022 A 
ATOM     16  C24 KVB d   1      16.954  10.744  16.739  0.00  0.00    -0.040 A 
ATOM     17  C25 KVB d   1      16.066  10.172  15.809  0.00  0.00     0.070 A 
ATOM     18  H13 KVB d   1      16.961  10.402  17.768  0.00  0.00     0.089 H 
ATOM     19  C26 KVB d   1      16.041  10.611  14.486  0.00  0.00    -0.051 A 
ATOM     20  C27 KVB d   1      16.914  11.604  14.069  0.00  0.00    -0.080 A 
ATOM     21  H19 KVB d   1      15.339  10.176  13.784  0.00  0.00     0.087 H 
ATOM     22  C28 KVB d   1      17.805  12.161  14.967  0.00  0.00    -0.072 A 
ATOM     23  H14 KVB d   1      16.898  11.943  13.040  0.00  0.00     0.083 H 
ATOM     24  H20 KVB d   1      18.498  12.920  14.623  0.00  0.00     0.084 H 
BRANCH  17  25
ATOM     25  O23 KVB d   1      15.186   9.185  16.145  0.00  0.00    -0.347 OA
BRANCH  25  26
ATOM     26  C22 KVB d   1      15.614   8.202  17.090  0.00  0.00     0.050 C 
ATOM     27  H11 KVB d   1      16.616   7.847  16.808  0.00  0.00     0.082 H 
ATOM     28  H12 KVB d   1      15.655   8.660  18.089  0.00  0.00     0.082 H 
BRANCH  26  29
ATOM     29  C21 KVB d   1      14.676   7.036  17.126  0.00  0.00    -0.034 A 
ATOM     30  C16 KVB d   1      13.303   7.211  16.971  0.00  0.00    -0.074 A 
ATOM     31  C17 KVB d   1      12.466   6.112  17.031  0.00  0.00    -0.076 A 
ATOM     32  H8  KVB d   1      12.894   8.201  16.805  0.00  0.00     0.084 H 
ATOM     33  C18 KVB d   1      13.016   4.846  17.236  0.00  0.00    -0.048 A 
ATOM     34  H18 KVB d   1      11.395   6.232  16.920  0.00  0.00     0.084 H 
ATOM     35  C19 KVB d   1      14.388   4.671  17.386  0.00  0.00    -0.076 A 
ATOM     36  C20 KVB d   1      15.222   5.776  17.336  0.00  0.00    -0.074 A 
ATOM     37  H9  KVB d   1      14.800   3.680  17.540  0.00  0.00     0.084 H 
ATOM     38  H10 KVB d   1      16.293   5.658  17.460  0.00  0.00     0.084 H 
BRANCH  33  39
ATOM     39  C15 KVB d   1      12.123   3.633  17.298  0.00  0.00     0.039 C 
ATOM     40  H6  KVB d   1      12.708   2.781  17.676  0.00  0.00     0.056 H 
ATOM     41  H7  KVB d   1      11.290   3.840  17.986  0.00  0.00     0.056 H 
BRANCH  39  42
ATOM     42  C14 KVB d   1      11.555   3.272  15.938  0.00  0.00     0.176 C 
ATOM     43  O12 KVB d   1      11.938   3.796  14.909  0.00  0.00    -0.648 OA
ATOM     44  O13 KVB d   1      10.609   2.327  15.871  0.00  0.00    -0.648 OA
ENDBRANCH  39  42
ENDBRANCH  33  39
ENDBRANCH  26  29
ENDBRANCH  25  26
ENDBRANCH  17  25
ENDBRANCH   2  15
BRANCH   3  45
ATOM     45  C11 KVB d   1      20.122  10.221  17.514  0.00  0.00    -0.015 C 
ATOM     46  H4  KVB d   1      20.895   9.815  18.183  0.00  0.00     0.047 H 
ATOM     47  H5  KVB d   1      19.178   9.680  17.674  0.00  0.00     0.047 H 
BRANCH  45  48
ATOM     48  C10 KVB d   1      20.566  10.117  16.045  0.00  0.00    -0.054 A 
ATOM     49  C9  KVB d   1      20.076   9.113  15.222  0.00  0.00    -0.077 A 
ATOM     50  C8  KVB d   1      20.476   9.046  13.877  0.00  0.00    -0.082 A 
ATOM     51  H3  KVB d   1      19.383   8.379  15.618  0.00  0.00     0.084 H 
ATOM     52  C7  KVB d   1      21.362   9.975  13.334  0.00  0.00    -0.083 A 
ATOM     53  H2  KVB d   1      20.087   8.254  13.247  0.00  0.00     0.083 H 
ATOM     54  C6  KVB d   1      21.848  10.993  14.140  0.00  0.00    -0.082 A 
ATOM     55  H1  KVB d   1      21.667   9.903  12.296  0.00  0.00     0.083 H 
ATOM     56  C5  KVB d   1      21.448  11.049  15.477  0.00  0.00    -0.077 A 
ATOM     57  H17 KVB d   1      22.529  11.735  13.738  0.00  0.00     0.083 H 
ATOM     58  H16 KVB d   1      21.835  11.846  16.102  0.00  0.00     0.084 H 
ENDBRANCH  45  48
ENDBRANCH   3  45
BRANCH   7  59
ATOM     59  C4  KVB d   1      21.019  16.480  19.177  0.00  0.00     0.419 C 
ATOM     60  F1  KVB d   1      21.062  17.837  18.875  0.00  0.00    -0.166 F 
ATOM     61  F2  KVB d   1      22.216  15.961  18.692  0.00  0.00    -0.166 F 
ATOM     62  F3  KVB d   1      20.982  16.304  20.552  0.00  0.00    -0.166 F 
ENDBRANCH   7  59
TORSDOF 9
