REMARK  7 active torsions:
REMARK  status: ('A' for Active; 'I' for Inactive)
REMARK    1  A    between atoms: C13_1  and  S10_6 
REMARK    2  A    between atoms: C19_12  and  C21_2 
REMARK    3  A    between atoms: C21_2  and  N24_14 
REMARK    4  A    between atoms: N05_4  and  C01_3 
REMARK    5  A    between atoms: N05_4  and  C06_5 
REMARK    6  A    between atoms: S10_6  and  N05_4 
REMARK    7  A    between atoms: N17_11  and  C16_10 
REMARK       I    between atoms: N17_11  and  C19_12 
ROOT
ATOM      1  C21 KVZ d   1     -25.153  49.817   7.198  0.00  0.00     0.081 C 
ATOM      2  H1  KVZ d   1     -25.245  49.469   6.159  0.00  0.00     0.079 H 
ATOM      3  H2  KVZ d   1     -24.202  50.356   7.321  0.00  0.00     0.079 H 
ENDROOT
BRANCH   1   4
ATOM      4  C19 KVZ d   1     -25.006  48.545   8.037  0.00  0.00     0.240 C 
ATOM      5  N17 KVZ d   1     -23.763  47.995   7.982  0.00  0.00    -0.326 N 
ATOM      6  H10 KVZ d   1     -23.099  48.516   7.446  0.00  0.00     0.169 HD
ATOM      7  O20 KVZ d   1     -25.941  48.069   8.672  0.00  0.00    -0.271 OA
BRANCH   5   8
ATOM      8  C16 KVZ d   1     -23.252  46.802   8.561  0.00  0.00     0.036 A 
ATOM      9  C14 KVZ d   1     -23.984  45.880   9.309  0.00  0.00    -0.033 A 
ATOM     10  C13 KVZ d   1     -23.381  44.719   9.796  0.00  0.00     0.103 A 
ATOM     11  H9  KVZ d   1     -25.032  46.067   9.514  0.00  0.00     0.089 H 
ATOM     12  C55 KVZ d   1     -22.021  44.488   9.496  0.00  0.00     0.057 A 
ATOM     13  C53 KVZ d   1     -21.308  45.399   8.736  0.00  0.00    -0.058 A 
ATOM     14 CL1  KVZ d   1     -21.187  43.058  10.032  0.00  0.00    -0.083 Cl
ATOM     15  C51 KVZ d   1     -21.920  46.542   8.263  0.00  0.00    -0.056 A 
ATOM     16  H23 KVZ d   1     -20.264  45.214   8.511  0.00  0.00     0.086 H 
ATOM     17  H22 KVZ d   1     -21.358  47.242   7.655  0.00  0.00     0.087 H 
BRANCH  10  18
ATOM     18  S10 KVZ d   1     -24.393  43.600  10.755  0.00  0.00     0.261 S 
ATOM     19  O11 KVZ d   1     -24.455  42.370  10.030  0.00  0.00    -0.200 OA
ATOM     20  O12 KVZ d   1     -23.925  43.597  12.110  0.00  0.00    -0.200 OA
BRANCH  18  21
ATOM     21  N05 KVZ d   1     -25.898  44.213  10.781  0.00  0.00    -0.315 N 
BRANCH  21  22
ATOM     22  C01 KVZ d   1     -26.728  44.155   9.569  0.00  0.00    -0.009 C 
ATOM     23  H3  KVZ d   1     -27.707  44.614   9.773  0.00  0.00     0.057 H 
ATOM     24  H4  KVZ d   1     -26.870  43.105   9.272  0.00  0.00     0.057 H 
ATOM     25  H5  KVZ d   1     -26.229  44.702   8.756  0.00  0.00     0.057 H 
ENDBRANCH  21  22
BRANCH  21  26
ATOM     26  C06 KVZ d   1     -26.264  45.228  11.780  0.00  0.00    -0.009 C 
ATOM     27  H6  KVZ d   1     -27.316  45.518  11.640  0.00  0.00     0.057 H 
ATOM     28  H7  KVZ d   1     -25.620  46.112  11.658  0.00  0.00     0.057 H 
ATOM     29  H8  KVZ d   1     -26.130  44.814  12.790  0.00  0.00     0.057 H 
ENDBRANCH  21  26
ENDBRANCH  18  21
ENDBRANCH  10  18
ENDBRANCH   5   8
ENDBRANCH   1   4
BRANCH   1  30
ATOM     30  N24 KVZ d   1     -26.195  50.834   7.357  0.00  0.00    -0.259 N 
ATOM     31  C25 KVZ d   1     -26.409  51.582   8.506  0.00  0.00     0.326 A 
ATOM     32  O26 KVZ d   1     -25.830  51.445   9.569  0.00  0.00    -0.247 OA
ATOM     33  N27 KVZ d   1     -27.406  52.462   8.234  0.00  0.00    -0.320 N 
ATOM     34  C29 KVZ d   1     -27.886  52.418   6.851  0.00  0.00     0.144 A 
ATOM     35  H11 KVZ d   1     -27.781  53.087   8.919  0.00  0.00     0.165 HD
ATOM     36  C30 KVZ d   1     -27.518  53.710   6.088  0.00  0.00    -0.028 C 
ATOM     37  C48 KVZ d   1     -29.381  52.102   6.751  0.00  0.00    -0.014 A 
ATOM     38  C49 KVZ d   1     -27.018  51.245   6.330  0.00  0.00     0.261 A 
ATOM     39  C33 KVZ d   1     -28.603  54.773   6.102  0.00  0.00    -0.058 C 
ATOM     40  H12 KVZ d   1     -27.309  53.445   5.041  0.00  0.00     0.037 H 
ATOM     41  H13 KVZ d   1     -26.613  54.135   6.546  0.00  0.00     0.037 H 
ATOM     42  C36 KVZ d   1     -29.830  54.221   5.419  0.00  0.00    -0.040 C 
ATOM     43  H14 KVZ d   1     -28.252  55.667   5.566  0.00  0.00     0.033 H 
ATOM     44  H15 KVZ d   1     -28.846  55.040   7.141  0.00  0.00     0.033 H 
ATOM     45  C39 KVZ d   1     -30.283  52.955   6.089  0.00  0.00    -0.049 A 
ATOM     46  H16 KVZ d   1     -29.593  54.008   4.366  0.00  0.00     0.040 H 
ATOM     47  H17 KVZ d   1     -30.638  54.966   5.470  0.00  0.00     0.040 H 
ATOM     48  C40 KVZ d   1     -31.634  52.616   6.052  0.00  0.00    -0.076 A 
ATOM     49  C42 KVZ d   1     -32.096  51.464   6.659  0.00  0.00    -0.082 A 
ATOM     50  H18 KVZ d   1     -32.333  53.266   5.539  0.00  0.00     0.084 H 
ATOM     51  C44 KVZ d   1     -31.219  50.635   7.315  0.00  0.00    -0.082 A 
ATOM     52  H19 KVZ d   1     -33.150  51.215   6.617  0.00  0.00     0.083 H 
ATOM     53  C46 KVZ d   1     -29.870  50.951   7.368  0.00  0.00    -0.073 A 
ATOM     54  H20 KVZ d   1     -31.582  49.732   7.792  0.00  0.00     0.083 H 
ATOM     55  H21 KVZ d   1     -29.187  50.295   7.896  0.00  0.00     0.084 H 
ATOM     56  O50 KVZ d   1     -27.010  50.803   5.195  0.00  0.00    -0.270 OA
ENDBRANCH   1  30
TORSDOF 7
