REMARK  8 active torsions:
REMARK  status: ('A' for Active; 'I' for Inactive)
REMARK    1  A    between atoms: N11_10  and  C10_1 
REMARK    2  A    between atoms: C15_3  and  C13_2 
REMARK       I    between atoms: C13_2  and  N11_10 
REMARK    3  A    between atoms: N18_12  and  C15_3 
REMARK    4  A    between atoms: C23_16  and  C24_4 
REMARK    5  A    between atoms: C23_16  and  C28_5 
REMARK    6  A    between atoms: C05_7  and  C01_6 
REMARK    7  A    between atoms: C36_20  and  S37_21 
REMARK    8  A    between atoms: S37_21  and  N40_24 
ROOT
ATOM      1  C10 KVT d   1     -22.714  46.885   8.441  0.00  0.00     0.036 A 
ATOM      2  C05 KVT d   1     -21.511  44.496   9.366  0.00  0.00    -0.039 A 
ATOM      3  C06 KVT d   1     -20.823  45.409   8.568  0.00  0.00    -0.074 A 
ATOM      4  C08 KVT d   1     -21.402  46.578   8.108  0.00  0.00    -0.057 A 
ATOM      5  C34 KVT d   1     -23.432  45.991   9.228  0.00  0.00    -0.034 A 
ATOM      6  C36 KVT d   1     -22.842  44.820   9.687  0.00  0.00     0.087 A 
ATOM      7  H12 KVT d   1     -19.795  45.195   8.298  0.00  0.00     0.084 H 
ATOM      8  H13 KVT d   1     -20.829  47.256   7.486  0.00  0.00     0.086 H 
ATOM      9  H16 KVT d   1     -24.462  46.210   9.486  0.00  0.00     0.089 H 
ENDROOT
BRANCH   1  10
ATOM     10  N11 KVT d   1     -23.264  48.094   7.942  0.00  0.00    -0.326 N 
ATOM     11  C13 KVT d   1     -24.545  48.530   8.004  0.00  0.00     0.240 C 
ATOM     12  O14 KVT d   1     -25.463  47.917   8.541  0.00  0.00    -0.271 OA
ATOM     13  H14 KVT d   1     -22.620  48.706   7.483  0.00  0.00     0.169 HD
BRANCH  11  14
ATOM     14  C15 KVT d   1     -24.781  49.881   7.352  0.00  0.00     0.081 C 
ATOM     15  H1  KVT d   1     -24.566  49.792   6.277  0.00  0.00     0.079 H 
ATOM     16  H2  KVT d   1     -24.094  50.611   7.804  0.00  0.00     0.079 H 
BRANCH  14  17
ATOM     17  N18 KVT d   1     -26.142  50.368   7.512  0.00  0.00    -0.259 N 
ATOM     18  C19 KVT d   1     -26.578  51.153   8.574  0.00  0.00     0.326 A 
ATOM     19  O20 KVT d   1     -25.888  51.536   9.510  0.00  0.00    -0.247 OA
ATOM     20  N21 KVT d   1     -27.895  51.406   8.378  0.00  0.00    -0.325 N 
ATOM     21  C23 KVT d   1     -28.415  50.789   7.155  0.00  0.00     0.108 A 
ATOM     22  H15 KVT d   1     -28.452  51.955   9.001  0.00  0.00     0.165 HD
ATOM     23  C32 KVT d   1     -27.162  50.106   6.625  0.00  0.00     0.256 A 
ATOM     24  O33 KVT d   1     -27.063  49.444   5.608  0.00  0.00    -0.270 OA
BRANCH  21  25
ATOM     25  C24 KVT d   1     -29.498  49.757   7.479  0.00  0.00    -0.045 C 
ATOM     26  H3  KVT d   1     -29.870  49.310   6.545  0.00  0.00     0.031 H 
ATOM     27  H4  KVT d   1     -30.328  50.250   8.006  0.00  0.00     0.031 H 
ATOM     28  H5  KVT d   1     -29.074  48.969   8.119  0.00  0.00     0.031 H 
ENDBRANCH  21  25
BRANCH  21  29
ATOM     29  C28 KVT d   1     -28.916  51.850   6.172  0.00  0.00    -0.045 C 
ATOM     30  H6  KVT d   1     -28.110  52.569   5.967  0.00  0.00     0.031 H 
ATOM     31  H7  KVT d   1     -29.776  52.378   6.609  0.00  0.00     0.031 H 
ATOM     32  H8  KVT d   1     -29.222  51.365   5.233  0.00  0.00     0.031 H 
ENDBRANCH  21  29
ENDBRANCH  14  17
ENDBRANCH  11  14
ENDBRANCH   1  10
BRANCH   6  33
ATOM     33  S37 KVT d   1     -23.837  43.745  10.692  0.00  0.00     0.261 S 
ATOM     34  O38 KVT d   1     -23.134  43.522  11.916  0.00  0.00    -0.200 OA
ATOM     35  O39 KVT d   1     -24.214  42.632   9.881  0.00  0.00    -0.200 OA
BRANCH  33  36
ATOM     36  N40 KVT d   1     -25.214  44.532  11.081  0.00  0.00    -0.307 N 
ATOM     37  C41 KVT d   1     -25.164  45.518  12.180  0.00  0.00     0.005 C 
ATOM     38  C44 KVT d   1     -26.442  46.303  12.407  0.00  0.00    -0.049 C 
ATOM     39  H17 KVT d   1     -24.360  46.235  11.957  0.00  0.00     0.065 H 
ATOM     40  H18 KVT d   1     -24.927  44.979  13.109  0.00  0.00     0.065 H 
ATOM     41  C47 KVT d   1     -27.668  45.461  12.690  0.00  0.00    -0.064 C 
ATOM     42  H19 KVT d   1     -26.640  46.901  11.505  0.00  0.00     0.035 H 
ATOM     43  H20 KVT d   1     -26.283  46.973  13.264  0.00  0.00     0.035 H 
ATOM     44  C50 KVT d   1     -28.403  44.976  11.469  0.00  0.00    -0.064 C 
ATOM     45  H21 KVT d   1     -28.365  46.064  13.290  0.00  0.00     0.033 H 
ATOM     46  H22 KVT d   1     -27.351  44.581  13.269  0.00  0.00     0.033 H 
ATOM     47  C53 KVT d   1     -27.599  44.099  10.534  0.00  0.00    -0.049 C 
ATOM     48  H23 KVT d   1     -28.739  45.857  10.903  0.00  0.00     0.033 H 
ATOM     49  H24 KVT d   1     -29.278  44.401  11.806  0.00  0.00     0.033 H 
ATOM     50  C56 KVT d   1     -26.280  44.658  10.067  0.00  0.00     0.005 C 
ATOM     51  H25 KVT d   1     -28.215  43.904   9.644  0.00  0.00     0.035 H 
ATOM     52  H26 KVT d   1     -27.396  43.151  11.054  0.00  0.00     0.035 H 
ATOM     53  H27 KVT d   1     -25.970  44.116   9.161  0.00  0.00     0.065 H 
ATOM     54  H28 KVT d   1     -26.414  45.724   9.829  0.00  0.00     0.065 H 
ENDBRANCH  33  36
ENDBRANCH   6  33
BRANCH   2  55
ATOM     55  C01 KVT d   1     -20.816  43.240   9.822  0.00  0.00    -0.050 C 
ATOM     56  H9  KVT d   1     -19.786  43.230   9.436  0.00  0.00     0.033 H 
ATOM     57  H10 KVT d   1     -21.359  42.362   9.442  0.00  0.00     0.033 H 
ATOM     58  H11 KVT d   1     -20.795  43.211  10.921  0.00  0.00     0.033 H 
ENDBRANCH   2  55
TORSDOF 8
