REMARK  10 active torsions:
REMARK  status: ('A' for Active; 'I' for Inactive)
REMARK    1  A    between atoms: C10_7  and  C7_4 
REMARK    2  A    between atoms: C14_11  and  C10_7 
REMARK    3  A    between atoms: C18_27  and  C14_11 
REMARK    4  A    between atoms: N26_19  and  C21_16 
REMARK    5  A    between atoms: C21_16  and  C17_26 
REMARK    6  A    between atoms: C22_17  and  C18_27 
REMARK    7  A    between atoms: N27_30  and  C22_17 
REMARK    8  A    between atoms: C29_32  and  C24_18 
REMARK    9  A    between atoms: C31_21  and  N27_30 
REMARK   10  A    between atoms: C32_22  and  C29_32 
ROOT
ATOM      1  N26 KWE d   1      -7.143 -15.784 -17.081  0.00  0.00    -0.275 N 
ATOM      2  C30 KWE d   1      -7.079 -14.461 -17.269  0.00  0.00     0.259 A 
ATOM      3  C31 KWE d   1      -8.835 -14.741 -15.969  0.00  0.00     0.109 A 
ATOM      4  C32 KWE d   1      -8.146 -13.791 -16.617  0.00  0.00     0.046 A 
ATOM      5  O23 KWE d   1      -8.587 -17.177 -15.988  0.00  0.00    -0.265 OA
ATOM      6  O25 KWE d   1      -6.168 -13.944 -17.922  0.00  0.00    -0.267 OA
ATOM      7  C28 KWE d   1      -8.229 -16.036 -16.309  0.00  0.00     0.278 A 
ENDROOT
BRANCH   3   8
ATOM      8  N27 KWE d   1      -9.896 -14.726 -15.164  0.00  0.00    -0.385 N 
ATOM      9  H26 KWE d   1     -10.269 -15.655 -14.919  0.00  0.00     0.159 HD
BRANCH   8  10
ATOM     10  C22 KWE d   1     -10.617 -13.594 -14.571  0.00  0.00    -0.007 C 
ATOM     11  H19 KWE d   1     -11.032 -13.914 -13.604  0.00  0.00     0.064 H 
ATOM     12  H20 KWE d   1      -9.904 -12.772 -14.410  0.00  0.00     0.064 H 
BRANCH  10  13
ATOM     13  C18 KWE d   1     -11.727 -13.094 -15.417  0.00  0.00    -0.050 C 
ATOM     14  H24 KWE d   1     -11.320 -12.649 -16.337  0.00  0.00     0.035 H 
ATOM     15  H25 KWE d   1     -12.398 -13.926 -15.678  0.00  0.00     0.035 H 
BRANCH  13  16
ATOM     16  C14 KWE d   1     -12.498 -12.038 -14.632  0.00  0.00    -0.060 C 
ATOM     17  H11 KWE d   1     -12.955 -12.487 -13.738  0.00  0.00     0.033 H 
ATOM     18  H12 KWE d   1     -11.825 -11.223 -14.329  0.00  0.00     0.033 H 
BRANCH  16  19
ATOM     19  C10 KWE d   1     -13.603 -11.497 -15.588  0.00  0.00    -0.041 C 
ATOM     20  H6  KWE d   1     -13.130 -10.893 -16.376  0.00  0.00     0.040 H 
ATOM     21  H7  KWE d   1     -14.130 -12.348 -16.044  0.00  0.00     0.040 H 
BRANCH  19  22
ATOM     22  C7  KWE d   1     -14.595 -10.647 -14.848  0.00  0.00    -0.058 A 
ATOM     23  C4  KWE d   1     -14.342  -9.299 -14.752  0.00  0.00    -0.077 A 
ATOM     24  C2  KWE d   1     -15.251  -8.497 -14.051  0.00  0.00    -0.082 A 
ATOM     25  H21 KWE d   1     -13.459  -8.867 -15.209  0.00  0.00     0.084 H 
ATOM     26  C1  KWE d   1     -16.380  -9.063 -13.481  0.00  0.00    -0.083 A 
ATOM     27  H2  KWE d   1     -15.071  -7.432 -13.954  0.00  0.00     0.083 H 
ATOM     28  C3  KWE d   1     -16.622 -10.442 -13.581  0.00  0.00    -0.082 A 
ATOM     29  H1  KWE d   1     -17.085  -8.433 -12.951  0.00  0.00     0.083 H 
ATOM     30  C5  KWE d   1     -15.721 -11.196 -14.293  0.00  0.00    -0.077 A 
ATOM     31  H3  KWE d   1     -17.488 -10.896 -13.113  0.00  0.00     0.083 H 
ATOM     32  H22 KWE d   1     -15.906 -12.257 -14.419  0.00  0.00     0.084 H 
ENDBRANCH  19  22
ENDBRANCH  16  19
ENDBRANCH  13  16
ENDBRANCH  10  13
ENDBRANCH   8  10
ENDBRANCH   3   8
BRANCH   4  33
ATOM     33  C29 KWE d   1      -8.442 -12.322 -16.708  0.00  0.00    -0.009 C 
ATOM     34  H27 KWE d   1      -7.987 -11.959 -17.642  0.00  0.00     0.047 H 
ATOM     35  H28 KWE d   1      -9.535 -12.217 -16.768  0.00  0.00     0.047 H 
BRANCH  33  36
ATOM     36  C24 KWE d   1      -7.971 -11.408 -15.603  0.00  0.00    -0.054 A 
ATOM     37  C19 KWE d   1      -6.718 -11.530 -15.085  0.00  0.00    -0.077 A 
ATOM     38  C15 KWE d   1      -6.339 -10.690 -13.989  0.00  0.00    -0.082 A 
ATOM     39  H15 KWE d   1      -6.019 -12.250 -15.495  0.00  0.00     0.084 H 
ATOM     40  C11 KWE d   1      -7.215  -9.765 -13.493  0.00  0.00    -0.083 A 
ATOM     41  H13 KWE d   1      -5.353 -10.788 -13.550  0.00  0.00     0.083 H 
ATOM     42  C16 KWE d   1      -8.473  -9.696 -14.026  0.00  0.00    -0.082 A 
ATOM     43  H8  KWE d   1      -6.918  -9.098 -12.692  0.00  0.00     0.083 H 
ATOM     44  C20 KWE d   1      -8.816 -10.475 -15.100  0.00  0.00    -0.077 A 
ATOM     45  H14 KWE d   1      -9.204  -9.021 -13.596  0.00  0.00     0.083 H 
ATOM     46  H16 KWE d   1      -9.789 -10.342 -15.559  0.00  0.00     0.084 H 
ENDBRANCH  33  36
ENDBRANCH   4  33
BRANCH   1  47
ATOM     47  C21 KWE d   1      -6.199 -16.776 -17.671  0.00  0.00     0.030 C 
ATOM     48  H17 KWE d   1      -5.957 -16.444 -18.691  0.00  0.00     0.072 H 
ATOM     49  H18 KWE d   1      -6.715 -17.746 -17.714  0.00  0.00     0.072 H 
BRANCH  47  50
ATOM     50  C17 KWE d   1      -4.917 -16.975 -16.941  0.00  0.00    -0.040 A 
ATOM     51  C12 KWE d   1      -4.885 -17.549 -15.696  0.00  0.00    -0.075 A 
ATOM     52  C8  KWE d   1      -3.635 -17.712 -15.060  0.00  0.00    -0.082 A 
ATOM     53  H9  KWE d   1      -5.799 -17.871 -15.211  0.00  0.00     0.084 H 
ATOM     54  C6  KWE d   1      -2.497 -17.318 -15.782  0.00  0.00    -0.083 A 
ATOM     55  H4  KWE d   1      -3.557 -18.123 -14.060  0.00  0.00     0.083 H 
ATOM     56  C9  KWE d   1      -2.564 -16.705 -17.018  0.00  0.00    -0.082 A 
ATOM     57  H23 KWE d   1      -1.521 -17.503 -15.349  0.00  0.00     0.083 H 
ATOM     58  C13 KWE d   1      -3.797 -16.537 -17.634  0.00  0.00    -0.075 A 
ATOM     59  H5  KWE d   1      -1.660 -16.357 -17.504  0.00  0.00     0.083 H 
ATOM     60  H10 KWE d   1      -3.881 -16.083 -18.615  0.00  0.00     0.084 H 
ENDBRANCH  47  50
ENDBRANCH   1  47
TORSDOF 10
