REMARK  4 active torsions:
REMARK  status: ('A' for Active; 'I' for Inactive)
REMARK       I    between atoms: N3_2  and  C9_21 
REMARK    1  A    between atoms: N2_25  and  N3_2 
REMARK    2  A    between atoms: N4_26  and  C5_4 
REMARK    3  A    between atoms: C6_5  and  C16_16 
REMARK    4  A    between atoms: C9_21  and  C10_8 
ROOT
ATOM      1  N1  L5H d   1       4.785  28.027  37.922  0.00  0.00    -0.317 N 
ATOM      2  C4  L5H d   1       7.917  29.215  36.398  0.00  0.00    -0.026 A 
ATOM      3  C5  L5H d   1       8.692  28.046  36.429  0.00  0.00     0.057 A 
ATOM      4  C6  L5H d   1       8.161  26.849  36.947  0.00  0.00     0.077 A 
ATOM      5  C7  L5H d   1       3.938  29.075  37.961  0.00  0.00     0.316 A 
ATOM      6  C8  L5H d   1       4.458  30.395  37.402  0.00  0.00     0.335 A 
ATOM      7  C1  L5H d   1       6.851  26.860  37.448  0.00  0.00    -0.038 A 
ATOM      8  C2  L5H d   1       6.089  28.028  37.422  0.00  0.00     0.065 A 
ATOM      9  C3  L5H d   1       6.604  29.223  36.899  0.00  0.00     0.089 A 
ATOM     10  N2  L5H d   1       5.738  30.362  36.901  0.00  0.00    -0.211 N 
ATOM     11  O2  L5H d   1       2.796  28.998  38.420  0.00  0.00    -0.262 OA
ATOM     12  O3  L5H d   1       3.705  31.380  37.422  0.00  0.00    -0.260 OA
ATOM     13  H1  L5H d   1       4.445  27.161  38.288  0.00  0.00     0.169 HD
ATOM     14  H3  L5H d   1       8.336  30.124  35.982  0.00  0.00     0.090 H 
ATOM     15  H7  L5H d   1       6.426  25.951  37.860  0.00  0.00     0.088 H 
ENDROOT
BRANCH  10  16
ATOM     16  N3  L5H d   1       6.226  31.596  36.427  0.00  0.00    -0.256 N 
ATOM     17  C9  L5H d   1       6.116  32.115  35.185  0.00  0.00     0.270 C 
ATOM     18  O1  L5H d   1       5.565  31.590  34.207  0.00  0.00    -0.266 OA
ATOM     19  H2  L5H d   1       6.715  32.158  37.094  0.00  0.00     0.191 HD
BRANCH  17  20
ATOM     20  C10 L5H d   1       6.777  33.475  35.121  0.00  0.00     0.033 A 
ATOM     21  C15 L5H d   1       6.669  34.346  36.220  0.00  0.00    -0.068 A 
ATOM     22  C14 L5H d   1       7.273  35.599  36.199  0.00  0.00    -0.082 A 
ATOM     23  H5  L5H d   1       6.108  34.037  37.094  0.00  0.00     0.085 H 
ATOM     24  C13 L5H d   1       7.995  35.991  35.076  0.00  0.00    -0.083 A 
ATOM     25  H10 L5H d   1       7.182  36.264  37.050  0.00  0.00     0.083 H 
ATOM     26  C12 L5H d   1       8.116  35.141  33.979  0.00  0.00    -0.082 A 
ATOM     27  H4  L5H d   1       8.467  36.966  35.055  0.00  0.00     0.083 H 
ATOM     28  C11 L5H d   1       7.513  33.884  33.998  0.00  0.00    -0.068 A 
ATOM     29  H9  L5H d   1       8.680  35.457  33.109  0.00  0.00     0.083 H 
ATOM     30  H8  L5H d   1       7.613  33.222  33.145  0.00  0.00     0.085 H 
ENDBRANCH  17  20
ENDBRANCH  10  16
BRANCH   3  31
ATOM     31  N4  L5H d   1       9.995  28.103  35.894  0.00  0.00    -0.314 N 
ATOM     32  C17 L5H d   1      11.203  28.328  36.513  0.00  0.00     0.070 A 
ATOM     33  N5  L5H d   1      12.228  28.308  35.686  0.00  0.00    -0.254 NA
ATOM     34  H6  L5H d   1      11.302  28.505  37.583  0.00  0.00     0.144 H 
ATOM     35  C18 L5H d   1      11.706  28.060  34.498  0.00  0.00     0.019 A 
ATOM     36  C19 L5H d   1      10.331  27.925  34.572  0.00  0.00     0.003 A 
ATOM     37  H11 L5H d   1      12.284  27.973  33.579  0.00  0.00     0.117 H 
ATOM     38  H12 L5H d   1       9.650  27.719  33.748  0.00  0.00     0.114 H 
ENDBRANCH   3  31
BRANCH   4  39
ATOM     39  C16 L5H d   1       8.985  25.552  36.995  0.00  0.00     0.419 C 
ATOM     40  F1  L5H d   1       9.370  25.154  35.787  0.00  0.00    -0.166 F 
ATOM     41  F2  L5H d   1      10.075  25.770  37.729  0.00  0.00    -0.166 F 
ATOM     42  F3  L5H d   1       8.320  24.545  37.561  0.00  0.00    -0.166 F 
ENDBRANCH   4  39
TORSDOF 4
