REMARK  10 active torsions:
REMARK  status: ('A' for Active; 'I' for Inactive)
REMARK    1  A    between atoms: PG_1  and  O3B_5 
REMARK    2  A    between atoms: O3B_5  and  PB_6 
REMARK    3  A    between atoms: PB_6  and  O3A_9 
REMARK    4  A    between atoms: O3A_9  and  PA_10 
REMARK    5  A    between atoms: PA_10  and  O5'_13 
REMARK    6  A    between atoms: O5'_13  and  C5'_14 
REMARK    7  A    between atoms: C5'_14  and  C4'_15 
REMARK    8  A    between atoms: C3'_17  and  O3'_18 
REMARK    9  A    between atoms: C2'_19  and  O2'_20 
REMARK   10  A    between atoms: C1'_21  and  N9_22 
ROOT
ATOM      1  C4' GTP d   1      51.641   9.316  71.797  0.00  0.00     0.089 C 
ATOM      2  O4' GTP d   1      52.998   9.178  72.283  0.00  0.00    -0.353 OA
ATOM      3  C3' GTP d   1      51.138   7.780  71.744  0.00  0.00     0.091 C 
ATOM      4  C2' GTP d   1      51.917   7.167  72.615  0.00  0.00     0.105 C 
ATOM      5  C1' GTP d   1      53.378   7.753  72.578  0.00  0.00     0.139 C 
ATOM      6  H3  GTP d   1      51.609   9.758  70.790  0.00  0.00     0.090 H 
ATOM      7  H4  GTP d   1      50.092   7.668  72.064  0.00  0.00     0.091 H 
ATOM      8  H6  GTP d   1      51.501   7.318  73.622  0.00  0.00     0.093 H 
ATOM      9  H8  GTP d   1      54.005   7.304  71.793  0.00  0.00     0.122 H 
ENDROOT
BRANCH   1  10
ATOM     10  C5' GTP d   1      50.918  10.210  72.744  0.00  0.00     0.058 C 
ATOM     11  H1  GTP d   1      51.476  11.153  72.838  0.00  0.00     0.079 H 
ATOM     12  H2  GTP d   1      49.915  10.416  72.341  0.00  0.00     0.079 H 
BRANCH  10  13
ATOM     13  O5' GTP d   1      50.785   9.635  74.017  0.00  0.00    -0.287 OA
BRANCH  13  14
ATOM     14  PA  GTP d   1      49.701  10.090  75.076  0.00  0.00     0.417 P 
ATOM     15  O1A GTP d   1      50.097   9.618  76.442  0.00  0.00    -0.624 OA
ATOM     16  O2A GTP d   1      48.306   9.688  74.573  0.00  0.00    -0.624 OA
BRANCH  14  17
ATOM     17  O3A GTP d   1      49.834  11.712  74.930  0.00  0.00    -0.180 OA
BRANCH  17  18
ATOM     18  PB  GTP d   1      49.086  12.765  75.835  0.00  0.00     0.428 P 
ATOM     19  O1B GTP d   1      50.115  13.741  76.377  0.00  0.00    -0.624 OA
ATOM     20  O2B GTP d   1      48.180  12.099  76.843  0.00  0.00    -0.624 OA
BRANCH  18  21
ATOM     21  O3B GTP d   1      48.214  13.521  74.632  0.00  0.00    -0.173 OA
BRANCH  21  22
ATOM     22  PG  GTP d   1      46.857  14.480  74.945  0.00  0.00     0.431 P 
ATOM     23  O1G GTP d   1      45.861  13.696  75.760  0.00  0.00    -0.616 OA
ATOM     24  O2G GTP d   1      47.266  15.806  75.639  0.00  0.00    -0.616 OA
ATOM     25  O3G GTP d   1      46.391  14.768  73.282  0.00  0.00    -0.616 OA
ENDBRANCH  21  22
ENDBRANCH  18  21
ENDBRANCH  17  18
ENDBRANCH  14  17
ENDBRANCH  13  14
ENDBRANCH  10  13
ENDBRANCH   1  10
BRANCH   3  26
ATOM     26  O3' GTP d   1      51.236   7.465  70.323  0.00  0.00    -0.390 OA
ATOM     27  H5  GTP d   1      50.958   6.568  70.179  0.00  0.00     0.210 HD
ENDBRANCH   3  26
BRANCH   5  28
ATOM     28  N9  GTP d   1      53.989   7.630  73.802  0.00  0.00    -0.295 N 
ATOM     29  C8  GTP d   1      53.562   7.892  75.004  0.00  0.00     0.071 A 
ATOM     30  N7  GTP d   1      54.486   7.615  75.937  0.00  0.00    -0.234 NA
ATOM     31  H9  GTP d   1      52.572   8.289  75.226  0.00  0.00     0.144 H 
ATOM     32  C5  GTP d   1      55.507   7.130  75.242  0.00  0.00     0.171 A 
ATOM     33  C6  GTP d   1      56.832   6.610  75.696  0.00  0.00     0.292 A 
ATOM     34  C4  GTP d   1      55.244   7.105  73.898  0.00  0.00     0.161 A 
ATOM     35  O6  GTP d   1      57.211   6.545  76.811  0.00  0.00    -0.265 OA
ATOM     36  N1  GTP d   1      57.635   6.211  74.674  0.00  0.00    -0.154 N 
ATOM     37  C2  GTP d   1      57.323   6.206  73.300  0.00  0.00     0.680 A 
ATOM     38  H10 GTP d   1      58.547   5.886  74.925  0.00  0.00     0.187 HD
ATOM     39  N2  GTP d   1      58.217   5.750  72.376  0.00  0.00    -0.234 N 
ATOM     40  N3  GTP d   1      56.079   6.673  72.826  0.00  0.00    -0.174 N 
ATOM     41  H11 GTP d   1      57.971   5.754  71.376  0.00  0.00     0.174 HD
ATOM     42  H12 GTP d   1      59.138   5.402  72.679  0.00  0.00     0.174 HD
ATOM     43  H13 GTP d   1      55.809   6.699  71.832  0.00  0.00     0.186 HD
ENDBRANCH   5  28
BRANCH   4  44
ATOM     44  O2' GTP d   1      51.966   5.713  72.329  0.00  0.00    -0.388 OA
ATOM     45  H7  GTP d   1      51.090   5.350  72.387  0.00  0.00     0.210 HD
ENDBRANCH   4  44
TORSDOF 10
