REMARK  3 active torsions:
REMARK  status: ('A' for Active; 'I' for Inactive)
REMARK    1  A    between atoms: CAE_5  and  NAA_1 
REMARK    2  A    between atoms: CAF_6  and  CAE_5 
REMARK    3  A    between atoms: CAF_6  and  PAG_7 
ROOT
ATOM      1  CAE P7I d   1      -1.185  94.816 186.338  0.00  0.00     0.091 C 
ATOM      2  H4  P7I d   1      -0.491  94.316 187.029  0.00  0.00     0.076 H 
ATOM      3  H5  P7I d   1      -1.376  94.163 185.474  0.00  0.00     0.076 H 
ENDROOT
BRANCH   1   4
ATOM      4  NAA P7I d   1      -0.569  96.055 185.865  0.00  0.00    -0.079 N 
ATOM      5  H1  P7I d   1       0.296  95.841 185.394  0.00  0.00     0.274 HD
ATOM      6  H2  P7I d   1      -0.384  96.659 186.650  0.00  0.00     0.274 HD
ATOM      7  H3  P7I d   1      -1.195  96.518 185.225  0.00  0.00     0.274 HD
ENDBRANCH   1   4
BRANCH   1   8
ATOM      8  CAF P7I d   1      -2.501  95.070 187.062  0.00  0.00     0.061 C 
ATOM      9  H6  P7I d   1      -2.968  94.097 187.276  0.00  0.00     0.056 H 
ATOM     10  H7  P7I d   1      -3.154  95.651 186.394  0.00  0.00     0.056 H 
BRANCH   8  11
ATOM     11  PAG P7I d   1      -2.339  95.976 188.623  0.00  0.00     0.261 P 
ATOM     12  OAB P7I d   1      -3.759  96.184 189.157  0.00  0.00    -0.640 OA
ATOM     13  OAC P7I d   1      -1.504  95.116 189.556  0.00  0.00    -0.640 OA
ATOM     14  OAD P7I d   1      -1.656  97.299 188.302  0.00  0.00    -0.640 OA
ENDBRANCH   8  11
ENDBRANCH   1   8
TORSDOF 3
