REMARK  5 active torsions:
REMARK  status: ('A' for Active; 'I' for Inactive)
REMARK    1  A    between atoms: C01_1  and  C02_2 
REMARK    2  A    between atoms: N07_5  and  C01_1 
REMARK    3  A    between atoms: C02_2  and  S03_11 
REMARK    4  A    between atoms: C08_3  and  C09_4 
REMARK    5  A    between atoms: C08_3  and  N07_5 
REMARK       I    between atoms: C09_4  and  N11_6 
ROOT
ATOM      1  N07 LUQ d   1      -0.635  95.059 185.407  0.00  0.00    -0.066 N 
ATOM      2  H7  LUQ d   1       0.344  94.869 185.258  0.00  0.00     0.277 HD
ATOM      3  H8  LUQ d   1      -0.939  95.775 184.767  0.00  0.00     0.277 HD
ENDROOT
BRANCH   1   4
ATOM      4  C01 LUQ d   1      -0.809  95.570 186.802  0.00  0.00     0.097 C 
ATOM      5  H1  LUQ d   1      -0.167  94.977 187.470  0.00  0.00     0.077 H 
ATOM      6  H2  LUQ d   1      -0.492  96.623 186.827  0.00  0.00     0.077 H 
BRANCH   4   7
ATOM      7  C02 LUQ d   1      -2.208  95.490 187.303  0.00  0.00     0.068 C 
ATOM      8  H3  LUQ d   1      -2.514  94.434 187.311  0.00  0.00     0.062 H 
ATOM      9  H4  LUQ d   1      -2.856  96.054 186.616  0.00  0.00     0.062 H 
BRANCH   7  10
ATOM     10  S03 LUQ d   1      -2.418  96.149 188.943  0.00  0.00     0.103 S 
ATOM     11  O04 LUQ d   1      -1.804  97.455 188.887  0.00  0.00    -0.595 OA
ATOM     12  O05 LUQ d   1      -1.762  95.233 189.838  0.00  0.00    -0.595 OA
ATOM     13  O06 LUQ d   1      -3.836  96.186 189.134  0.00  0.00    -0.595 OA
ENDBRANCH   7  10
ENDBRANCH   4   7
ENDBRANCH   1   4
BRANCH   1  14
ATOM     14  C08 LUQ d   1      -1.396  93.826 185.121  0.00  0.00     0.154 C 
ATOM     15  H5  LUQ d   1      -2.330  93.848 185.702  0.00  0.00     0.090 H 
ATOM     16  H6  LUQ d   1      -1.632  93.801 184.047  0.00  0.00     0.090 H 
BRANCH  14  17
ATOM     17  C09 LUQ d   1      -0.624  92.547 185.483  0.00  0.00     0.241 C 
ATOM     18  N11 LUQ d   1       0.198  92.540 186.604  0.00  0.00    -0.369 N 
ATOM     19  H9  LUQ d   1       0.704  91.713 186.848  0.00  0.00     0.159 HD
ATOM     20  H10 LUQ d   1       0.283  93.362 187.167  0.00  0.00     0.159 HD
ATOM     21  O10 LUQ d   1      -0.683  91.503 184.857  0.00  0.00    -0.272 OA
ENDBRANCH  14  17
ENDBRANCH   1  14
TORSDOF 5
