REMARK  3 active torsions:
REMARK  status: ('A' for Active; 'I' for Inactive)
REMARK    1  A    between atoms: C1_1  and  C2_2 
REMARK    2  A    between atoms: C1_1  and  N1_3 
REMARK    3  A    between atoms: C2_2  and  S_4 
ROOT
ATOM      1  C1  TAU d   1      23.928 -23.704 104.021  0.00  0.00     0.094 C 
ATOM      2  H1  TAU d   1      24.030 -22.875 103.305  0.00  0.00     0.076 H 
ATOM      3  H2  TAU d   1      23.245 -23.407 104.831  0.00  0.00     0.076 H 
ENDROOT
BRANCH   1   4
ATOM      4  C2  TAU d   1      25.294 -24.040 104.606  0.00  0.00     0.067 C 
ATOM      5  H3  TAU d   1      25.856 -23.105 104.747  0.00  0.00     0.062 H 
ATOM      6  H4  TAU d   1      25.831 -24.687 103.897  0.00  0.00     0.062 H 
BRANCH   4   7
ATOM      7  S   TAU d   1      25.190 -24.827 106.073  0.00  0.00     0.103 S 
ATOM      8  O1  TAU d   1      26.706 -25.031 106.552  0.00  0.00    -0.595 OA
ATOM      9  O2  TAU d   1      24.508 -24.029 107.042  0.00  0.00    -0.595 OA
ATOM     10  O3  TAU d   1      24.544 -26.086 105.883  0.00  0.00    -0.595 OA
ENDBRANCH   4   7
ENDBRANCH   1   4
BRANCH   1  11
ATOM     11  N1  TAU d   1      23.391 -24.870 103.338  0.00  0.00    -0.078 N 
ATOM     12  H5  TAU d   1      22.487 -24.646 102.951  0.00  0.00     0.274 HD
ATOM     13  H6  TAU d   1      23.297 -25.630 103.994  0.00  0.00     0.274 HD
ATOM     14  H7  TAU d   1      24.016 -25.142 102.596  0.00  0.00     0.274 HD
ENDBRANCH   1  11
TORSDOF 3
