REMARK  7 active torsions:
REMARK  status: ('A' for Active; 'I' for Inactive)
REMARK    1  A    between atoms: C5_3  and  C4_2 
REMARK    2  A    between atoms: N_23  and  C5_3 
REMARK       I    between atoms: N1_22  and  C6_4 
REMARK       I    between atoms: C6_4  and  N_23 
REMARK    3  A    between atoms: C1_6  and  O_26 
REMARK    4  A    between atoms: C13_9  and  C14_10 
REMARK    5  A    between atoms: C12_11  and  C13_9 
REMARK    6  A    between atoms: N2_17  and  C9_16 
REMARK    7  A    between atoms: O_26  and  C_27 
ROOT
ATOM      1  C6  M7W d   1      -1.177  14.950  14.026  0.00  0.00     0.318 C 
ATOM      2  O1  M7W d   1      -1.872  14.879  13.020  0.00  0.00    -0.247 OA
ATOM      3  N2  M7W d   1      -2.972  15.929  17.746  0.00  0.00    -0.378 N 
ATOM      4  C8  M7W d   1      -1.611  16.375  17.423  0.00  0.00     0.010 C 
ATOM      5  C7  M7W d   1      -0.929  15.405  16.467  0.00  0.00     0.014 C 
ATOM      6  C18 M7W d   1      -3.488  14.897  16.844  0.00  0.00     0.010 C 
ATOM      7  C17 M7W d   1      -3.164  15.240  15.418  0.00  0.00     0.014 C 
ATOM      8  N1  M7W d   1      -1.707  15.276  15.227  0.00  0.00    -0.331 N 
ATOM      9  N   M7W d   1       0.161  14.742  14.036  0.00  0.00    -0.339 N 
ATOM     10  H12 M7W d   1      -1.024  16.438  18.351  0.00  0.00     0.066 H 
ATOM     11  H13 M7W d   1      -1.660  17.368  16.953  0.00  0.00     0.066 H 
ATOM     12  H14 M7W d   1      -0.848  14.419  16.948  0.00  0.00     0.067 H 
ATOM     13  H15 M7W d   1       0.077  15.780  16.227  0.00  0.00     0.067 H 
ATOM     14  H16 M7W d   1      -4.579  14.826  16.961  0.00  0.00     0.066 H 
ATOM     15  H17 M7W d   1      -3.028  13.931  17.098  0.00  0.00     0.066 H 
ATOM     16  H18 M7W d   1      -3.587  16.226  15.175  0.00  0.00     0.067 H 
ATOM     17  H19 M7W d   1      -3.600  14.480  14.753  0.00  0.00     0.067 H 
ATOM     18  H20 M7W d   1       0.691  14.834  14.879  0.00  0.00     0.164 HD
ENDROOT
BRANCH   9  19
ATOM     19  C5  M7W d   1       0.800  14.382  12.784  0.00  0.00     0.022 C 
ATOM     20  H2  M7W d   1       0.758  13.288  12.679  0.00  0.00     0.071 H 
ATOM     21  H3  M7W d   1       0.237  14.851  11.964  0.00  0.00     0.071 H 
BRANCH  19  22
ATOM     22  C4  M7W d   1       2.241  14.811  12.671  0.00  0.00    -0.023 A 
ATOM     23  C3  M7W d   1       3.119  14.144  11.847  0.00  0.00    -0.070 A 
ATOM     24  C2  M7W d   1       4.401  14.609  11.662  0.00  0.00    -0.031 A 
ATOM     25  H4  M7W d   1       2.797  13.243  11.338  0.00  0.00     0.084 H 
ATOM     26  C1  M7W d   1       4.761  15.756  12.333  0.00  0.00     0.163 A 
ATOM     27  H1  M7W d   1       5.100  14.093  11.014  0.00  0.00     0.090 H 
ATOM     28  N3  M7W d   1       3.962  16.421  13.159  0.00  0.00    -0.237 NA
ATOM     29  C19 M7W d   1       2.719  15.937  13.316  0.00  0.00     0.013 A 
ATOM     30  H21 M7W d   1       2.050  16.461  13.989  0.00  0.00     0.115 H 
BRANCH  26  31
ATOM     31  O   M7W d   1       6.003  16.211  12.081  0.00  0.00    -0.339 OA
BRANCH  31  32
ATOM     32  C   M7W d   1       6.429  17.382  12.765  0.00  0.00     0.012 C 
ATOM     33  H22 M7W d   1       7.456  17.631  12.460  0.00  0.00     0.067 H 
ATOM     34  H23 M7W d   1       6.402  17.203  13.850  0.00  0.00     0.067 H 
ATOM     35  H24 M7W d   1       5.759  18.218  12.514  0.00  0.00     0.067 H 
ENDBRANCH  31  32
ENDBRANCH  26  31
ENDBRANCH  19  22
ENDBRANCH   9  19
BRANCH   3  36
ATOM     36  C9  M7W d   1      -3.456  16.062  19.041  0.00  0.00     0.030 A 
ATOM     37  C10 M7W d   1      -2.980  17.075  19.877  0.00  0.00    -0.057 A 
ATOM     38  C11 M7W d   1      -3.428  17.185  21.178  0.00  0.00    -0.067 A 
ATOM     39  H9  M7W d   1      -2.251  17.783  19.500  0.00  0.00     0.086 H 
ATOM     40  C12 M7W d   1      -4.387  16.312  21.678  0.00  0.00     0.009 A 
ATOM     41  H8  M7W d   1      -3.027  17.962  21.818  0.00  0.00     0.085 H 
ATOM     42  C16 M7W d   1      -4.893  15.325  20.836  0.00  0.00    -0.067 A 
ATOM     43  C15 M7W d   1      -4.426  15.190  19.540  0.00  0.00    -0.057 A 
ATOM     44  H10 M7W d   1      -5.662  14.654  21.200  0.00  0.00     0.085 H 
ATOM     45  H11 M7W d   1      -4.816  14.401  18.907  0.00  0.00     0.086 H 
BRANCH  40  46
ATOM     46  C13 M7W d   1      -4.787  16.356  23.117  0.00  0.00     0.155 C 
ATOM     47  O2  M7W d   1      -5.757  15.713  23.508  0.00  0.00    -0.293 OA
BRANCH  46  48
ATOM     48  C14 M7W d   1      -4.040  17.245  24.063  0.00  0.00    -0.017 C 
ATOM     49  H5  M7W d   1      -3.210  17.732  23.530  0.00  0.00     0.038 H 
ATOM     50  H6  M7W d   1      -3.640  16.644  24.893  0.00  0.00     0.038 H 
ATOM     51  H7  M7W d   1      -4.721  18.012  24.461  0.00  0.00     0.038 H 
ENDBRANCH  46  48
ENDBRANCH  40  46
ENDBRANCH   3  36
TORSDOF 7
