REMARK  5 active torsions:
REMARK  status: ('A' for Active; 'I' for Inactive)
REMARK    1  A    between atoms: C15_2  and  C16_3 
REMARK       I    between atoms: C15_2  and  N3_8 
REMARK       I    between atoms: N2_13  and  C_14 
REMARK       I    between atoms: C_14  and  N_16 
REMARK    2  A    between atoms: N_16  and  C1_17 
REMARK    3  A    between atoms: C1_17  and  C2_18 
REMARK    4  A    between atoms: C5_21  and  C6_24 
REMARK    5  A    between atoms: C6_24  and  N1_25 
ROOT
ATOM      1  C1  M7T d   1       1.163  14.223  12.900  0.00  0.00     0.021 C 
ATOM      2  H13 M7T d   1       0.589  14.410  11.980  0.00  0.00     0.071 H 
ATOM      3  H14 M7T d   1       1.173  13.144  13.113  0.00  0.00     0.071 H 
ENDROOT
BRANCH   1   4
ATOM      4  N   M7T d   1       0.504  14.903  14.000  0.00  0.00    -0.339 N 
ATOM      5  C   M7T d   1      -0.830  15.008  14.002  0.00  0.00     0.318 C 
ATOM      6  N2  M7T d   1      -1.395  15.066  15.239  0.00  0.00    -0.331 N 
ATOM      7  O   M7T d   1      -1.507  15.038  12.981  0.00  0.00    -0.247 OA
ATOM      8  C13 M7T d   1      -2.829  15.335  15.377  0.00  0.00     0.014 C 
ATOM      9  C20 M7T d   1      -0.641  15.384  16.457  0.00  0.00     0.014 C 
ATOM     10  C14 M7T d   1      -3.283  15.054  16.797  0.00  0.00     0.013 C 
ATOM     11  H6  M7T d   1      -3.025  16.390  15.135  0.00  0.00     0.067 H 
ATOM     12  H7  M7T d   1      -3.388  14.690  14.683  0.00  0.00     0.067 H 
ATOM     13  N3  M7T d   1      -2.627  15.972  17.737  0.00  0.00    -0.344 N 
ATOM     14  H4  M7T d   1      -4.373  15.187  16.862  0.00  0.00     0.066 H 
ATOM     15  H5  M7T d   1      -3.024  14.018  17.062  0.00  0.00     0.066 H 
ATOM     16  C15 M7T d   1      -3.074  16.268  18.977  0.00  0.00     0.260 C 
ATOM     17  C21 M7T d   1      -1.342  16.466  17.235  0.00  0.00     0.013 C 
ATOM     18  O1  M7T d   1      -2.512  17.090  19.691  0.00  0.00    -0.267 OA
ATOM     19  H8  M7T d   1      -0.712  16.770  18.084  0.00  0.00     0.066 H 
ATOM     20  H9  M7T d   1      -1.516  17.332  16.579  0.00  0.00     0.066 H 
ATOM     21  H10 M7T d   1      -0.561  14.482  17.081  0.00  0.00     0.067 H 
ATOM     22  H11 M7T d   1       0.366  15.729  16.181  0.00  0.00     0.067 H 
ATOM     23  H12 M7T d   1       1.042  15.289  14.749  0.00  0.00     0.164 HD
BRANCH  16  24
ATOM     24  C16 M7T d   1      -4.197  15.491  19.564  0.00  0.00     0.072 A 
ATOM     25  S   M7T d   1      -4.423  15.589  21.258  0.00  0.00    -0.097 SA
ATOM     26  C19 M7T d   1      -5.735  14.491  21.211  0.00  0.00    -0.044 A 
ATOM     27  C18 M7T d   1      -6.017  14.054  19.968  0.00  0.00    -0.075 A 
ATOM     28  H1  M7T d   1      -6.286  14.177  22.096  0.00  0.00     0.095 H 
ATOM     29  C17 M7T d   1      -5.165  14.603  18.990  0.00  0.00    -0.060 A 
ATOM     30  H2  M7T d   1      -6.818  13.351  19.744  0.00  0.00     0.084 H 
ATOM     31  H3  M7T d   1      -5.233  14.380  17.926  0.00  0.00     0.085 H 
ENDBRANCH  16  24
ENDBRANCH   1   4
BRANCH   1  32
ATOM     32  C2  M7T d   1       2.583  14.680  12.678  0.00  0.00    -0.040 A 
ATOM     33  C12 M7T d   1       3.475  13.868  11.999  0.00  0.00    -0.075 A 
ATOM     34  C11 M7T d   1       4.720  14.333  11.628  0.00  0.00    -0.075 A 
ATOM     35  H15 M7T d   1       3.191  12.851  11.755  0.00  0.00     0.084 H 
ATOM     36  C5  M7T d   1       5.113  15.628  11.919  0.00  0.00    -0.033 A 
ATOM     37  H16 M7T d   1       5.401  13.674  11.101  0.00  0.00     0.084 H 
ATOM     38  C4  M7T d   1       4.247  16.424  12.657  0.00  0.00    -0.075 A 
ATOM     39  C3  M7T d   1       3.000  15.957  13.031  0.00  0.00    -0.075 A 
ATOM     40  H17 M7T d   1       4.552  17.424  12.944  0.00  0.00     0.084 H 
ATOM     41  H18 M7T d   1       2.340  16.596  13.607  0.00  0.00     0.084 H 
BRANCH  36  42
ATOM     42  C6  M7T d   1       6.364  16.199  11.293  0.00  0.00     0.107 C 
ATOM     43  H19 M7T d   1       7.239  15.686  11.720  0.00  0.00     0.083 H 
ATOM     44  H20 M7T d   1       6.418  17.273  11.527  0.00  0.00     0.083 H 
BRANCH  42  45
ATOM     45  N1  M7T d   1       6.386  16.032   9.829  0.00  0.00    -0.067 N 
ATOM     46  C10 M7T d   1       7.695  16.322   9.235  0.00  0.00     0.084 C 
ATOM     47  C9  M7T d   1       7.400  16.485   7.784  0.00  0.00    -0.041 C 
ATOM     48  H22 M7T d   1       8.394  15.489   9.401  0.00  0.00     0.076 H 
ATOM     49  H23 M7T d   1       8.119  17.246   9.655  0.00  0.00     0.076 H 
ATOM     50  C8  M7T d   1       6.126  17.201   7.766  0.00  0.00    -0.041 C 
ATOM     51  H24 M7T d   1       7.306  15.506   7.291  0.00  0.00     0.035 H 
ATOM     52  H25 M7T d   1       8.187  17.072   7.288  0.00  0.00     0.035 H 
ATOM     53  C7  M7T d   1       5.465  16.944   9.141  0.00  0.00     0.084 C 
ATOM     54  H26 M7T d   1       5.485  16.819   6.958  0.00  0.00     0.035 H 
ATOM     55  H27 M7T d   1       6.296  18.278   7.620  0.00  0.00     0.035 H 
ATOM     56  H28 M7T d   1       5.358  17.884   9.702  0.00  0.00     0.076 H 
ATOM     57  H29 M7T d   1       4.477  16.477   9.016  0.00  0.00     0.076 H 
ATOM     58  H21 M7T d   1       6.130  15.079   9.625  0.00  0.00     0.280 HD
ENDBRANCH  42  45
ENDBRANCH  36  42
ENDBRANCH   1  32
TORSDOF 5
