REMARK  9 active torsions:
REMARK  status: ('A' for Active; 'I' for Inactive)
REMARK    1  A    between atoms: C5_3  and  C4_4 
REMARK    2  A    between atoms: C4_4  and  N_27 
REMARK    3  A    between atoms: C2_6  and  C3_5 
REMARK    4  A    between atoms: N_27  and  C2_6 
REMARK    5  A    between atoms: N_27  and  C1_7 
REMARK    6  A    between atoms: C1_7  and  C_28 
REMARK    7  A    between atoms: C9_9  and  C8_8 
REMARK    8  A    between atoms: N1_12  and  C9_9 
REMARK       I    between atoms: C10_10  and  N1_12 
REMARK       I    between atoms: N2_16  and  C10_10 
REMARK    9  A    between atoms: C15_17  and  N3_19 
ROOT
ATOM      1  C9  M7N d   1       1.224  14.313  12.960  0.00  0.00     0.021 C 
ATOM      2  H12 M7N d   1       1.197  13.226  13.130  0.00  0.00     0.071 H 
ATOM      3  H13 M7N d   1       0.606  14.563  12.085  0.00  0.00     0.071 H 
ENDROOT
BRANCH   1   4
ATOM      4  C8  M7N d   1       2.649  14.702  12.651  0.00  0.00    -0.040 A 
ATOM      5  C7  M7N d   1       3.211  15.878  13.132  0.00  0.00    -0.075 A 
ATOM      6  C6  M7N d   1       4.478  16.275  12.734  0.00  0.00    -0.075 A 
ATOM      7  H1  M7N d   1       2.651  16.493  13.828  0.00  0.00     0.084 H 
ATOM      8  C5  M7N d   1       5.224  15.502  11.852  0.00  0.00    -0.033 A 
ATOM      9  H2  M7N d   1       4.893  17.201  13.116  0.00  0.00     0.084 H 
ATOM     10  C20 M7N d   1       4.667  14.319  11.390  0.00  0.00    -0.075 A 
ATOM     11  C19 M7N d   1       3.402  13.926  11.784  0.00  0.00    -0.075 A 
ATOM     12  H27 M7N d   1       5.232  13.693  10.709  0.00  0.00     0.084 H 
ATOM     13  H26 M7N d   1       2.992  12.995  11.409  0.00  0.00     0.084 H 
BRANCH   8  14
ATOM     14  C4  M7N d   1       6.643  15.886  11.490  0.00  0.00     0.107 C 
ATOM     15  H3  M7N d   1       7.320  15.133  11.920  0.00  0.00     0.083 H 
ATOM     16  H4  M7N d   1       6.855  16.868  11.937  0.00  0.00     0.083 H 
BRANCH  14  17
ATOM     17  N   M7N d   1       6.917  15.974  10.039  0.00  0.00    -0.068 N 
ATOM     18  H28 M7N d   1       7.818  16.419   9.964  0.00  0.00     0.280 HD
BRANCH  17  19
ATOM     19  C2  M7N d   1       5.995  16.915   9.365  0.00  0.00     0.081 C 
ATOM     20  H8  M7N d   1       5.006  16.439   9.296  0.00  0.00     0.075 H 
ATOM     21  H9  M7N d   1       5.922  17.825   9.978  0.00  0.00     0.075 H 
BRANCH  19  22
ATOM     22  C3  M7N d   1       6.430  17.316   7.966  0.00  0.00    -0.053 C 
ATOM     23  H5  M7N d   1       5.694  18.013   7.539  0.00  0.00     0.029 H 
ATOM     24  H6  M7N d   1       6.497  16.420   7.332  0.00  0.00     0.029 H 
ATOM     25  H7  M7N d   1       7.414  17.806   8.014  0.00  0.00     0.029 H 
ENDBRANCH  19  22
ENDBRANCH  17  19
BRANCH  17  26
ATOM     26  C1  M7N d   1       7.130  14.613   9.425  0.00  0.00     0.081 C 
ATOM     27  H10 M7N d   1       7.087  13.867  10.232  0.00  0.00     0.075 H 
ATOM     28  H11 M7N d   1       8.130  14.601   8.968  0.00  0.00     0.075 H 
BRANCH  26  29
ATOM     29  C   M7N d   1       6.120  14.206   8.355  0.00  0.00    -0.053 C 
ATOM     30  H29 M7N d   1       6.369  13.203   7.978  0.00  0.00     0.029 H 
ATOM     31  H30 M7N d   1       6.154  14.928   7.526  0.00  0.00     0.029 H 
ATOM     32  H31 M7N d   1       5.110  14.194   8.790  0.00  0.00     0.029 H 
ENDBRANCH  26  29
ENDBRANCH  17  26
ENDBRANCH  14  17
ENDBRANCH   8  14
ENDBRANCH   1   4
BRANCH   1  33
ATOM     33  N1  M7N d   1       0.643  14.965  14.124  0.00  0.00    -0.339 N 
ATOM     34  C10 M7N d   1      -0.689  15.170  14.191  0.00  0.00     0.318 C 
ATOM     35  N2  M7N d   1      -1.209  15.337  15.443  0.00  0.00    -0.331 N 
ATOM     36  O   M7N d   1      -1.401  15.183  13.194  0.00  0.00    -0.247 OA
ATOM     37  C11 M7N d   1      -2.617  14.989  15.685  0.00  0.00     0.015 C 
ATOM     38  C13 M7N d   1      -0.781  16.476  16.263  0.00  0.00     0.015 C 
ATOM     39  C12 M7N d   1      -2.860  14.753  17.181  0.00  0.00     0.027 C 
ATOM     40  H14 M7N d   1      -3.259  15.813  15.339  0.00  0.00     0.067 H 
ATOM     41  H15 M7N d   1      -2.865  14.073  15.129  0.00  0.00     0.067 H 
ATOM     42  N3  M7N d   1      -2.444  15.921  17.964  0.00  0.00    -0.211 N 
ATOM     43  H17 M7N d   1      -2.282  13.876  17.507  0.00  0.00     0.067 H 
ATOM     44  H18 M7N d   1      -3.932  14.569  17.348  0.00  0.00     0.067 H 
ATOM     45  C14 M7N d   1      -1.023  16.184  17.726  0.00  0.00     0.027 C 
ATOM     46  H21 M7N d   1      -0.709  17.051  18.326  0.00  0.00     0.067 H 
ATOM     47  H22 M7N d   1      -0.436  15.302  18.022  0.00  0.00     0.067 H 
ATOM     48  H19 M7N d   1       0.292  16.658  16.101  0.00  0.00     0.067 H 
ATOM     49  H20 M7N d   1      -1.353  17.369  15.971  0.00  0.00     0.067 H 
ATOM     50  H16 M7N d   1       1.232  15.262  14.876  0.00  0.00     0.164 HD
BRANCH  42  51
ATOM     51  C15 M7N d   1      -3.040  16.237  19.164  0.00  0.00     0.724 A 
ATOM     52  N4  M7N d   1      -3.965  15.370  19.636  0.00  0.00    -0.075 NA
ATOM     53  C16 M7N d   1      -4.571  15.744  20.772  0.00  0.00     0.022 A 
ATOM     54  C17 M7N d   1      -4.296  16.918  21.430  0.00  0.00    -0.048 A 
ATOM     55  H23 M7N d   1      -5.319  15.083  21.195  0.00  0.00     0.115 H 
ATOM     56  C18 M7N d   1      -3.343  17.724  20.860  0.00  0.00     0.022 A 
ATOM     57  H24 M7N d   1      -4.803  17.192  22.348  0.00  0.00     0.087 H 
ATOM     58  N5  M7N d   1      -2.691  17.416  19.729  0.00  0.00    -0.075 NA
ATOM     59  H25 M7N d   1      -3.104  18.661  21.350  0.00  0.00     0.115 H 
ENDBRANCH  42  51
ENDBRANCH   1  33
TORSDOF 9
