REMARK  4 active torsions:
REMARK  status: ('A' for Active; 'I' for Inactive)
REMARK       I    between atoms: N1_1  and  C7_9 
REMARK    1  A    between atoms: C8_14  and  N1_1 
REMARK    2  A    between atoms: C7_9  and  C4_4 
REMARK    3  A    between atoms: C15_22  and  N4_5 
REMARK    4  A    between atoms: C14_18  and  C15_22 
ROOT
ATOM      1  C2  M8K d   1       3.138  14.001  12.332  0.00  0.00    -0.062 A 
ATOM      2  C4  M8K d   1       1.677  14.871  14.045  0.00  0.00     0.032 A 
ATOM      3  C5  M8K d   1       2.739  15.630  14.537  0.00  0.00    -0.066 A 
ATOM      4  C6  M8K d   1       3.985  15.583  13.933  0.00  0.00    -0.062 A 
ATOM      5  C3  M8K d   1       1.898  14.049  12.943  0.00  0.00    -0.066 A 
ATOM      6  C1  M8K d   1       4.193  14.769  12.823  0.00  0.00     0.044 A 
ATOM      7  C   M8K d   1       5.498  14.681  12.223  0.00  0.00     0.099 C 
ATOM      8  N   M8K d   1       6.548  14.631  11.778  0.00  0.00    -0.191 NA
ATOM      9  H2  M8K d   1       3.290  13.364  11.468  0.00  0.00     0.085 H 
ATOM     10  H4  M8K d   1       2.587  16.265  15.403  0.00  0.00     0.085 H 
ATOM     11  H5  M8K d   1       4.799  16.181  14.325  0.00  0.00     0.085 H 
ATOM     12  H6  M8K d   1       1.088  13.439  12.559  0.00  0.00     0.085 H 
ENDROOT
BRANCH   2  13
ATOM     13  C7  M8K d   1       0.304  14.989  14.616  0.00  0.00     0.256 C 
ATOM     14  N1  M8K d   1       0.238  15.168  15.959  0.00  0.00    -0.323 N 
ATOM     15  H1  M8K d   1       1.102  15.386  16.413  0.00  0.00     0.169 HD
ATOM     16  O   M8K d   1      -0.676  14.965  13.888  0.00  0.00    -0.267 OA
BRANCH  14  17
ATOM     17  C8  M8K d   1      -0.902  15.086  16.805  0.00  0.00     0.037 A 
ATOM     18  C13 M8K d   1      -2.174  14.699  16.353  0.00  0.00    -0.029 A 
ATOM     19  C12 M8K d   1      -3.231  14.653  17.267  0.00  0.00     0.064 A 
ATOM     20  H7  M8K d   1      -2.334  14.440  15.312  0.00  0.00     0.090 H 
ATOM     21  N2  M8K d   1      -4.559  14.232  17.115  0.00  0.00    -0.341 N 
ATOM     22  C11 M8K d   1      -3.015  15.028  18.589  0.00  0.00     0.085 A 
ATOM     23  C14 M8K d   1      -5.102  14.374  18.314  0.00  0.00     0.131 A 
ATOM     24  H8  M8K d   1      -5.013  13.887  16.257  0.00  0.00     0.167 HD
ATOM     25  N3  M8K d   1      -4.232  14.858  19.232  0.00  0.00    -0.232 NA
ATOM     26  C10 M8K d   1      -1.767  15.422  19.045  0.00  0.00    -0.051 A 
ATOM     27  C9  M8K d   1      -0.708  15.443  18.147  0.00  0.00    -0.055 A 
ATOM     28  H9  M8K d   1      -1.621  15.708  20.080  0.00  0.00     0.087 H 
ATOM     29  H10 M8K d   1       0.278  15.738  18.487  0.00  0.00     0.087 H 
BRANCH  23  30
ATOM     30  C15 M8K d   1      -6.535  14.093  18.642  0.00  0.00     0.137 C 
ATOM     31  H11 M8K d   1      -6.947  14.953  19.190  0.00  0.00     0.088 H 
ATOM     32  H12 M8K d   1      -7.092  13.955  17.703  0.00  0.00     0.088 H 
BRANCH  30  33
ATOM     33  N4  M8K d   1      -6.693  12.890  19.465  0.00  0.00    -0.064 N 
ATOM     34  C20 M8K d   1      -6.134  13.103  20.817  0.00  0.00     0.084 C 
ATOM     35  C19 M8K d   1      -6.737  12.180  21.873  0.00  0.00    -0.042 C 
ATOM     36  H13 M8K d   1      -6.326  14.145  21.114  0.00  0.00     0.076 H 
ATOM     37  H14 M8K d   1      -5.049  12.927  20.778  0.00  0.00     0.076 H 
ATOM     38  C18 M8K d   1      -7.238  10.908  21.264  0.00  0.00    -0.062 C 
ATOM     39  H15 M8K d   1      -7.575  12.697  22.363  0.00  0.00     0.035 H 
ATOM     40  H16 M8K d   1      -5.967  11.940  22.620  0.00  0.00     0.035 H 
ATOM     41  C17 M8K d   1      -8.330  11.190  20.266  0.00  0.00    -0.042 C 
ATOM     42  H17 M8K d   1      -7.634  10.259  22.059  0.00  0.00     0.033 H 
ATOM     43  H18 M8K d   1      -6.406  10.399  20.755  0.00  0.00     0.033 H 
ATOM     44  C16 M8K d   1      -8.119  12.533  19.581  0.00  0.00     0.084 C 
ATOM     45  H19 M8K d   1      -9.298  11.202  20.788  0.00  0.00     0.035 H 
ATOM     46  H20 M8K d   1      -8.334  10.396  19.505  0.00  0.00     0.035 H 
ATOM     47  H21 M8K d   1      -8.554  12.486  18.572  0.00  0.00     0.076 H 
ATOM     48  H22 M8K d   1      -8.631  13.311  20.166  0.00  0.00     0.076 H 
ATOM     49  H3  M8K d   1      -6.199  12.130  19.024  0.00  0.00     0.280 HD
ENDBRANCH  30  33
ENDBRANCH  23  30
ENDBRANCH  14  17
ENDBRANCH   2  13
TORSDOF 4
