REMARK  4 active torsions:
REMARK  status: ('A' for Active; 'I' for Inactive)
REMARK    1  A    between atoms: C12_13  and  N2_3 
REMARK    2  A    between atoms: C6_7  and  C3_4 
REMARK       I    between atoms: N_24  and  C6_7 
REMARK    3  A    between atoms: C7_8  and  N_24 
REMARK    4  A    between atoms: C11_12  and  C12_13 
ROOT
ATOM      1  C7  M7Z d   1      -0.788  15.248  16.774  0.00  0.00     0.037 A 
ATOM      2  C8  M7Z d   1      -0.595  15.666  18.103  0.00  0.00    -0.055 A 
ATOM      3  C9  M7Z d   1      -1.630  15.587  19.026  0.00  0.00    -0.051 A 
ATOM      4  C10 M7Z d   1      -2.860  15.101  18.606  0.00  0.00     0.085 A 
ATOM      5  C11 M7Z d   1      -4.951  14.449  18.353  0.00  0.00     0.131 A 
ATOM      6  C18 M7Z d   1      -3.079  14.691  17.297  0.00  0.00     0.064 A 
ATOM      7  C19 M7Z d   1      -2.038  14.763  16.363  0.00  0.00    -0.029 A 
ATOM      8  N3  M7Z d   1      -4.412  14.274  17.158  0.00  0.00    -0.341 N 
ATOM      9  N1  M7Z d   1      -4.072  14.936  19.259  0.00  0.00    -0.232 NA
ATOM     10  H6  M7Z d   1       0.370  16.053  18.410  0.00  0.00     0.087 H 
ATOM     11  H7  M7Z d   1      -1.480  15.899  20.053  0.00  0.00     0.087 H 
ATOM     12  H20 M7Z d   1      -2.196  14.449  15.338  0.00  0.00     0.090 H 
ATOM     13  H22 M7Z d   1      -4.870  13.911  16.310  0.00  0.00     0.167 HD
ENDROOT
BRANCH   5  14
ATOM     14  C12 M7Z d   1      -6.396  14.238  18.677  0.00  0.00     0.137 C 
ATOM     15  H8  M7Z d   1      -6.742  15.069  19.308  0.00  0.00     0.088 H 
ATOM     16  H9  M7Z d   1      -6.971  14.225  17.739  0.00  0.00     0.088 H 
BRANCH  14  17
ATOM     17  N2  M7Z d   1      -6.626  12.975  19.390  0.00  0.00    -0.064 N 
ATOM     18  C13 M7Z d   1      -6.269  13.101  20.817  0.00  0.00     0.084 C 
ATOM     19  C14 M7Z d   1      -6.473  11.790  21.576  0.00  0.00    -0.042 C 
ATOM     20  H10 M7Z d   1      -6.900  13.878  21.274  0.00  0.00     0.076 H 
ATOM     21  H11 M7Z d   1      -5.212  13.395  20.894  0.00  0.00     0.076 H 
ATOM     22  C15 M7Z d   1      -7.897  11.289  21.431  0.00  0.00    -0.062 C 
ATOM     23  H12 M7Z d   1      -6.257  11.955  22.642  0.00  0.00     0.035 H 
ATOM     24  H13 M7Z d   1      -5.784  11.032  21.175  0.00  0.00     0.035 H 
ATOM     25  C16 M7Z d   1      -8.302  11.243  19.968  0.00  0.00    -0.042 C 
ATOM     26  H14 M7Z d   1      -8.575  11.965  21.973  0.00  0.00     0.033 H 
ATOM     27  H15 M7Z d   1      -7.970  10.278  21.858  0.00  0.00     0.033 H 
ATOM     28  C17 M7Z d   1      -8.040  12.575  19.287  0.00  0.00     0.084 C 
ATOM     29  H16 M7Z d   1      -9.375  11.009  19.899  0.00  0.00     0.035 H 
ATOM     30  H17 M7Z d   1      -7.722  10.459  19.459  0.00  0.00     0.035 H 
ATOM     31  H18 M7Z d   1      -8.309  12.490  18.224  0.00  0.00     0.076 H 
ATOM     32  H19 M7Z d   1      -8.664  13.346  19.763  0.00  0.00     0.076 H 
ATOM     33  H3  M7Z d   1      -6.051  12.261  18.971  0.00  0.00     0.280 HD
ENDBRANCH  14  17
ENDBRANCH   5  14
BRANCH   1  34
ATOM     34  N   M7Z d   1       0.348  15.274  15.915  0.00  0.00    -0.323 N 
ATOM     35  C6  M7Z d   1       0.403  15.026  14.575  0.00  0.00     0.256 C 
ATOM     36  O   M7Z d   1      -0.592  14.911  13.863  0.00  0.00    -0.267 OA
ATOM     37  H21 M7Z d   1       1.218  15.504  16.351  0.00  0.00     0.169 HD
BRANCH  35  38
ATOM     38  C3  M7Z d   1       1.780  14.952  13.985  0.00  0.00     0.032 A 
ATOM     39  C2  M7Z d   1       2.790  15.819  14.406  0.00  0.00    -0.066 A 
ATOM     40  C1  M7Z d   1       4.034  15.815  13.792  0.00  0.00    -0.061 A 
ATOM     41  H2  M7Z d   1       2.600  16.505  15.224  0.00  0.00     0.085 H 
ATOM     42  C   M7Z d   1       4.268  14.942  12.754  0.00  0.00     0.034 A 
ATOM     43  H1  M7Z d   1       4.812  16.491  14.126  0.00  0.00     0.086 H 
ATOM     44  C5  M7Z d   1       3.290  14.058  12.323  0.00  0.00    -0.061 A 
ATOM     45 CL   M7Z d   1       5.833  14.947  11.961  0.00  0.00    -0.084 Cl
ATOM     46  C4  M7Z d   1       2.051  14.066  12.944  0.00  0.00    -0.066 A 
ATOM     47  H5  M7Z d   1       3.492  13.369  11.511  0.00  0.00     0.086 H 
ATOM     48  H4  M7Z d   1       1.283  13.375  12.616  0.00  0.00     0.085 H 
ENDBRANCH  35  38
ENDBRANCH   1  34
TORSDOF 4
