REMARK  4 active torsions:
REMARK  status: ('A' for Active; 'I' for Inactive)
REMARK    1  A    between atoms: C14_21  and  N3_3 
REMARK    2  A    between atoms: C6_6  and  C3_8 
REMARK       I    between atoms: N_12  and  C6_6 
REMARK    3  A    between atoms: C7_13  and  N_12 
REMARK    4  A    between atoms: C13_16  and  C14_21 
ROOT
ATOM      1  N1  M82 d   1      -4.542  14.335  17.105  0.00  0.00    -0.341 N 
ATOM      2  C7  M82 d   1      -0.892  15.193  16.715  0.00  0.00     0.037 A 
ATOM      3  C12 M82 d   1      -2.167  14.791  16.295  0.00  0.00    -0.029 A 
ATOM      4  C11 M82 d   1      -3.203  14.733  17.234  0.00  0.00     0.064 A 
ATOM      5  C13 M82 d   1      -5.061  14.482  18.313  0.00  0.00     0.131 A 
ATOM      6  N2  M82 d   1      -4.166  14.941  19.219  0.00  0.00    -0.232 NA
ATOM      7  C10 M82 d   1      -2.959  15.102  18.554  0.00  0.00     0.085 A 
ATOM      8  C9  M82 d   1      -1.710  15.519  18.977  0.00  0.00    -0.051 A 
ATOM      9  C8  M82 d   1      -0.676  15.566  18.052  0.00  0.00    -0.055 A 
ATOM     10  H1  M82 d   1      -5.018  14.001  16.255  0.00  0.00     0.167 HD
ATOM     11  H8  M82 d   1      -2.348  14.529  15.259  0.00  0.00     0.090 H 
ATOM     12  H9  M82 d   1      -1.542  15.803  20.009  0.00  0.00     0.087 H 
ATOM     13  H10 M82 d   1       0.309  15.894  18.365  0.00  0.00     0.087 H 
ENDROOT
BRANCH   5  14
ATOM     14  C14 M82 d   1      -6.490  14.223  18.666  0.00  0.00     0.137 C 
ATOM     15  H11 M82 d   1      -6.837  15.016  19.345  0.00  0.00     0.088 H 
ATOM     16  H12 M82 d   1      -7.092  14.239  17.745  0.00  0.00     0.088 H 
BRANCH  14  17
ATOM     17  N3  M82 d   1      -6.666  12.926  19.324  0.00  0.00    -0.064 N 
ATOM     18  C19 M82 d   1      -6.309  13.007  20.751  0.00  0.00     0.084 C 
ATOM     19  C18 M82 d   1      -6.446  11.659  21.448  0.00  0.00    -0.042 C 
ATOM     20  H13 M82 d   1      -6.974  13.731  21.244  0.00  0.00     0.076 H 
ATOM     21  H14 M82 d   1      -5.267  13.348  20.838  0.00  0.00     0.076 H 
ATOM     22  C17 M82 d   1      -7.841  11.101  21.287  0.00  0.00    -0.062 C 
ATOM     23  H15 M82 d   1      -6.231  11.785  22.519  0.00  0.00     0.035 H 
ATOM     24  H16 M82 d   1      -5.724  10.954  21.010  0.00  0.00     0.035 H 
ATOM     25  C16 M82 d   1      -8.256  11.104  19.826  0.00  0.00    -0.042 C 
ATOM     26  H17 M82 d   1      -8.546  11.718  21.863  0.00  0.00     0.033 H 
ATOM     27  H18 M82 d   1      -7.863  10.069  21.666  0.00  0.00     0.033 H 
ATOM     28  C15 M82 d   1      -8.060  12.473  19.208  0.00  0.00     0.084 C 
ATOM     29  H19 M82 d   1      -9.318  10.825  19.753  0.00  0.00     0.035 H 
ATOM     30  H20 M82 d   1      -7.646  10.371  19.277  0.00  0.00     0.035 H 
ATOM     31  H21 M82 d   1      -8.332  12.426  18.143  0.00  0.00     0.076 H 
ATOM     32  H22 M82 d   1      -8.713  13.193  19.722  0.00  0.00     0.076 H 
ATOM     33  H3  M82 d   1      -6.064  12.254  18.874  0.00  0.00     0.280 HD
ENDBRANCH  14  17
ENDBRANCH   5  14
BRANCH   2  34
ATOM     34  N   M82 d   1       0.251  15.238  15.857  0.00  0.00    -0.323 N 
ATOM     35  C6  M82 d   1       0.322  15.002  14.515  0.00  0.00     0.256 C 
ATOM     36  O   M82 d   1      -0.664  14.868  13.794  0.00  0.00    -0.267 OA
ATOM     37  H7  M82 d   1       1.115  15.475  16.301  0.00  0.00     0.169 HD
BRANCH  35  38
ATOM     38  C3  M82 d   1       1.702  14.979  13.934  0.00  0.00     0.032 A 
ATOM     39  C2  M82 d   1       2.661  15.901  14.352  0.00  0.00    -0.067 A 
ATOM     40  C1  M82 d   1       3.916  15.933  13.770  0.00  0.00    -0.066 A 
ATOM     41  H2  M82 d   1       2.420  16.602  15.143  0.00  0.00     0.085 H 
ATOM     42  C   M82 d   1       4.220  15.044  12.754  0.00  0.00     0.006 A 
ATOM     43  H6  M82 d   1       4.656  16.650  14.108  0.00  0.00     0.085 H 
ATOM     44  C5  M82 d   1       3.291  14.106  12.335  0.00  0.00    -0.066 A 
ATOM     45  I   M82 d   1       6.097  15.147  11.814  0.00  0.00    -0.045 I 
ATOM     46  C4  M82 d   1       2.039  14.074  12.927  0.00  0.00    -0.067 A 
ATOM     47  H5  M82 d   1       3.542  13.402  11.550  0.00  0.00     0.085 H 
ATOM     48  H4  M82 d   1       1.312  13.337  12.604  0.00  0.00     0.085 H 
ENDBRANCH  35  38
ENDBRANCH   2  34
TORSDOF 4
