REMARK  8 active torsions:
REMARK  status: ('A' for Active; 'I' for Inactive)
REMARK    1  A    between atoms: N01_20  and  C10_1 
REMARK    2  A    between atoms: C08_12  and  C13_2 
REMARK       I    between atoms: C13_2  and  N02_21 
REMARK    3  A    between atoms: C12_15  and  C17_4 
REMARK    4  A    between atoms: S01_28  and  C04_8 
REMARK    5  A    between atoms: C05_9  and  O01_23 
REMARK    6  A    between atoms: C09_13  and  O04_26 
REMARK    7  A    between atoms: N02_21  and  C14_16 
REMARK    8  A    between atoms: N01_20  and  S01_28 
ROOT
ATOM      1  C15 Q0M d   1      -8.724  -6.888  -5.614  0.00  0.00    -0.061 C 
ATOM      2  C17 Q0M d   1      -7.198  -7.394  -4.160  0.00  0.00     0.076 C 
ATOM      3  C16 Q0M d   1      -7.214  -7.226  -5.713  0.00  0.00    -0.042 C 
ATOM      4  C18 Q0M d   1      -8.533  -6.587  -4.097  0.00  0.00    -0.042 C 
ATOM      5  C19 Q0M d   1      -7.376  -8.815  -3.794  0.00  0.00     0.074 C 
ATOM      6  N03 Q0M d   1      -7.543  -9.914  -3.536  0.00  0.00    -0.196 NA
ATOM      7  H1  Q0M d   1      -9.392  -7.736  -5.826  0.00  0.00     0.033 H 
ATOM      8  H2  Q0M d   1      -9.033  -6.018  -6.212  0.00  0.00     0.033 H 
ATOM      9  H10 Q0M d   1      -6.587  -6.404  -6.089  0.00  0.00     0.036 H 
ATOM     10  H11 Q0M d   1      -6.989  -8.145  -6.273  0.00  0.00     0.036 H 
ATOM     11  H12 Q0M d   1      -9.302  -7.026  -3.444  0.00  0.00     0.036 H 
ATOM     12  H13 Q0M d   1      -8.411  -5.521  -3.855  0.00  0.00     0.036 H 
ENDROOT
BRANCH   2  13
ATOM     13  C12 Q0M d   1      -5.997  -6.738  -3.434  0.00  0.00    -0.032 A 
ATOM     14  C07 Q0M d   1      -4.974  -7.514  -2.855  0.00  0.00    -0.057 A 
ATOM     15  C08 Q0M d   1      -3.882  -6.904  -2.208  0.00  0.00     0.068 A 
ATOM     16  H5  Q0M d   1      -5.028  -8.595  -2.908  0.00  0.00     0.086 H 
ATOM     17  C09 Q0M d   1      -3.807  -5.496  -2.183  0.00  0.00     0.108 A 
ATOM     18  C10 Q0M d   1      -4.809  -4.722  -2.760  0.00  0.00     0.077 A 
ATOM     19  C11 Q0M d   1      -5.884  -5.341  -3.379  0.00  0.00    -0.046 A 
ATOM     20  H6  Q0M d   1      -6.657  -4.730  -3.832  0.00  0.00     0.088 H 
BRANCH  15  21
ATOM     21  C13 Q0M d   1      -2.815  -7.701  -1.596  0.00  0.00     0.254 C 
ATOM     22  N02 Q0M d   1      -3.001  -9.029  -1.336  0.00  0.00    -0.361 N 
ATOM     23  H15 Q0M d   1      -3.874  -9.459  -1.564  0.00  0.00     0.162 HD
ATOM     24  O05 Q0M d   1      -1.714  -7.218  -1.313  0.00  0.00    -0.268 OA
BRANCH  22  25
ATOM     25  C14 Q0M d   1      -1.932  -9.835  -0.724  0.00  0.00    -0.018 C 
ATOM     26  H7  Q0M d   1      -2.280 -10.871  -0.599  0.00  0.00     0.056 H 
ATOM     27  H8  Q0M d   1      -1.673  -9.414   0.259  0.00  0.00     0.056 H 
ATOM     28  H9  Q0M d   1      -1.045  -9.822  -1.374  0.00  0.00     0.056 H 
ENDBRANCH  22  25
ENDBRANCH  15  21
BRANCH  17  29
ATOM     29  O04 Q0M d   1      -2.764  -4.809  -1.582  0.00  0.00    -0.357 OA
ATOM     30  H17 Q0M d   1      -2.905  -3.874  -1.677  0.00  0.00     0.217 HD
ENDBRANCH  17  29
BRANCH  18  31
ATOM     31  N01 Q0M d   1      -4.685  -3.320  -2.732  0.00  0.00    -0.278 N 
ATOM     32  H14 Q0M d   1      -3.920  -2.877  -3.199  0.00  0.00     0.179 HD
BRANCH  31  33
ATOM     33  S01 Q0M d   1      -5.812  -2.399  -1.922  0.00  0.00     0.266 S 
ATOM     34  O02 Q0M d   1      -7.139  -2.848  -2.206  0.00  0.00    -0.200 OA
ATOM     35  O03 Q0M d   1      -5.525  -1.048  -2.236  0.00  0.00    -0.200 OA
BRANCH  33  36
ATOM     36  C04 Q0M d   1      -5.502  -2.641  -0.179  0.00  0.00     0.115 A 
ATOM     37  C03 Q0M d   1      -6.534  -3.062   0.661  0.00  0.00    -0.041 A 
ATOM     38  C02 Q0M d   1      -6.282  -3.216   2.008  0.00  0.00     0.014 A 
ATOM     39  H4  Q0M d   1      -7.520  -3.265   0.260  0.00  0.00     0.088 H 
ATOM     40  C01 Q0M d   1      -5.032  -2.955   2.543  0.00  0.00    -0.042 A 
ATOM     41 BR1  Q0M d   1      -7.667  -3.774   3.141  0.00  0.00    -0.051 Br
ATOM     42  C06 Q0M d   1      -4.045  -2.558   1.693  0.00  0.00     0.070 A 
ATOM     43  H3  Q0M d   1      -4.845  -3.063   3.605  0.00  0.00     0.088 H 
ATOM     44  C05 Q0M d   1      -4.250  -2.387   0.339  0.00  0.00     0.110 A 
ATOM     45 CL1  Q0M d   1      -2.507  -2.274   2.371  0.00  0.00    -0.081 Cl
BRANCH  44  46
ATOM     46  O01 Q0M d   1      -3.245  -2.000  -0.502  0.00  0.00    -0.357 OA
ATOM     47  H16 Q0M d   1      -2.544  -2.641  -0.472  0.00  0.00     0.217 HD
ENDBRANCH  44  46
ENDBRANCH  33  36
ENDBRANCH  31  33
ENDBRANCH  18  31
ENDBRANCH   2  13
TORSDOF 8
