REMARK  6 active torsions:
REMARK  status: ('A' for Active; 'I' for Inactive)
REMARK    1  A    between atoms: O20_18  and  C21_5 
REMARK    2  A    between atoms: S01_19  and  C02_7 
REMARK    3  A    between atoms: N03_14  and  C04_8 
REMARK    4  A    between atoms: C09_11  and  O20_18 
REMARK    5  A    between atoms: C10_12  and  O19_17 
REMARK    6  A    between atoms: N03_14  and  S01_19 
ROOT
ATOM      1  O06 Q0Y d   1       4.925   1.441  10.915  0.00  0.00    -0.200 OA
ATOM      2  O07 Q0Y d   1       6.584   3.055  10.060  0.00  0.00    -0.200 OA
ATOM      3  S01 Q0Y d   1       5.552   2.047   9.745  0.00  0.00     0.266 S 
ENDROOT
BRANCH   3   4
ATOM      4  C02 Q0Y d   1       6.313   0.675   8.816  0.00  0.00     0.114 A 
ATOM      5  C05 Q0Y d   1       6.223  -0.601   9.368  0.00  0.00    -0.041 A 
ATOM      6  C13 Q0Y d   1       6.815  -1.645   8.664  0.00  0.00     0.012 A 
ATOM      7  H1  Q0Y d   1       5.712  -0.774  10.308  0.00  0.00     0.088 H 
ATOM      8  C15 Q0Y d   1       7.484  -1.431   7.455  0.00  0.00    -0.063 A 
ATOM      9 BR1  Q0Y d   1       6.666  -3.408   9.395  0.00  0.00    -0.051 Br
ATOM     10  C11 Q0Y d   1       7.582  -0.146   6.942  0.00  0.00    -0.048 A 
ATOM     11  H3  Q0Y d   1       7.924  -2.265   6.921  0.00  0.00     0.085 H 
ATOM     12  C09 Q0Y d   1       6.990   0.898   7.631  0.00  0.00     0.091 A 
ATOM     13  H7  Q0Y d   1       8.114   0.038   6.016  0.00  0.00     0.087 H 
BRANCH  12  14
ATOM     14  O20 Q0Y d   1       7.057   2.220   7.200  0.00  0.00    -0.354 OA
BRANCH  14  15
ATOM     15  C21 Q0Y d   1       7.628   2.446   5.901  0.00  0.00     0.010 C 
ATOM     16  H4  Q0Y d   1       7.623   3.524   5.681  0.00  0.00     0.066 H 
ATOM     17  H5  Q0Y d   1       7.035   1.914   5.142  0.00  0.00     0.066 H 
ATOM     18  H6  Q0Y d   1       8.663   2.074   5.886  0.00  0.00     0.066 H 
ENDBRANCH  14  15
ENDBRANCH  12  14
ENDBRANCH   3   4
BRANCH   3  19
ATOM     19  N03 Q0Y d   1       4.447   2.678   8.646  0.00  0.00    -0.278 N 
ATOM     20  H10 Q0Y d   1       4.642   3.548   8.194  0.00  0.00     0.179 HD
BRANCH  19  21
ATOM     21  C04 Q0Y d   1       3.197   1.965   8.342  0.00  0.00     0.077 A 
ATOM     22  C08 Q0Y d   1       2.257   1.783   9.335  0.00  0.00    -0.033 A 
ATOM     23  C14 Q0Y d   1       1.085   1.113   9.014  0.00  0.00     0.036 A 
ATOM     24  H9  Q0Y d   1       2.429   2.153  10.339  0.00  0.00     0.089 H 
ATOM     25  C16 Q0Y d   1       0.838   0.659   7.736  0.00  0.00    -0.059 A 
ATOM     26 CL1  Q0Y d   1      -0.110   0.865  10.286  0.00  0.00    -0.084 Cl
ATOM     27  C12 Q0Y d   1       1.763   0.840   6.722  0.00  0.00    -0.047 A 
ATOM     28  H2  Q0Y d   1      -0.096   0.152   7.521  0.00  0.00     0.086 H 
ATOM     29  C10 Q0Y d   1       2.943   1.502   7.063  0.00  0.00     0.093 A 
ATOM     30  H8  Q0Y d   1       1.580   0.485   5.714  0.00  0.00     0.087 H 
BRANCH  29  31
ATOM     31  O19 Q0Y d   1       3.898   1.675   6.086  0.00  0.00    -0.358 OA
ATOM     32  H11 Q0Y d   1       4.643   2.137   6.452  0.00  0.00     0.217 HD
ENDBRANCH  29  31
ENDBRANCH  19  21
ENDBRANCH   3  19
TORSDOF 6
