REMARK  7 active torsions:
REMARK  status: ('A' for Active; 'I' for Inactive)
REMARK    1  A    between atoms: C20_4  and  O21_24 
REMARK    2  A    between atoms: O21_24  and  C22_5 
REMARK    3  A    between atoms: C11_8  and  C12_12 
REMARK    4  A    between atoms: S05_14  and  C04_11 
REMARK    5  A    between atoms: N07_16  and  S05_14 
REMARK    6  A    between atoms: N07_16  and  C08_17 
REMARK    7  A    between atoms: C09_18  and  O10_19 
ROOT
ATOM      1  S05 Q1M d   1      -0.619   3.335 -10.636  0.00  0.00     0.266 S 
ATOM      2  O06 Q1M d   1      -1.012   2.581 -11.804  0.00  0.00    -0.200 OA
ATOM      3  O19 Q1M d   1       0.132   4.555 -10.856  0.00  0.00    -0.200 OA
ENDROOT
BRANCH   1   4
ATOM      4  C04 Q1M d   1      -2.068   3.760  -9.690  0.00  0.00     0.114 A 
ATOM      5  C20 Q1M d   1      -1.992   4.454  -8.486  0.00  0.00     0.091 A 
ATOM      6  C23 Q1M d   1      -3.175   4.755  -7.802  0.00  0.00    -0.048 A 
ATOM      7  C24 Q1M d   1      -4.419   4.371  -8.304  0.00  0.00    -0.063 A 
ATOM      8  H6  Q1M d   1      -3.124   5.297  -6.864  0.00  0.00     0.087 H 
ATOM      9  C02 Q1M d   1      -4.470   3.685  -9.515  0.00  0.00     0.012 A 
ATOM     10  H7  Q1M d   1      -5.329   4.602  -7.762  0.00  0.00     0.085 H 
ATOM     11  C03 Q1M d   1      -3.308   3.373 -10.214  0.00  0.00    -0.041 A 
ATOM     12 BR1  Q1M d   1      -6.124   3.143 -10.220  0.00  0.00    -0.051 Br
ATOM     13  H8  Q1M d   1      -3.362   2.836 -11.154  0.00  0.00     0.088 H 
BRANCH   5  14
ATOM     14  O21 Q1M d   1      -0.753   4.797  -8.069  0.00  0.00    -0.354 OA
BRANCH  14  15
ATOM     15  C22 Q1M d   1      -0.628   5.390  -6.785  0.00  0.00     0.010 C 
ATOM     16  H3  Q1M d   1       0.431   5.613  -6.585  0.00  0.00     0.066 H 
ATOM     17  H4  Q1M d   1      -1.007   4.695  -6.021  0.00  0.00     0.066 H 
ATOM     18  H5  Q1M d   1      -1.211   6.322  -6.753  0.00  0.00     0.066 H 
ENDBRANCH  14  15
ENDBRANCH   5  14
ENDBRANCH   1   4
BRANCH   1  19
ATOM     19  N07 Q1M d   1       0.287   2.357  -9.604  0.00  0.00    -0.278 N 
ATOM     20  H9  Q1M d   1       1.116   2.714  -9.174  0.00  0.00     0.179 HD
BRANCH  19  21
ATOM     21  C08 Q1M d   1      -0.134   1.016  -9.346  0.00  0.00     0.078 A 
ATOM     22  C18 Q1M d   1      -0.118   0.030 -10.319  0.00  0.00    -0.033 A 
ATOM     23  C16 Q1M d   1      -0.525  -1.258  -9.976  0.00  0.00     0.037 A 
ATOM     24  H1  Q1M d   1       0.205   0.256 -11.329  0.00  0.00     0.089 H 
ATOM     25  C15 Q1M d   1      -0.931  -1.583  -8.675  0.00  0.00    -0.043 A 
ATOM     26 CL7  Q1M d   1      -0.529  -2.450 -11.213  0.00  0.00    -0.084 Cl
ATOM     27  C11 Q1M d   1      -0.947  -0.575  -7.706  0.00  0.00     0.077 A 
ATOM     28  H2  Q1M d   1      -1.227  -2.595  -8.425  0.00  0.00     0.087 H 
ATOM     29  C09 Q1M d   1      -0.544   0.709  -8.050  0.00  0.00     0.110 A 
BRANCH  27  30
ATOM     30  C12 Q1M d   1      -1.370  -0.837  -6.317  0.00  0.00     0.212 C 
ATOM     31  O13 Q1M d   1      -1.532  -2.150  -6.039  0.00  0.00    -0.644 OA
ATOM     32  O14 Q1M d   1      -1.528   0.036  -5.494  0.00  0.00    -0.644 OA
ENDBRANCH  27  30
BRANCH  29  33
ATOM     33  O10 Q1M d   1      -0.550   1.714  -7.120  0.00  0.00    -0.357 OA
ATOM     34  H10 Q1M d   1      -0.848   1.370  -6.286  0.00  0.00     0.217 HD
ENDBRANCH  29  33
ENDBRANCH  19  21
ENDBRANCH   1  19
TORSDOF 7
