REMARK  6 active torsions:
REMARK  status: ('A' for Active; 'I' for Inactive)
REMARK    1  A    between atoms: S05_16  and  C06_1 
REMARK    2  A    between atoms: C17_3  and  C18_2 
REMARK    3  A    between atoms: C02_11  and  O01_14 
REMARK    4  A    between atoms: N04_15  and  C03_12 
REMARK    5  A    between atoms: C12_13  and  O13_21 
REMARK    6  A    between atoms: N04_15  and  S05_16 
ROOT
ATOM      1  C18 Q1G d   1       2.149 -25.247  -1.936  0.00  0.00     0.076 C 
ATOM      2  C19 Q1G d   1       2.466 -25.164  -3.472  0.00  0.00    -0.042 C 
ATOM      3  C20 Q1G d   1       3.293 -26.454  -3.318  0.00  0.00    -0.061 C 
ATOM      4  C21 Q1G d   1       3.491 -26.060  -1.845  0.00  0.00    -0.042 C 
ATOM      5  C22 Q1G d   1       0.983 -26.069  -1.613  0.00  0.00     0.074 C 
ATOM      6  N23 Q1G d   1       0.069 -26.734  -1.356  0.00  0.00    -0.196 NA
ATOM      7  H2  Q1G d   1       3.049 -24.281  -3.771  0.00  0.00     0.036 H 
ATOM      8  H3  Q1G d   1       1.587 -25.261  -4.126  0.00  0.00     0.036 H 
ATOM      9  H4  Q1G d   1       4.217 -26.482  -3.915  0.00  0.00     0.033 H 
ATOM     10  H5  Q1G d   1       2.727 -27.384  -3.473  0.00  0.00     0.033 H 
ATOM     11  H6  Q1G d   1       3.466 -26.904  -1.140  0.00  0.00     0.036 H 
ATOM     12  H7  Q1G d   1       4.384 -25.447  -1.653  0.00  0.00     0.036 H 
ENDROOT
BRANCH   1  13
ATOM     13  C17 Q1G d   1       2.100 -23.882  -1.095  0.00  0.00    -0.033 A 
ATOM     14  C16 Q1G d   1       2.093 -22.592  -1.686  0.00  0.00    -0.046 A 
ATOM     15  C03 Q1G d   1       2.047 -21.420  -0.911  0.00  0.00     0.076 A 
ATOM     16  H1  Q1G d   1       2.124 -22.508  -2.766  0.00  0.00     0.088 H 
ATOM     17  C02 Q1G d   1       2.038 -21.523   0.484  0.00  0.00     0.092 A 
ATOM     18  C25 Q1G d   1       2.046 -22.762   1.099  0.00  0.00    -0.048 A 
ATOM     19  C24 Q1G d   1       2.079 -23.920   0.317  0.00  0.00    -0.072 A 
ATOM     20  H15 Q1G d   1       2.027 -22.834   2.180  0.00  0.00     0.087 H 
ATOM     21  H8  Q1G d   1       2.089 -24.884   0.813  0.00  0.00     0.084 H 
BRANCH  15  22
ATOM     22  N04 Q1G d   1       2.059 -20.121  -1.550  0.00  0.00    -0.278 N 
ATOM     23  H11 Q1G d   1       2.900 -19.580  -1.546  0.00  0.00     0.179 HD
BRANCH  22  24
ATOM     24  S05 Q1G d   1       0.663 -19.495  -2.310  0.00  0.00     0.266 S 
ATOM     25  O14 Q1G d   1       0.986 -18.215  -2.898  0.00  0.00    -0.200 OA
ATOM     26  O15 Q1G d   1       0.088 -20.578  -3.105  0.00  0.00    -0.200 OA
BRANCH  24  27
ATOM     27  C06 Q1G d   1      -0.465 -19.160  -0.999  0.00  0.00     0.114 A 
ATOM     28  C12 Q1G d   1      -0.074 -18.330   0.054  0.00  0.00     0.089 A 
ATOM     29  C11 Q1G d   1      -0.965 -18.059   1.090  0.00  0.00    -0.048 A 
ATOM     30  C10 Q1G d   1      -2.251 -18.613   1.066  0.00  0.00    -0.064 A 
ATOM     31  H9  Q1G d   1      -0.664 -17.421   1.913  0.00  0.00     0.087 H 
ATOM     32  C08 Q1G d   1      -2.634 -19.432   0.007  0.00  0.00     0.012 A 
ATOM     33  H13 Q1G d   1      -2.947 -18.405   1.871  0.00  0.00     0.085 H 
ATOM     34  C07 Q1G d   1      -1.750 -19.712  -1.038  0.00  0.00    -0.041 A 
ATOM     35 BR9  Q1G d   1      -4.380 -20.168  -0.005  0.00  0.00    -0.051 Br
ATOM     36  H12 Q1G d   1      -2.054 -20.345  -1.864  0.00  0.00     0.088 H 
BRANCH  28  37
ATOM     37  O13 Q1G d   1       1.167 -17.759   0.144  0.00  0.00    -0.359 OA
ATOM     38  H14 Q1G d   1       1.078 -16.814   0.168  0.00  0.00     0.217 HD
ENDBRANCH  28  37
ENDBRANCH  24  27
ENDBRANCH  22  24
ENDBRANCH  15  22
BRANCH  17  39
ATOM     39  O01 Q1G d   1       2.008 -20.421   1.293  0.00  0.00    -0.358 OA
ATOM     40  H10 Q1G d   1       2.774 -19.885   1.125  0.00  0.00     0.217 HD
ENDBRANCH  17  39
ENDBRANCH   1  13
TORSDOF 6
