REMARK  11 active torsions:
REMARK  status: ('A' for Active; 'I' for Inactive)
REMARK    1  A    between atoms: C22_27  and  O4_28 
REMARK    2  A    between atoms: O4_28  and  C34_29 
REMARK    3  A    between atoms: C34_29  and  C35_30 
REMARK    4  A    between atoms: C35_30  and  N5_31 
REMARK    5  A    between atoms: N2_41  and  C32_42 
REMARK    6  A    between atoms: C23_46  and  O2_47 
REMARK    7  A    between atoms: C23_46  and  C33_48 
REMARK       I    between atoms: C33_48  and  N3_50 
REMARK    8  A    between atoms: N3_50  and  S1_51 
REMARK    9  A    between atoms: S1_51  and  N4_54 
REMARK   10  A    between atoms: N4_54  and  C40_55 
REMARK   11  A    between atoms: N4_54  and  C39_56 
ROOT
ATOM      1  C4  Q4D d   1       9.390   1.502  96.810  0.00  0.00    -0.050 C 
ATOM      2  C3  Q4D d   1      10.878   1.449  97.214  0.00  0.00    -0.060 C 
ATOM      3  C2  Q4D d   1      11.715   2.240  96.201  0.00  0.00    -0.040 C 
ATOM      4  C13 Q4D d   1      11.112   3.617  95.936  0.00  0.00    -0.049 A 
ATOM      5  C18 Q4D d   1      11.973   4.559  95.389  0.00  0.00    -0.055 A 
ATOM      6  C17 Q4D d   1      11.510   5.841  95.118  0.00  0.00     0.034 A 
ATOM      7 CL1  Q4D d   1      12.603   6.981  94.450  0.00  0.00    -0.084 Cl
ATOM      8  C16 Q4D d   1      10.206   6.225  95.392  0.00  0.00    -0.061 A 
ATOM      9  C15 Q4D d   1       9.341   5.284  95.941  0.00  0.00    -0.074 A 
ATOM     10  C14 Q4D d   1       9.781   3.981  96.205  0.00  0.00    -0.039 A 
ATOM     11  C1  Q4D d   1       8.801   2.946  96.808  0.00  0.00     0.025 C 
ATOM     12  C12 Q4D d   1       8.458   3.346  98.240  0.00  0.00     0.008 C 
ATOM     13  C11 Q4D d   1       7.478   2.900  95.979  0.00  0.00     0.038 C 
ATOM     14  O1  Q4D d   1       6.545   3.947  96.431  0.00  0.00    -0.348 OA
ATOM     15  C10 Q4D d   1       5.692   3.460  97.400  0.00  0.00     0.095 A 
ATOM     16  C5  Q4D d   1       4.350   3.748  97.131  0.00  0.00    -0.048 A 
ATOM     17  C6  Q4D d   1       3.366   3.303  98.029  0.00  0.00    -0.071 A 
ATOM     18  C7  Q4D d   1       3.737   2.596  99.177  0.00  0.00    -0.012 A 
ATOM     19  C8  Q4D d   1       5.085   2.316  99.433  0.00  0.00    -0.045 A 
ATOM     20  C9  Q4D d   1       6.086   2.752  98.548  0.00  0.00     0.064 A 
ATOM     21  N1  Q4D d   1       7.375   2.529  98.820  0.00  0.00    -0.377 N 
ATOM     22  C19 Q4D d   1       7.842   1.682  99.965  0.00  0.00    -0.001 C 
ATOM     23  C20 Q4D d   1       7.662   2.455 101.305  0.00  0.00    -0.033 C 
ATOM     24  C31 Q4D d   1       8.772   3.513 101.523  0.00  0.00    -0.059 C 
ATOM     25  C30 Q4D d   1       8.896   3.020 102.973  0.00  0.00    -0.058 C 
ATOM     26  C21 Q4D d   1       8.270   1.695 102.509  0.00  0.00    -0.021 C 
ATOM     27  C22 Q4D d   1       7.248   1.103 103.501  0.00  0.00     0.058 C 
ATOM     28  C29 Q4D d   1       6.475   1.977 104.280  0.00  0.00    -0.079 C 
ATOM     29  C28 Q4D d   1       5.089   1.839 104.288  0.00  0.00    -0.103 C 
ATOM     30  C27 Q4D d   1       4.226   2.787 105.123  0.00  0.00    -0.035 C 
ATOM     31  C26 Q4D d   1       3.198   3.532 104.262  0.00  0.00     0.000 C 
ATOM     32  N2  Q4D d   1       2.087   2.644 103.860  0.00  0.00    -0.356 N 
ATOM     33  C25 Q4D d   1       1.852   2.265 102.591  0.00  0.00     0.223 C 
ATOM     34  O3  Q4D d   1       0.913   1.530 102.254  0.00  0.00    -0.273 OA
ATOM     35  C24 Q4D d   1       2.852   2.764 101.530  0.00  0.00     0.051 C 
ATOM     36  C23 Q4D d   1       2.665   2.078 100.167  0.00  0.00     0.174 C 
ATOM     37  H1  Q4D d   1       8.814   0.891  97.520  0.00  0.00     0.034 H 
ATOM     38  H2  Q4D d   1       9.288   1.082  95.798  0.00  0.00     0.034 H 
ATOM     39  H3  Q4D d   1      11.216   0.402  97.230  0.00  0.00     0.033 H 
ATOM     40  H4  Q4D d   1      11.002   1.890  98.214  0.00  0.00     0.033 H 
ATOM     41  H5  Q4D d   1      11.757   1.679  95.255  0.00  0.00     0.040 H 
ATOM     42  H6  Q4D d   1      12.733   2.365  96.598  0.00  0.00     0.040 H 
ATOM     43  H7  Q4D d   1      13.002   4.295  95.174  0.00  0.00     0.086 H 
ATOM     44  H8  Q4D d   1       9.869   7.234  95.183  0.00  0.00     0.086 H 
ATOM     45  H9  Q4D d   1       8.318   5.562  96.166  0.00  0.00     0.084 H 
ATOM     46  H10 Q4D d   1       8.143   4.400  98.244  0.00  0.00     0.066 H 
ATOM     47  H11 Q4D d   1       9.357   3.229  98.862  0.00  0.00     0.066 H 
ATOM     48  H12 Q4D d   1       7.005   1.915  96.107  0.00  0.00     0.076 H 
ATOM     49  H13 Q4D d   1       7.712   3.059  94.916  0.00  0.00     0.076 H 
ATOM     50  H14 Q4D d   1       4.074   4.306  96.243  0.00  0.00     0.087 H 
ATOM     51  H15 Q4D d   1       2.320   3.507  97.832  0.00  0.00     0.084 H 
ATOM     52  H16 Q4D d   1       5.359   1.758 100.321  0.00  0.00     0.088 H 
ATOM     53  H17 Q4D d   1       8.905   1.435  99.826  0.00  0.00     0.064 H 
ATOM     54  H18 Q4D d   1       7.252   0.754  99.997  0.00  0.00     0.064 H 
ATOM     55  H19 Q4D d   1       6.627   2.806 101.426  0.00  0.00     0.043 H 
ATOM     56  H20 Q4D d   1       8.434   4.555 101.424  0.00  0.00     0.033 H 
ATOM     57  H21 Q4D d   1       9.673   3.360 100.911  0.00  0.00     0.033 H 
ATOM     58  H22 Q4D d   1       8.293   3.582 103.701  0.00  0.00     0.033 H 
ATOM     59  H23 Q4D d   1       9.929   2.934 103.341  0.00  0.00     0.033 H 
ATOM     60  H24 Q4D d   1       8.998   0.919 102.231  0.00  0.00     0.045 H 
ATOM     61  H25 Q4D d   1       6.560   0.446 102.949  0.00  0.00     0.090 H 
ATOM     62  H35 Q4D d   1       6.954   2.755 104.872  0.00  0.00     0.080 H 
ATOM     63  H36 Q4D d   1       4.618   1.054 103.698  0.00  0.00     0.076 H 
ATOM     64  H37 Q4D d   1       4.879   3.523 105.614  0.00  0.00     0.041 H 
ATOM     65  H38 Q4D d   1       3.693   2.203 105.887  0.00  0.00     0.041 H 
ATOM     66  H39 Q4D d   1       3.697   3.913 103.359  0.00  0.00     0.064 H 
ATOM     67  H40 Q4D d   1       2.791   4.375 104.840  0.00  0.00     0.064 H 
ATOM     68  H44 Q4D d   1       3.873   2.564 101.887  0.00  0.00     0.053 H 
ATOM     69  H45 Q4D d   1       2.715   3.848 101.400  0.00  0.00     0.053 H 
ENDROOT
BRANCH  36  70
ATOM     70  O2  Q4D d   1       1.346   2.324  99.690  0.00  0.00    -0.375 OA
ATOM     71  H46 Q4D d   1       0.716   1.976 100.310  0.00  0.00     0.211 HD
ENDBRANCH  36  70
BRANCH  36  72
ATOM     72  C33 Q4D d   1       2.857   0.543 100.220  0.00  0.00     0.271 C 
ATOM     73  O5  Q4D d   1       2.257  -0.193  99.429  0.00  0.00    -0.269 OA
ATOM     74  N3  Q4D d   1       3.708   0.117 101.154  0.00  0.00    -0.238 N 
ATOM     75  H47 Q4D d   1       4.122   0.796 101.760  0.00  0.00     0.183 HD
BRANCH  74  76
ATOM     76  S1  Q4D d   1       4.112  -1.451 101.363  0.00  0.00     0.304 S 
ATOM     77  O6  Q4D d   1       5.491  -1.517 101.920  0.00  0.00    -0.188 OA
ATOM     78  O7  Q4D d   1       4.106  -2.180 100.062  0.00  0.00    -0.188 OA
BRANCH  76  79
ATOM     79  N4  Q4D d   1       3.124  -2.225 102.440  0.00  0.00    -0.201 NA
BRANCH  79  80
ATOM     80  C40 Q4D d   1       1.703  -2.177 102.060  0.00  0.00    -0.018 C 
ATOM     81  H48 Q4D d   1       1.104  -2.708 102.814  0.00  0.00     0.050 H 
ATOM     82  H49 Q4D d   1       1.569  -2.659 101.080  0.00  0.00     0.050 H 
ATOM     83  H50 Q4D d   1       1.374  -1.129 102.001  0.00  0.00     0.050 H 
ENDBRANCH  79  80
BRANCH  79  84
ATOM     84  C39 Q4D d   1       3.285  -1.661 103.795  0.00  0.00    -0.018 C 
ATOM     85  H51 Q4D d   1       2.620  -2.190 104.494  0.00  0.00     0.050 H 
ATOM     86  H52 Q4D d   1       3.026  -0.592 103.780  0.00  0.00     0.050 H 
ATOM     87  H53 Q4D d   1       4.329  -1.781 104.121  0.00  0.00     0.050 H 
ENDBRANCH  79  84
ENDBRANCH  76  79
ENDBRANCH  74  76
ENDBRANCH  36  72
BRANCH  27  88
ATOM     88  O4  Q4D d   1       8.095   0.332 104.415  0.00  0.00    -0.380 OA
BRANCH  88  89
ATOM     89  C34 Q4D d   1       7.374  -0.795 105.006  0.00  0.00     0.043 C 
ATOM     90  H26 Q4D d   1       7.141  -1.546 104.237  0.00  0.00     0.076 H 
ATOM     91  H27 Q4D d   1       6.441  -0.449 105.475  0.00  0.00     0.076 H 
BRANCH  89  92
ATOM     92  C35 Q4D d   1       8.314  -1.389 106.063  0.00  0.00     0.103 C 
ATOM     93  H28 Q4D d   1       7.805  -2.214 106.583  0.00  0.00     0.079 H 
ATOM     94  H29 Q4D d   1       8.587  -0.610 106.790  0.00  0.00     0.079 H 
BRANCH  92  95
ATOM     95  N5  Q4D d   1       9.533  -1.899 105.411  0.00  0.00    -0.058 N 
ATOM     96  C36 Q4D d   1      10.578  -0.856 105.245  0.00  0.00     0.145 C 
ATOM     97  C37 Q4D d   1      11.587  -1.866 105.796  0.00  0.00     0.291 C 
ATOM     98  H31 Q4D d   1      10.437   0.038 105.871  0.00  0.00     0.085 H 
ATOM     99  H32 Q4D d   1      10.758  -0.550 104.204  0.00  0.00     0.085 H 
ATOM    100  F1  Q4D d   1      12.391  -1.333 106.703  0.00  0.00    -0.203 F 
ATOM    101  F2  Q4D d   1      12.257  -2.477 104.819  0.00  0.00    -0.203 F 
ATOM    102  C38 Q4D d   1      10.397  -2.623 106.376  0.00  0.00     0.145 C 
ATOM    103  H33 Q4D d   1      10.433  -3.712 106.229  0.00  0.00     0.085 H 
ATOM    104  H34 Q4D d   1      10.186  -2.402 107.433  0.00  0.00     0.085 H 
ATOM    105  H30 Q4D d   1       9.305  -2.408 104.572  0.00  0.00     0.280 HD
ENDBRANCH  92  95
ENDBRANCH  89  92
ENDBRANCH  88  89
ENDBRANCH  27  88
BRANCH  32 106
ATOM    106  C32 Q4D d   1       1.091   2.141 104.828  0.00  0.00    -0.016 C 
ATOM    107  H41 Q4D d   1       0.363   1.502 104.306  0.00  0.00     0.056 H 
ATOM    108  H42 Q4D d   1       0.568   2.991 105.291  0.00  0.00     0.056 H 
ATOM    109  H43 Q4D d   1       1.600   1.555 105.608  0.00  0.00     0.056 H 
ENDBRANCH  32 106
TORSDOF 11
