REMARK  9 active torsions:
REMARK  status: ('A' for Active; 'I' for Inactive)
REMARK    1  A    between atoms: C22_27  and  O4_28 
REMARK    2  A    between atoms: O4_28  and  C34_29 
REMARK    3  A    between atoms: N2_34  and  C32_35 
REMARK    4  A    between atoms: C23_39  and  O2_40 
REMARK    5  A    between atoms: C23_39  and  C33_41 
REMARK       I    between atoms: C33_41  and  N3_43 
REMARK    6  A    between atoms: N3_43  and  S1_44 
REMARK    7  A    between atoms: S1_44  and  N4_47 
REMARK    8  A    between atoms: N4_47  and  C36_48 
REMARK    9  A    between atoms: N4_47  and  C35_49 
ROOT
ATOM      1  C4  Q4S d   1       9.311   1.480  96.599  0.00  0.00    -0.050 C 
ATOM      2  C3  Q4S d   1      10.761   1.505  97.085  0.00  0.00    -0.060 C 
ATOM      3  C2  Q4S d   1      11.624   2.231  96.059  0.00  0.00    -0.040 C 
ATOM      4  C13 Q4S d   1      11.020   3.602  95.780  0.00  0.00    -0.049 A 
ATOM      5  C18 Q4S d   1      11.874   4.558  95.244  0.00  0.00    -0.055 A 
ATOM      6  C17 Q4S d   1      11.420   5.839  94.962  0.00  0.00     0.034 A 
ATOM      7 CL1  Q4S d   1      12.498   7.010  94.308  0.00  0.00    -0.084 Cl
ATOM      8  C16 Q4S d   1      10.108   6.193  95.220  0.00  0.00    -0.061 A 
ATOM      9  C15 Q4S d   1       9.248   5.234  95.750  0.00  0.00    -0.074 A 
ATOM     10  C14 Q4S d   1       9.681   3.939  96.031  0.00  0.00    -0.039 A 
ATOM     11  C1  Q4S d   1       8.687   2.896  96.624  0.00  0.00     0.025 C 
ATOM     12  C12 Q4S d   1       8.372   3.262  98.079  0.00  0.00     0.008 C 
ATOM     13  C11 Q4S d   1       7.356   2.834  95.827  0.00  0.00     0.038 C 
ATOM     14  O1  Q4S d   1       6.437   3.886  96.244  0.00  0.00    -0.348 OA
ATOM     15  C10 Q4S d   1       5.594   3.443  97.205  0.00  0.00     0.095 A 
ATOM     16  C5  Q4S d   1       4.263   3.740  96.918  0.00  0.00    -0.048 A 
ATOM     17  C6  Q4S d   1       3.257   3.354  97.802  0.00  0.00    -0.071 A 
ATOM     18  C7  Q4S d   1       3.597   2.670  98.967  0.00  0.00    -0.012 A 
ATOM     19  C8  Q4S d   1       4.932   2.365  99.233  0.00  0.00    -0.045 A 
ATOM     20  C9  Q4S d   1       5.960   2.748  98.362  0.00  0.00     0.064 A 
ATOM     21  N1  Q4S d   1       7.242   2.502  98.651  0.00  0.00    -0.377 N 
ATOM     22  C19 Q4S d   1       7.703   1.680  99.801  0.00  0.00    -0.001 C 
ATOM     23  C20 Q4S d   1       7.567   2.456 101.126  0.00  0.00    -0.033 C 
ATOM     24  C31 Q4S d   1       8.774   3.395 101.376  0.00  0.00    -0.059 C 
ATOM     25  C30 Q4S d   1       8.906   2.774 102.781  0.00  0.00    -0.058 C 
ATOM     26  C21 Q4S d   1       8.053   1.593 102.303  0.00  0.00    -0.021 C 
ATOM     27  C22 Q4S d   1       6.957   1.185 103.311  0.00  0.00     0.058 C 
ATOM     28  C29 Q4S d   1       6.220   2.165 103.991  0.00  0.00    -0.079 C 
ATOM     29  C28 Q4S d   1       4.839   2.022 104.134  0.00  0.00    -0.103 C 
ATOM     30  C27 Q4S d   1       3.998   3.059 104.877  0.00  0.00    -0.035 C 
ATOM     31  C26 Q4S d   1       3.006   3.776 103.962  0.00  0.00     0.000 C 
ATOM     32  N2  Q4S d   1       1.877   2.904 103.601  0.00  0.00    -0.356 N 
ATOM     33  C25 Q4S d   1       1.670   2.486 102.346  0.00  0.00     0.223 C 
ATOM     34  O3  Q4S d   1       0.730   1.754 102.025  0.00  0.00    -0.273 OA
ATOM     35  C24 Q4S d   1       2.698   2.950 101.292  0.00  0.00     0.051 C 
ATOM     36  C23 Q4S d   1       2.518   2.205  99.958  0.00  0.00     0.174 C 
ATOM     37  H1  Q4S d   1       8.725   0.818  97.253  0.00  0.00     0.034 H 
ATOM     38  H2  Q4S d   1       9.284   1.095  95.569  0.00  0.00     0.034 H 
ATOM     39  H3  Q4S d   1      11.125   0.474  97.208  0.00  0.00     0.033 H 
ATOM     40  H4  Q4S d   1      10.816   2.031  98.049  0.00  0.00     0.033 H 
ATOM     41  H5  Q4S d   1      11.658   1.647  95.127  0.00  0.00     0.040 H 
ATOM     42  H6  Q4S d   1      12.643   2.351  96.454  0.00  0.00     0.040 H 
ATOM     43  H7  Q4S d   1      12.908   4.300  95.044  0.00  0.00     0.086 H 
ATOM     44  H8  Q4S d   1       9.756   7.197  95.014  0.00  0.00     0.086 H 
ATOM     45  H9  Q4S d   1       8.216   5.501  95.949  0.00  0.00     0.084 H 
ATOM     46  H10 Q4S d   1       8.127   4.333  98.122  0.00  0.00     0.066 H 
ATOM     47  H11 Q4S d   1       9.267   3.065  98.688  0.00  0.00     0.066 H 
ATOM     48  H12 Q4S d   1       6.882   1.856  95.998  0.00  0.00     0.076 H 
ATOM     49  H13 Q4S d   1       7.574   2.954  94.756  0.00  0.00     0.076 H 
ATOM     50  H14 Q4S d   1       4.010   4.271  96.007  0.00  0.00     0.087 H 
ATOM     51  H15 Q4S d   1       2.220   3.584  97.585  0.00  0.00     0.084 H 
ATOM     52  H16 Q4S d   1       5.180   1.818 100.136  0.00  0.00     0.088 H 
ATOM     53  H17 Q4S d   1       8.758   1.410  99.650  0.00  0.00     0.064 H 
ATOM     54  H18 Q4S d   1       7.094   0.765  99.856  0.00  0.00     0.064 H 
ATOM     55  H19 Q4S d   1       6.571   2.912 101.231  0.00  0.00     0.043 H 
ATOM     56  H20 Q4S d   1       8.526   4.467 101.373  0.00  0.00     0.033 H 
ATOM     57  H21 Q4S d   1       9.635   3.216 100.716  0.00  0.00     0.033 H 
ATOM     58  H22 Q4S d   1       8.448   3.369 103.585  0.00  0.00     0.033 H 
ATOM     59  H23 Q4S d   1       9.935   2.506 103.064  0.00  0.00     0.033 H 
ATOM     60  H24 Q4S d   1       8.628   0.704 102.003  0.00  0.00     0.045 H 
ATOM     61  H25 Q4S d   1       6.236   0.543 102.784  0.00  0.00     0.090 H 
ATOM     62  H29 Q4S d   1       6.724   3.036 104.407  0.00  0.00     0.080 H 
ATOM     63  H30 Q4S d   1       4.348   1.149 103.705  0.00  0.00     0.076 H 
ATOM     64  H31 Q4S d   1       4.672   3.807 105.321  0.00  0.00     0.041 H 
ATOM     65  H32 Q4S d   1       3.437   2.551 105.675  0.00  0.00     0.041 H 
ATOM     66  H33 Q4S d   1       3.526   4.085 103.044  0.00  0.00     0.064 H 
ATOM     67  H34 Q4S d   1       2.619   4.665 104.481  0.00  0.00     0.064 H 
ATOM     68  H38 Q4S d   1       3.712   2.758 101.674  0.00  0.00     0.053 H 
ATOM     69  H39 Q4S d   1       2.569   4.029 101.118  0.00  0.00     0.053 H 
ENDROOT
BRANCH  36  70
ATOM     70  O2  Q4S d   1       1.185   2.423  99.474  0.00  0.00    -0.375 OA
ATOM     71  H40 Q4S d   1       0.561   2.095 100.110  0.00  0.00     0.211 HD
ENDBRANCH  36  70
BRANCH  36  72
ATOM     72  C33 Q4S d   1       2.683   0.678 100.069  0.00  0.00     0.271 C 
ATOM     73  O5  Q4S d   1       2.086  -0.054  99.275  0.00  0.00    -0.269 OA
ATOM     74  N3  Q4S d   1       3.510   0.240 101.020  0.00  0.00    -0.238 N 
ATOM     75  H41 Q4S d   1       3.945   0.904 101.629  0.00  0.00     0.183 HD
BRANCH  74  76
ATOM     76  S1  Q4S d   1       3.831  -1.341 101.218  0.00  0.00     0.304 S 
ATOM     77  O6  Q4S d   1       3.722  -2.090  99.924  0.00  0.00    -0.188 OA
ATOM     78  O7  Q4S d   1       5.229  -1.445 101.715  0.00  0.00    -0.188 OA
BRANCH  76  79
ATOM     79  N4  Q4S d   1       2.835  -2.015 102.326  0.00  0.00    -0.201 NA
BRANCH  79  80
ATOM     80  C36 Q4S d   1       2.902  -1.239 103.576  0.00  0.00    -0.018 C 
ATOM     81  H42 Q4S d   1       2.233  -1.690 104.324  0.00  0.00     0.050 H 
ATOM     82  H43 Q4S d   1       2.589  -0.203 103.381  0.00  0.00     0.050 H 
ATOM     83  H44 Q4S d   1       3.934  -1.245 103.957  0.00  0.00     0.050 H 
ENDBRANCH  79  80
BRANCH  79  84
ATOM     84  C35 Q4S d   1       1.453  -2.068 101.825  0.00  0.00    -0.018 C 
ATOM     85  H45 Q4S d   1       0.804  -2.525 102.587  0.00  0.00     0.050 H 
ATOM     86  H46 Q4S d   1       1.419  -2.671 100.906  0.00  0.00     0.050 H 
ATOM     87  H47 Q4S d   1       1.102  -1.048 101.608  0.00  0.00     0.050 H 
ENDBRANCH  79  84
ENDBRANCH  76  79
ENDBRANCH  74  76
ENDBRANCH  36  72
BRANCH  27  88
ATOM     88  O4  Q4S d   1       7.681   0.426 104.307  0.00  0.00    -0.387 OA
BRANCH  88  89
ATOM     89  C34 Q4S d   1       6.899  -0.658 104.861  0.00  0.00     0.005 C 
ATOM     90  H26 Q4S d   1       7.498  -1.197 105.609  0.00  0.00     0.066 H 
ATOM     91  H27 Q4S d   1       6.609  -1.349 104.056  0.00  0.00     0.066 H 
ATOM     92  H28 Q4S d   1       5.995  -0.252 105.339  0.00  0.00     0.066 H 
ENDBRANCH  88  89
ENDBRANCH  27  88
BRANCH  32  93
ATOM     93  C32 Q4S d   1       0.886   2.434 104.577  0.00  0.00    -0.016 C 
ATOM     94  H35 Q4S d   1       0.144   1.799 104.070  0.00  0.00     0.056 H 
ATOM     95  H36 Q4S d   1       0.380   3.299 105.031  0.00  0.00     0.056 H 
ATOM     96  H37 Q4S d   1       1.391   1.852 105.362  0.00  0.00     0.056 H 
ENDBRANCH  32  93
TORSDOF 9
