REMARK  4 active torsions:
REMARK  status: ('A' for Active; 'I' for Inactive)
REMARK    1  A    between atoms: C22_27  and  O4_28 
REMARK    2  A    between atoms: N2_33  and  C32_34 
REMARK    3  A    between atoms: C23_38  and  C33_39 
REMARK    4  A    between atoms: C23_38  and  O2_42 
ROOT
ATOM      1  C4  Q4V d   1       9.398   1.486  96.607  0.00  0.00    -0.050 C 
ATOM      2  C3  Q4V d   1      10.862   1.488  97.029  0.00  0.00    -0.060 C 
ATOM      3  C2  Q4V d   1      11.686   2.244  96.007  0.00  0.00    -0.040 C 
ATOM      4  C13 Q4V d   1      11.101   3.616  95.731  0.00  0.00    -0.049 A 
ATOM      5  C18 Q4V d   1      11.944   4.575  95.191  0.00  0.00    -0.055 A 
ATOM      6  C17 Q4V d   1      11.478   5.850  94.928  0.00  0.00     0.034 A 
ATOM      7 CL1  Q4V d   1      12.570   6.990  94.267  0.00  0.00    -0.084 Cl
ATOM      8  C16 Q4V d   1      10.167   6.187  95.179  0.00  0.00    -0.061 A 
ATOM      9  C15 Q4V d   1       9.326   5.238  95.724  0.00  0.00    -0.074 A 
ATOM     10  C14 Q4V d   1       9.772   3.954  95.996  0.00  0.00    -0.039 A 
ATOM     11  C1  Q4V d   1       8.798   2.909  96.591  0.00  0.00     0.025 C 
ATOM     12  C12 Q4V d   1       8.423   3.287  98.019  0.00  0.00     0.008 C 
ATOM     13  C11 Q4V d   1       7.496   2.873  95.778  0.00  0.00     0.038 C 
ATOM     14  O1  Q4V d   1       6.563   3.922  96.196  0.00  0.00    -0.348 OA
ATOM     15  C10 Q4V d   1       5.686   3.491  97.158  0.00  0.00     0.095 A 
ATOM     16  C5  Q4V d   1       4.353   3.819  96.915  0.00  0.00    -0.048 A 
ATOM     17  C6  Q4V d   1       3.349   3.415  97.797  0.00  0.00    -0.071 A 
ATOM     18  C7  Q4V d   1       3.694   2.697  98.934  0.00  0.00    -0.011 A 
ATOM     19  C8  Q4V d   1       5.031   2.378  99.166  0.00  0.00    -0.045 A 
ATOM     20  C9  Q4V d   1       6.039   2.766  98.287  0.00  0.00     0.064 A 
ATOM     21  N1  Q4V d   1       7.312   2.501  98.559  0.00  0.00    -0.377 N 
ATOM     22  C19 Q4V d   1       7.714   1.652  99.715  0.00  0.00    -0.001 C 
ATOM     23  C20 Q4V d   1       7.655   2.419 101.068  0.00  0.00    -0.033 C 
ATOM     24  C31 Q4V d   1       8.889   3.299 101.360  0.00  0.00    -0.059 C 
ATOM     25  C30 Q4V d   1       8.899   2.711 102.781  0.00  0.00    -0.058 C 
ATOM     26  C21 Q4V d   1       8.124   1.515 102.227  0.00  0.00    -0.021 C 
ATOM     27  C22 Q4V d   1       7.009   0.992 103.137  0.00  0.00     0.055 C 
ATOM     28  C29 Q4V d   1       6.273   2.080 103.920  0.00  0.00    -0.079 C 
ATOM     29  C28 Q4V d   1       4.894   1.979 104.053  0.00  0.00    -0.103 C 
ATOM     30  C27 Q4V d   1       4.093   3.025 104.825  0.00  0.00    -0.035 C 
ATOM     31  C26 Q4V d   1       3.110   3.739 103.915  0.00  0.00     0.000 C 
ATOM     32  N2  Q4V d   1       1.998   2.846 103.575  0.00  0.00    -0.356 N 
ATOM     33  C25 Q4V d   1       1.810   2.374 102.340  0.00  0.00     0.223 C 
ATOM     34  O3  Q4V d   1       0.899   1.597 102.024  0.00  0.00    -0.273 OA
ATOM     35  C24 Q4V d   1       2.850   2.845 101.293  0.00  0.00     0.052 C 
ATOM     36  C23 Q4V d   1       2.635   2.205  99.935  0.00  0.00     0.181 C 
ATOM     37  H1  Q4V d   1       8.826   0.867  97.314  0.00  0.00     0.034 H 
ATOM     38  H2  Q4V d   1       9.320   1.056  95.597  0.00  0.00     0.034 H 
ATOM     39  H3  Q4V d   1      11.225   0.452  97.097  0.00  0.00     0.033 H 
ATOM     40  H4  Q4V d   1      10.959   1.976  98.010  0.00  0.00     0.033 H 
ATOM     41  H5  Q4V d   1      11.709   1.669  95.069  0.00  0.00     0.040 H 
ATOM     42  H6  Q4V d   1      12.710   2.362  96.390  0.00  0.00     0.040 H 
ATOM     43  H7  Q4V d   1      12.976   4.324  94.973  0.00  0.00     0.086 H 
ATOM     44  H8  Q4V d   1       9.801   7.182  94.952  0.00  0.00     0.086 H 
ATOM     45  H9  Q4V d   1       8.298   5.502  95.943  0.00  0.00     0.084 H 
ATOM     46  H10 Q4V d   1       8.138   4.349  98.034  0.00  0.00     0.066 H 
ATOM     47  H11 Q4V d   1       9.302   3.134  98.662  0.00  0.00     0.066 H 
ATOM     48  H12 Q4V d   1       7.016   1.893  95.918  0.00  0.00     0.076 H 
ATOM     49  H13 Q4V d   1       7.737   3.014  94.714  0.00  0.00     0.076 H 
ATOM     50  H14 Q4V d   1       4.094   4.393  96.033  0.00  0.00     0.087 H 
ATOM     51  H15 Q4V d   1       2.312   3.659  97.596  0.00  0.00     0.084 H 
ATOM     52  H16 Q4V d   1       5.293   1.813 100.053  0.00  0.00     0.088 H 
ATOM     53  H17 Q4V d   1       8.744   1.301  99.553  0.00  0.00     0.064 H 
ATOM     54  H18 Q4V d   1       7.036   0.787  99.770  0.00  0.00     0.064 H 
ATOM     55  H19 Q4V d   1       6.681   2.913 101.198  0.00  0.00     0.043 H 
ATOM     56  H20 Q4V d   1       8.700   4.382 101.314  0.00  0.00     0.033 H 
ATOM     57  H21 Q4V d   1       9.777   3.056 100.758  0.00  0.00     0.033 H 
ATOM     58  H22 Q4V d   1       8.351   3.306 103.526  0.00  0.00     0.033 H 
ATOM     59  H23 Q4V d   1       9.899   2.468 103.169  0.00  0.00     0.033 H 
ATOM     60  H24 Q4V d   1       8.758   0.672 101.913  0.00  0.00     0.045 H 
ATOM     61  H25 Q4V d   1       6.278   0.440 102.528  0.00  0.00     0.089 H 
ATOM     62  H27 Q4V d   1       6.817   2.913 104.362  0.00  0.00     0.080 H 
ATOM     63  H28 Q4V d   1       4.374   1.137 103.598  0.00  0.00     0.076 H 
ATOM     64  H29 Q4V d   1       4.786   3.763 105.255  0.00  0.00     0.041 H 
ATOM     65  H30 Q4V d   1       3.538   2.528 105.634  0.00  0.00     0.041 H 
ATOM     66  H31 Q4V d   1       3.625   4.046 102.993  0.00  0.00     0.064 H 
ATOM     67  H32 Q4V d   1       2.718   4.629 104.430  0.00  0.00     0.064 H 
ATOM     68  H36 Q4V d   1       3.856   2.582 101.652  0.00  0.00     0.053 H 
ATOM     69  H37 Q4V d   1       2.773   3.937 101.185  0.00  0.00     0.053 H 
ENDROOT
BRANCH  36  70
ATOM     70  C33 Q4V d   1       2.806   0.678 100.052  0.00  0.00     0.214 C 
ATOM     71  O6  Q4V d   1       3.548   0.272 100.976  0.00  0.00    -0.645 OA
ATOM     72  O5  Q4V d   1       2.232  -0.056  99.217  0.00  0.00    -0.645 OA
ENDBRANCH  36  70
BRANCH  36  73
ATOM     73  O2  Q4V d   1       1.327   2.512  99.474  0.00  0.00    -0.374 OA
ATOM     74  H38 Q4V d   1       0.688   2.174 100.090  0.00  0.00     0.211 HD
ENDBRANCH  36  73
BRANCH  27  75
ATOM     75  O4  Q4V d   1       7.640   0.104 104.093  0.00  0.00    -0.391 OA
ATOM     76  H26 Q4V d   1       6.981  -0.246 104.681  0.00  0.00     0.210 HD
ENDBRANCH  27  75
BRANCH  32  77
ATOM     77  C32 Q4V d   1       1.023   2.393 104.580  0.00  0.00    -0.016 C 
ATOM     78  H33 Q4V d   1       0.283   1.735 104.102  0.00  0.00     0.056 H 
ATOM     79  H34 Q4V d   1       0.512   3.265 105.014  0.00  0.00     0.056 H 
ATOM     80  H35 Q4V d   1       1.546   1.841 105.375  0.00  0.00     0.056 H 
ENDBRANCH  32  77
TORSDOF 4
