REMARK  3 active torsions:
REMARK  status: ('A' for Active; 'I' for Inactive)
REMARK    1  A    between atoms: N2_29  and  C24_30 
REMARK    2  A    between atoms: C19_34  and  C20_35 
REMARK    3  A    between atoms: C19_34  and  O2_38 
ROOT
ATOM      1  C9  Q4Y d   1       9.353   1.546  96.829  0.00  0.00    -0.050 C 
ATOM      2  C8  Q4Y d   1      10.829   1.578  97.273  0.00  0.00    -0.060 C 
ATOM      3  C7  Q4Y d   1      11.677   2.351  96.278  0.00  0.00    -0.040 C 
ATOM      4  C4  Q4Y d   1      11.034   3.688  95.965  0.00  0.00    -0.049 A 
ATOM      5  C3  Q4Y d   1      11.872   4.643  95.406  0.00  0.00    -0.055 A 
ATOM      6  C2  Q4Y d   1      11.402   5.898  95.066  0.00  0.00     0.034 A 
ATOM      7 CL1  Q4Y d   1      12.494   7.046  94.389  0.00  0.00    -0.084 Cl
ATOM      8  C1  Q4Y d   1      10.080   6.244  95.308  0.00  0.00    -0.061 A 
ATOM      9  C6  Q4Y d   1       9.239   5.289  95.870  0.00  0.00    -0.074 A 
ATOM     10  C5  Q4Y d   1       9.694   4.009  96.198  0.00  0.00    -0.039 A 
ATOM     11  C10 Q4Y d   1       8.723   2.969  96.817  0.00  0.00     0.025 C 
ATOM     12  C14 Q4Y d   1       8.395   3.354  98.245  0.00  0.00     0.008 C 
ATOM     13  C11 Q4Y d   1       7.393   2.937  96.015  0.00  0.00     0.038 C 
ATOM     14  O1  Q4Y d   1       6.416   3.911  96.502  0.00  0.00    -0.348 OA
ATOM     15  C12 Q4Y d   1       5.587   3.380  97.442  0.00  0.00     0.095 A 
ATOM     16  C15 Q4Y d   1       4.221   3.587  97.196  0.00  0.00    -0.048 A 
ATOM     17  C16 Q4Y d   1       3.267   3.077  98.078  0.00  0.00    -0.071 A 
ATOM     18  C17 Q4Y d   1       3.677   2.365  99.211  0.00  0.00    -0.011 A 
ATOM     19  C18 Q4Y d   1       5.044   2.166  99.432  0.00  0.00    -0.045 A 
ATOM     20  C13 Q4Y d   1       6.015   2.663  98.548  0.00  0.00     0.064 A 
ATOM     21  N1  Q4Y d   1       7.312   2.524  98.815  0.00  0.00    -0.378 N 
ATOM     22  C21 Q4Y d   1       7.764   1.766 100.004  0.00  0.00    -0.005 C 
ATOM     23  C30 Q4Y d   1       7.728   2.661 101.255  0.00  0.00    -0.050 C 
ATOM     24  C25 Q4Y d   1       8.036   1.803 102.495  0.00  0.00    -0.061 C 
ATOM     25  C26 Q4Y d   1       7.443   2.426 103.762  0.00  0.00    -0.050 C 
ATOM     26  C27 Q4Y d   1       6.082   2.164 103.866  0.00  0.00    -0.105 C 
ATOM     27  C29 Q4Y d   1       5.170   3.175 104.163  0.00  0.00    -0.090 C 
ATOM     28  C28 Q4Y d   1       3.806   2.864 104.239  0.00  0.00     0.012 C 
ATOM     29  N2  Q4Y d   1       3.041   3.767 103.358  0.00  0.00    -0.353 N 
ATOM     30  C23 Q4Y d   1       2.616   3.408 102.123  0.00  0.00     0.223 C 
ATOM     31  O5  Q4Y d   1       1.957   4.147 101.385  0.00  0.00    -0.273 OA
ATOM     32  C22 Q4Y d   1       2.959   1.985 101.665  0.00  0.00     0.052 C 
ATOM     33  C19 Q4Y d   1       2.657   1.715 100.197  0.00  0.00     0.181 C 
ATOM     34  H1  Q4Y d   1       8.785   0.911  97.525  0.00  0.00     0.034 H 
ATOM     35  H2  Q4Y d   1       9.295   1.122  95.816  0.00  0.00     0.034 H 
ATOM     36  H3  Q4Y d   1      11.206   0.547  97.344  0.00  0.00     0.033 H 
ATOM     37  H4  Q4Y d   1      10.898   2.062  98.258  0.00  0.00     0.033 H 
ATOM     38  H5  Q4Y d   1      11.770   1.767  95.350  0.00  0.00     0.040 H 
ATOM     39  H6  Q4Y d   1      12.676   2.520  96.707  0.00  0.00     0.040 H 
ATOM     40  H7  Q4Y d   1      12.914   4.400  95.233  0.00  0.00     0.086 H 
ATOM     41  H8  Q4Y d   1       9.712   7.234  95.065  0.00  0.00     0.086 H 
ATOM     42  H9  Q4Y d   1       8.203   5.545  96.059  0.00  0.00     0.084 H 
ATOM     43  H10 Q4Y d   1       8.080   4.408  98.264  0.00  0.00     0.066 H 
ATOM     44  H11 Q4Y d   1       9.298   3.230  98.861  0.00  0.00     0.066 H 
ATOM     45  H12 Q4Y d   1       6.957   1.930  96.097  0.00  0.00     0.076 H 
ATOM     46  H13 Q4Y d   1       7.613   3.157  94.960  0.00  0.00     0.076 H 
ATOM     47  H14 Q4Y d   1       3.906   4.143  96.320  0.00  0.00     0.087 H 
ATOM     48  H15 Q4Y d   1       2.212   3.232  97.886  0.00  0.00     0.084 H 
ATOM     49  H16 Q4Y d   1       5.362   1.614 100.309  0.00  0.00     0.088 H 
ATOM     50  H17 Q4Y d   1       8.793   1.414  99.840  0.00  0.00     0.064 H 
ATOM     51  H18 Q4Y d   1       7.101   0.902 100.157  0.00  0.00     0.064 H 
ATOM     52  H19 Q4Y d   1       6.730   3.112 101.357  0.00  0.00     0.035 H 
ATOM     53  H20 Q4Y d   1       8.482   3.457 101.161  0.00  0.00     0.035 H 
ATOM     54  H21 Q4Y d   1       9.127   1.721 102.612  0.00  0.00     0.033 H 
ATOM     55  H22 Q4Y d   1       7.606   0.800 102.353  0.00  0.00     0.033 H 
ATOM     56  H23 Q4Y d   1       7.597   3.515 103.731  0.00  0.00     0.038 H 
ATOM     57  H24 Q4Y d   1       7.956   2.008 104.641  0.00  0.00     0.038 H 
ATOM     58  H25 Q4Y d   1       5.721   1.148 103.712  0.00  0.00     0.076 H 
ATOM     59  H26 Q4Y d   1       5.513   4.194 104.334  0.00  0.00     0.078 H 
ATOM     60  H27 Q4Y d   1       3.460   2.986 105.276  0.00  0.00     0.070 H 
ATOM     61  H28 Q4Y d   1       3.650   1.823 103.920  0.00  0.00     0.070 H 
ATOM     62  H32 Q4Y d   1       2.377   1.277 102.273  0.00  0.00     0.053 H 
ATOM     63  H33 Q4Y d   1       4.033   1.817 101.833  0.00  0.00     0.053 H 
ENDROOT
BRANCH  33  64
ATOM     64  C20 Q4Y d   1       2.742   0.179  99.954  0.00  0.00     0.214 C 
ATOM     65  O4  Q4Y d   1       1.982  -0.299  99.086  0.00  0.00    -0.645 OA
ATOM     66  O3  Q4Y d   1       3.595  -0.495 100.593  0.00  0.00    -0.645 OA
ENDBRANCH  33  64
BRANCH  33  67
ATOM     67  O2  Q4Y d   1       1.309   2.127  99.896  0.00  0.00    -0.374 OA
ATOM     68  H34 Q4Y d   1       1.216   3.056 100.072  0.00  0.00     0.211 HD
ENDBRANCH  33  67
BRANCH  29  69
ATOM     69  C24 Q4Y d   1       2.685   5.134 103.768  0.00  0.00    -0.016 C 
ATOM     70  H29 Q4Y d   1       2.119   5.623 102.961  0.00  0.00     0.056 H 
ATOM     71  H30 Q4Y d   1       3.602   5.706 103.972  0.00  0.00     0.056 H 
ATOM     72  H31 Q4Y d   1       2.067   5.095 104.677  0.00  0.00     0.056 H 
ENDBRANCH  29  69
TORSDOF 3
