REMARK  3 active torsions:
REMARK  status: ('A' for Active; 'I' for Inactive)
REMARK    1  A    between atoms: C25_27  and  O3_28 
REMARK    2  A    between atoms: C29_32  and  C31_33 
REMARK    3  A    between atoms: C28_34  and  C32_35 
ROOT
ATOM      1  C14 Q51 d   1       9.211   1.397  96.931  0.00  0.00    -0.050 C 
ATOM      2  C13 Q51 d   1      10.666   1.391  97.408  0.00  0.00    -0.060 C 
ATOM      3  C12 Q51 d   1      11.531   2.164  96.423  0.00  0.00    -0.040 C 
ATOM      4  C11 Q51 d   1      10.938   3.533  96.143  0.00  0.00    -0.049 A 
ATOM      5  C18 Q51 d   1      11.778   4.512  95.637  0.00  0.00    -0.055 A 
ATOM      6  C17 Q51 d   1      11.316   5.787  95.366  0.00  0.00     0.034 A 
ATOM      7 CL1  Q51 d   1      12.415   6.941  94.729  0.00  0.00    -0.084 Cl
ATOM      8  C16 Q51 d   1       9.986   6.099  95.590  0.00  0.00    -0.061 A 
ATOM      9  C15 Q51 d   1       9.145   5.130  96.089  0.00  0.00    -0.074 A 
ATOM     10  C10 Q51 d   1       9.587   3.853  96.369  0.00  0.00    -0.039 A 
ATOM     11  C8  Q51 d   1       8.592   2.820  96.927  0.00  0.00     0.025 C 
ATOM     12  C7  Q51 d   1       8.156   3.208  98.357  0.00  0.00     0.008 C 
ATOM     13  C9  Q51 d   1       7.324   2.766  96.063  0.00  0.00     0.038 C 
ATOM     14  O1  Q51 d   1       6.377   3.787  96.450  0.00  0.00    -0.348 OA
ATOM     15  C2  Q51 d   1       5.474   3.397  97.409  0.00  0.00     0.095 A 
ATOM     16  C3  Q51 d   1       4.154   3.778  97.146  0.00  0.00    -0.048 A 
ATOM     17  C4  Q51 d   1       3.136   3.422  98.016  0.00  0.00    -0.065 A 
ATOM     18  C5  Q51 d   1       3.408   2.668  99.145  0.00  0.00     0.035 A 
ATOM     19  C6  Q51 d   1       4.737   2.295  99.401  0.00  0.00    -0.039 A 
ATOM     20  C1  Q51 d   1       5.793   2.663  98.557  0.00  0.00     0.065 A 
ATOM     21  N1  Q51 d   1       7.092   2.298  98.816  0.00  0.00    -0.377 N 
ATOM     22  C20 Q51 d   1       7.418   1.539 100.077  0.00  0.00    -0.001 C 
ATOM     23  C21 Q51 d   1       7.309   2.356 101.390  0.00  0.00    -0.033 C 
ATOM     24  C24 Q51 d   1       8.507   3.250 101.739  0.00  0.00    -0.059 C 
ATOM     25  C23 Q51 d   1       8.390   2.740 103.193  0.00  0.00    -0.058 C 
ATOM     26  C22 Q51 d   1       7.697   1.499 102.614  0.00  0.00    -0.021 C 
ATOM     27  C25 Q51 d   1       6.499   0.940 103.420  0.00  0.00     0.055 C 
ATOM     28  C26 Q51 d   1       5.389   1.971 103.700  0.00  0.00    -0.079 C 
ATOM     29  C27 Q51 d   1       5.134   2.552 104.932  0.00  0.00    -0.104 C 
ATOM     30  C30 Q51 d   1       4.007   3.587 105.131  0.00  0.00    -0.046 C 
ATOM     31  C29 Q51 d   1       2.932   3.572 104.032  0.00  0.00    -0.037 C 
ATOM     32  C28 Q51 d   1       2.127   2.267 104.059  0.00  0.00     0.063 C 
ATOM     33  S1  Q51 d   1       1.334   1.975 102.438  0.00  0.00     0.237 S 
ATOM     34  O4  Q51 d   1       0.790   0.591 102.364  0.00  0.00    -0.205 OA
ATOM     35  O5  Q51 d   1       0.281   2.984 102.042  0.00  0.00    -0.205 OA
ATOM     36  N2  Q51 d   1       2.516   2.236 101.349  0.00  0.00    -0.250 N 
ATOM     37  C19 Q51 d   1       2.238   2.307 100.058  0.00  0.00     0.265 C 
ATOM     38  O2  Q51 d   1       1.130   2.042  99.564  0.00  0.00    -0.267 OA
ATOM     39  H1  Q51 d   1       8.618   0.756  97.600  0.00  0.00     0.034 H 
ATOM     40  H2  Q51 d   1       9.173   0.993  95.909  0.00  0.00     0.034 H 
ATOM     41  H3  Q51 d   1      11.025   0.353  97.474  0.00  0.00     0.033 H 
ATOM     42  H4  Q51 d   1      10.728   1.864  98.399  0.00  0.00     0.033 H 
ATOM     43  H5  Q51 d   1      11.597   1.600  95.481  0.00  0.00     0.040 H 
ATOM     44  H6  Q51 d   1      12.538   2.287  96.847  0.00  0.00     0.040 H 
ATOM     45  H7  Q51 d   1      12.819   4.274  95.450  0.00  0.00     0.086 H 
ATOM     46  H8  Q51 d   1       9.612   7.093  95.375  0.00  0.00     0.086 H 
ATOM     47  H9  Q51 d   1       8.105   5.377  96.267  0.00  0.00     0.084 H 
ATOM     48  H10 Q51 d   1       7.778   4.241  98.356  0.00  0.00     0.066 H 
ATOM     49  H11 Q51 d   1       9.019   3.133  99.035  0.00  0.00     0.066 H 
ATOM     50  H12 Q51 d   1       6.853   1.779  96.180  0.00  0.00     0.076 H 
ATOM     51  H13 Q51 d   1       7.602   2.917  95.010  0.00  0.00     0.076 H 
ATOM     52  H14 Q51 d   1       3.926   4.355  96.257  0.00  0.00     0.087 H 
ATOM     53  H15 Q51 d   1       2.119   3.736  97.811  0.00  0.00     0.085 H 
ATOM     54  H16 Q51 d   1       4.954   1.702 100.282  0.00  0.00     0.088 H 
ATOM     55  H17 Q51 d   1       8.450   1.168  99.993  0.00  0.00     0.064 H 
ATOM     56  H18 Q51 d   1       6.726   0.687 100.149  0.00  0.00     0.064 H 
ATOM     57  H19 Q51 d   1       6.331   2.857 101.444  0.00  0.00     0.043 H 
ATOM     58  H20 Q51 d   1       8.325   4.328 101.616  0.00  0.00     0.033 H 
ATOM     59  H21 Q51 d   1       9.444   2.977 101.233  0.00  0.00     0.033 H 
ATOM     60  H22 Q51 d   1       7.758   3.357 103.849  0.00  0.00     0.033 H 
ATOM     61  H23 Q51 d   1       9.351   2.542 103.691  0.00  0.00     0.033 H 
ATOM     62  H24 Q51 d   1       8.386   0.672 102.385  0.00  0.00     0.045 H 
ATOM     63  H25 Q51 d   1       6.044   0.137 102.822  0.00  0.00     0.089 H 
ATOM     64  H27 Q51 d   1       4.755   2.266 102.865  0.00  0.00     0.080 H 
ATOM     65  H28 Q51 d   1       5.748   2.269 105.786  0.00  0.00     0.076 H 
ATOM     66  H29 Q51 d   1       4.460   4.589 105.156  0.00  0.00     0.039 H 
ATOM     67  H30 Q51 d   1       3.517   3.382 106.094  0.00  0.00     0.039 H 
ATOM     68  H31 Q51 d   1       3.451   3.614 103.063  0.00  0.00     0.042 H 
ATOM     69  H35 Q51 d   1       2.837   1.446 104.234  0.00  0.00     0.066 H 
ATOM     70  H39 Q51 d   1       3.461   2.344 101.659  0.00  0.00     0.181 HD
ENDROOT
BRANCH  27  71
ATOM     71  O3  Q51 d   1       7.005   0.357 104.634  0.00  0.00    -0.391 OA
ATOM     72  H26 Q51 d   1       6.282   0.008 105.142  0.00  0.00     0.210 HD
ENDBRANCH  27  71
BRANCH  32  73
ATOM     73  C32 Q51 d   1       1.117   2.233 105.191  0.00  0.00    -0.058 C 
ATOM     74  H36 Q51 d   1       1.631   2.412 106.147  0.00  0.00     0.029 H 
ATOM     75  H37 Q51 d   1       0.628   1.248 105.217  0.00  0.00     0.029 H 
ATOM     76  H38 Q51 d   1       0.359   3.014 105.030  0.00  0.00     0.029 H 
ENDBRANCH  32  73
BRANCH  31  77
ATOM     77  C31 Q51 d   1       2.026   4.820 104.121  0.00  0.00    -0.071 C 
ATOM     78  H32 Q51 d   1       1.269   4.781 103.324  0.00  0.00     0.028 H 
ATOM     79  H33 Q51 d   1       2.638   5.726 104.002  0.00  0.00     0.028 H 
ATOM     80  H34 Q51 d   1       1.526   4.841 105.101  0.00  0.00     0.028 H 
ENDBRANCH  31  77
TORSDOF 3
