REMARK  6 active torsions:
REMARK  status: ('A' for Active; 'I' for Inactive)
REMARK    1  A    between atoms: C19_20  and  C20_1 
REMARK       I    between atoms: C14_15  and  N07_8 
REMARK    2  A    between atoms: C09_10  and  C11_12 
REMARK       I    between atoms: C11_12  and  N13_14 
REMARK    3  A    between atoms: C16_17  and  C14_15 
REMARK    4  A    between atoms: S17_18  and  C16_17 
REMARK    5  A    between atoms: C18_19  and  S17_18 
REMARK    6  A    between atoms: C18_19  and  C19_20 
ROOT
ATOM      1  C01 Q5G d   1      -8.374  -4.960  45.338  0.00  0.00    -0.081 A 
ATOM      2  C02 Q5G d   1      -8.985  -6.171  44.953  0.00  0.00    -0.080 A 
ATOM      3  C03 Q5G d   1      -8.712  -7.371  45.630  0.00  0.00    -0.048 A 
ATOM      4  C04 Q5G d   1      -7.813  -7.380  46.721  0.00  0.00     0.097 A 
ATOM      5  C05 Q5G d   1      -7.194  -6.172  47.117  0.00  0.00     0.070 A 
ATOM      6  C06 Q5G d   1      -7.484  -4.968  46.406  0.00  0.00    -0.054 A 
ATOM      7  N07 Q5G d   1      -6.272  -6.192  48.257  0.00  0.00    -0.312 N 
ATOM      8  C08 Q5G d   1      -6.372  -7.207  49.247  0.00  0.00     0.036 C 
ATOM      9  C09 Q5G d   1      -7.330  -8.352  48.910  0.00  0.00     0.137 C 
ATOM     10  O10 Q5G d   1      -7.489  -8.612  47.487  0.00  0.00    -0.333 OA
ATOM     11  C14 Q5G d   1      -5.220  -5.141  48.301  0.00  0.00     0.233 C 
ATOM     12  O15 Q5G d   1      -5.140  -4.284  47.434  0.00  0.00    -0.272 OA
ATOM     13  H1  Q5G d   1      -8.594  -4.039  44.810  0.00  0.00     0.083 H 
ATOM     14  H2  Q5G d   1      -9.678  -6.176  44.119  0.00  0.00     0.083 H 
ATOM     15  H3  Q5G d   1      -9.191  -8.291  45.316  0.00  0.00     0.087 H 
ATOM     16  H4  Q5G d   1      -7.002  -4.044  46.704  0.00  0.00     0.087 H 
ATOM     17  H5  Q5G d   1      -6.716  -6.739  50.181  0.00  0.00     0.069 H 
ATOM     18  H6  Q5G d   1      -5.370  -7.635  49.399  0.00  0.00     0.069 H 
ATOM     19  H7  Q5G d   1      -8.307  -8.023  49.294  0.00  0.00     0.101 H 
ENDROOT
BRANCH  11  20
ATOM     20  C16 Q5G d   1      -4.266  -5.116  49.507  0.00  0.00     0.051 C 
ATOM     21  H10 Q5G d   1      -3.319  -4.618  49.253  0.00  0.00     0.063 H 
ATOM     22  H11 Q5G d   1      -4.059  -6.133  49.870  0.00  0.00     0.063 H 
BRANCH  20  23
ATOM     23  S17 Q5G d   1      -5.214  -4.145  50.754  0.00  0.00    -0.159 SA
BRANCH  23  24
ATOM     24  C18 Q5G d   1      -5.551  -2.466  50.096  0.00  0.00    -0.014 C 
ATOM     25  H12 Q5G d   1      -6.637  -2.344  49.970  0.00  0.00     0.049 H 
ATOM     26  H13 Q5G d   1      -5.054  -2.359  49.120  0.00  0.00     0.049 H 
BRANCH  24  27
ATOM     27  C19 Q5G d   1      -5.033  -1.371  51.042  0.00  0.00     0.024 C 
ATOM     28  H14 Q5G d   1      -4.160  -1.775  51.576  0.00  0.00     0.050 H 
ATOM     29  H15 Q5G d   1      -4.722  -0.515  50.425  0.00  0.00     0.050 H 
BRANCH  27  30
ATOM     30  C20 Q5G d   1      -6.027  -0.854  52.093  0.00  0.00     0.173 C 
ATOM     31  O21 Q5G d   1      -7.136  -1.422  52.293  0.00  0.00    -0.648 OA
ATOM     32  O22 Q5G d   1      -5.738   0.161  52.781  0.00  0.00    -0.648 OA
ENDBRANCH  27  30
ENDBRANCH  24  27
ENDBRANCH  23  24
ENDBRANCH  20  23
ENDBRANCH  11  20
BRANCH   9  33
ATOM     33  C11 Q5G d   1      -7.052  -9.732  49.535  0.00  0.00     0.246 C 
ATOM     34  O12 Q5G d   1      -7.762 -10.635  49.193  0.00  0.00    -0.271 OA
ATOM     35  N13 Q5G d   1      -5.977  -9.957  50.496  0.00  0.00    -0.368 N 
ATOM     36  H8  Q5G d   1      -5.831 -10.870  50.878  0.00  0.00     0.159 HD
ATOM     37  H9  Q5G d   1      -5.387  -9.199  50.773  0.00  0.00     0.159 HD
ENDBRANCH   9  33
TORSDOF 6
