REMARK  2 active torsions:
REMARK  status: ('A' for Active; 'I' for Inactive)
REMARK    1  A    between atoms: C01_3  and  C14_1 
REMARK    2  A    between atoms: C03_5  and  C15_2 
ROOT
ATOM      1  C01 Q77 d   1      15.848   5.271  15.648  0.00  0.00    -0.060 A 
ATOM      2  C02 Q77 d   1      16.946   5.234  14.822  0.00  0.00    -0.069 A 
ATOM      3  C03 Q77 d   1      17.497   4.022  14.547  0.00  0.00    -0.033 A 
ATOM      4  C04 Q77 d   1      16.882   2.881  15.071  0.00  0.00     0.065 A 
ATOM      5  C05 Q77 d   1      15.802   2.855  15.920  0.00  0.00     0.107 A 
ATOM      6  C06 Q77 d   1      15.247   4.117  16.187  0.00  0.00    -0.052 A 
ATOM      7  C08 Q77 d   1      16.976   0.279  15.091  0.00  0.00     0.334 C 
ATOM      8  N07 Q77 d   1      17.578   1.580  14.641  0.00  0.00    -0.306 N 
ATOM      9  N09 Q77 d   1      15.798   0.198  15.910  0.00  0.00    -0.232 N 
ATOM     10  O11 Q77 d   1      17.486  -0.633  14.623  0.00  0.00    -0.246 OA
ATOM     11  O12 Q77 d   1      13.764   1.479  16.629  0.00  0.00    -0.200 OA
ATOM     12  O13 Q77 d   1      15.808   1.391  17.961  0.00  0.00    -0.200 OA
ATOM     13  S10 Q77 d   1      15.223   1.490  16.637  0.00  0.00     0.268 S 
ATOM     14  H7  Q77 d   1      17.360   6.144  14.402  0.00  0.00     0.085 H 
ATOM     15  H8  Q77 d   1      14.360   4.202  16.805  0.00  0.00     0.086 H 
ATOM     16  H9  Q77 d   1      18.405   1.599  14.079  0.00  0.00     0.171 HD
ATOM     17  H10 Q77 d   1      15.335  -0.681  16.024  0.00  0.00     0.183 HD
ENDROOT
BRANCH   1  18
ATOM     18  C14 Q77 d   1      15.326   6.658  15.990  0.00  0.00    -0.051 C 
ATOM     19  H1  Q77 d   1      15.930   7.416  15.470  0.00  0.00     0.033 H 
ATOM     20  H2  Q77 d   1      15.394   6.818  17.076  0.00  0.00     0.033 H 
ATOM     21  H3  Q77 d   1      14.277   6.744  15.672  0.00  0.00     0.033 H 
ENDBRANCH   1  18
BRANCH   3  22
ATOM     22  C15 Q77 d   1      18.692   3.912  13.602  0.00  0.00    -0.049 C 
ATOM     23  H4  Q77 d   1      19.021   4.920  13.309  0.00  0.00     0.033 H 
ATOM     24  H5  Q77 d   1      18.399   3.346  12.705  0.00  0.00     0.033 H 
ATOM     25  H6  Q77 d   1      19.516   3.391  14.112  0.00  0.00     0.033 H 
ENDBRANCH   3  22
TORSDOF 2
