REMARK  0 active torsions:
REMARK  status: ('A' for Active; 'I' for Inactive)
ROOT
ATOM      1  O11 Q7A d   1      17.415  -0.616  14.941  0.00  0.00    -0.246 OA
ATOM      2  O12 Q7A d   1      15.618   1.303  18.045  0.00  0.00    -0.200 OA
ATOM      3  O13 Q7A d   1      13.480   1.286  16.879  0.00  0.00    -0.200 OA
ATOM      4  C01 Q7A d   1      15.165   5.119  15.918  0.00  0.00    -0.080 C 
ATOM      5  C02 Q7A d   1      16.231   5.193  15.018  0.00  0.00    -0.060 C 
ATOM      6  C03 Q7A d   1      17.011   4.083  14.808  0.00  0.00     0.062 C 
ATOM      7  C04 Q7A d   1      16.523   2.873  15.285  0.00  0.00     0.081 C 
ATOM      8  C05 Q7A d   1      15.399   2.744  16.054  0.00  0.00     0.108 C 
ATOM      9  C06 Q7A d   1      14.696   3.878  16.342  0.00  0.00    -0.058 C 
ATOM     10  C08 Q7A d   1      16.804   0.267  15.323  0.00  0.00     0.334 C 
ATOM     11  N07 Q7A d   1      17.336   1.629  14.901  0.00  0.00    -0.305 N 
ATOM     12  N09 Q7A d   1      15.596   0.064  16.104  0.00  0.00    -0.232 N 
ATOM     13  S10 Q7A d   1      14.919   1.343  16.738  0.00  0.00     0.268 S 
ATOM     14 CL14 Q7A d   1      18.537   4.140  13.865  0.00  0.00    -0.082 Cl
ATOM     15  H1  Q7A d   1      14.703   6.028  16.286  0.00  0.00     0.083 H 
ATOM     16  H2  Q7A d   1      16.440   6.117  14.491  0.00  0.00     0.086 H 
ATOM     17  H3  Q7A d   1      13.770   3.812  16.902  0.00  0.00     0.086 H 
ATOM     18  H4  Q7A d   1      18.191   1.711  14.388  0.00  0.00     0.171 HD
ATOM     19  H5  Q7A d   1      15.209  -0.849  16.235  0.00  0.00     0.183 HD
ENDROOT
TORSDOF 0
