REMARK  0 active torsions:
REMARK  status: ('A' for Active; 'I' for Inactive)
ROOT
ATOM      1  C01 Q71 d   1      15.421   4.971  15.575  0.00  0.00     0.118 A 
ATOM      2  C02 Q71 d   1      16.547   4.952  14.794  0.00  0.00    -0.043 A 
ATOM      3  C03 Q71 d   1      17.122   3.741  14.564  0.00  0.00    -0.053 A 
ATOM      4  C04 Q71 d   1      16.521   2.635  15.156  0.00  0.00     0.059 A 
ATOM      5  C05 Q71 d   1      15.428   2.585  15.990  0.00  0.00     0.109 A 
ATOM      6  C06 Q71 d   1      14.842   3.845  16.155  0.00  0.00    -0.021 A 
ATOM      7  C08 Q71 d   1      16.680   0.093  15.212  0.00  0.00     0.334 C 
ATOM      8  F14 Q71 d   1      14.792   6.171  15.705  0.00  0.00    -0.206 F 
ATOM      9  N07 Q71 d   1      17.265   1.378  14.767  0.00  0.00    -0.307 N 
ATOM     10  N09 Q71 d   1      15.494  -0.006  15.991  0.00  0.00    -0.232 N 
ATOM     11  O11 Q71 d   1      17.165  -0.809  14.706  0.00  0.00    -0.246 OA
ATOM     12  O12 Q71 d   1      15.621   1.134  18.120  0.00  0.00    -0.200 OA
ATOM     13  O13 Q71 d   1      13.464   1.209  16.865  0.00  0.00    -0.200 OA
ATOM     14  S10 Q71 d   1      14.940   1.229  16.806  0.00  0.00     0.268 S 
ATOM     15  H1  Q71 d   1      16.962   5.863  14.377  0.00  0.00     0.088 H 
ATOM     16  H2  Q71 d   1      18.008   3.642  13.947  0.00  0.00     0.087 H 
ATOM     17  H3  Q71 d   1      13.933   3.945  16.737  0.00  0.00     0.090 H 
ATOM     18  H4  Q71 d   1      18.111   1.413  14.235  0.00  0.00     0.170 HD
ATOM     19  H5  Q71 d   1      15.001  -0.875  16.023  0.00  0.00     0.183 HD
ENDROOT
TORSDOF 0
