REMARK  0 active torsions:
REMARK  status: ('A' for Active; 'I' for Inactive)
ROOT
ATOM      1  C01 Q71 d   1     -26.478   5.336  15.637  0.00  0.00     0.118 A 
ATOM      2  C02 Q71 d   1     -25.331   5.298  14.888  0.00  0.00    -0.043 A 
ATOM      3  C03 Q71 d   1     -24.753   4.099  14.680  0.00  0.00    -0.053 A 
ATOM      4  C04 Q71 d   1     -25.371   2.997  15.242  0.00  0.00     0.059 A 
ATOM      5  C05 Q71 d   1     -26.492   2.956  16.052  0.00  0.00     0.109 A 
ATOM      6  C06 Q71 d   1     -27.079   4.222  16.213  0.00  0.00    -0.021 A 
ATOM      7  C08 Q71 d   1     -25.241   0.436  15.289  0.00  0.00     0.334 C 
ATOM      8  F14 Q71 d   1     -27.071   6.551  15.748  0.00  0.00    -0.206 F 
ATOM      9  N07 Q71 d   1     -24.623   1.722  14.908  0.00  0.00    -0.307 N 
ATOM     10  N09 Q71 d   1     -26.431   0.380  16.048  0.00  0.00    -0.232 N 
ATOM     11  O11 Q71 d   1     -24.714  -0.481  14.846  0.00  0.00    -0.246 OA
ATOM     12  O12 Q71 d   1     -26.317   1.516  18.154  0.00  0.00    -0.200 OA
ATOM     13  O13 Q71 d   1     -28.458   1.581  16.875  0.00  0.00    -0.200 OA
ATOM     14  S10 Q71 d   1     -26.994   1.591  16.857  0.00  0.00     0.268 S 
ATOM     15  H1  Q71 d   1     -24.902   6.204  14.476  0.00  0.00     0.088 H 
ATOM     16  H2  Q71 d   1     -23.844   4.002  14.098  0.00  0.00     0.087 H 
ATOM     17  H3  Q71 d   1     -27.995   4.330  16.783  0.00  0.00     0.090 H 
ATOM     18  H4  Q71 d   1     -23.738   1.751  14.444  0.00  0.00     0.170 HD
ATOM     19  H5  Q71 d   1     -26.940  -0.481  16.068  0.00  0.00     0.183 HD
ENDROOT
TORSDOF 0
