REMARK  1 active torsions:
REMARK  status: ('A' for Active; 'I' for Inactive)
REMARK    1  A    between atoms: N08_9  and  C1_14 
ROOT
ATOM      1  N10 PX7 d   1      15.514  -0.024  15.951  0.00  0.00    -0.231 N 
ATOM      2  C01 PX7 d   1      14.569   3.823  16.588  0.00  0.00    -0.058 A 
ATOM      3  C02 PX7 d   1      14.877   5.070  16.024  0.00  0.00    -0.081 A 
ATOM      4  C03 PX7 d   1      15.757   5.194  14.952  0.00  0.00    -0.081 A 
ATOM      5  C04 PX7 d   1      16.339   4.070  14.458  0.00  0.00    -0.055 A 
ATOM      6  C05 PX7 d   1      16.022   2.831  15.035  0.00  0.00     0.061 A 
ATOM      7  C06 PX7 d   1      15.156   2.642  16.106  0.00  0.00     0.106 A 
ATOM      8  S07 PX7 d   1      14.884   1.173  16.832  0.00  0.00     0.268 S 
ATOM      9  N08 PX7 d   1      16.734   1.630  14.356  0.00  0.00    -0.302 N 
ATOM     10  C09 PX7 d   1      16.455   0.231  14.886  0.00  0.00     0.336 C 
ATOM     11  O11 PX7 d   1      13.446   1.021  17.035  0.00  0.00    -0.200 OA
ATOM     12  O12 PX7 d   1      15.711   1.156  18.051  0.00  0.00    -0.200 OA
ATOM     13  O13 PX7 d   1      16.965  -0.665  14.347  0.00  0.00    -0.246 OA
ATOM     14  H1  PX7 d   1      15.245  -0.967  16.148  0.00  0.00     0.183 HD
ATOM     15  H2  PX7 d   1      13.865   3.770  17.411  0.00  0.00     0.086 H 
ATOM     16  H3  PX7 d   1      14.417   5.962  16.434  0.00  0.00     0.083 H 
ATOM     17  H4  PX7 d   1      15.973   6.165  14.521  0.00  0.00     0.083 H 
ATOM     18  H5  PX7 d   1      17.037   4.130  13.631  0.00  0.00     0.087 H 
ENDROOT
BRANCH   9  19
ATOM     19  C1  PX7 d   1      17.627   1.803  13.222  0.00  0.00    -0.009 C 
ATOM     20  H6  PX7 d   1      17.709   2.873  12.980  0.00  0.00     0.057 H 
ATOM     21  H7  PX7 d   1      17.226   1.260  12.353  0.00  0.00     0.057 H 
ATOM     22  H8  PX7 d   1      18.622   1.407  13.475  0.00  0.00     0.057 H 
ENDBRANCH   9  19
TORSDOF 1
