REMARK  7 active torsions:
REMARK  status: ('A' for Active; 'I' for Inactive)
REMARK    1  A    between atoms: CA_1  and  CG1_15 
REMARK    2  A    between atoms: CA6_7  and  OA6_8 
REMARK    3  A    between atoms: CG1_15  and  CB1_9 
REMARK    4  A    between atoms: CB5_13  and  N_25 
REMARK    5  A    between atoms: CG1_15  and  CG2_16 
REMARK    6  A    between atoms: N_25  and  S_26 
REMARK    7  A    between atoms: S_26  and  CE1_29 
ROOT
ATOM      1  CG1 INU d   1      11.910  25.051   4.833  0.00  0.00     0.009 C 
ATOM      2  H6  INU d   1      12.463  25.786   4.230  0.00  0.00     0.056 H 
ENDROOT
BRANCH   1   3
ATOM      3  CA  INU d   1      12.963  24.100   5.373  0.00  0.00     0.060 A 
ATOM      4  CA6 INU d   1      14.312  24.482   5.355  0.00  0.00     0.087 A 
ATOM      5  CA5 INU d   1      15.271  23.623   5.889  0.00  0.00     0.006 A 
ATOM      6  CA4 INU d   1      14.830  22.403   6.423  0.00  0.00     0.066 A 
ATOM      7  CD6 INU d   1      16.737  24.009   5.909  0.00  0.00    -0.036 C 
ATOM      8  OA3 INU d   1      13.486  21.977   6.469  0.00  0.00    -0.279 OA
ATOM      9  CD1 INU d   1      15.768  21.383   7.050  0.00  0.00    -0.020 C 
ATOM     10  CA2 INU d   1      12.594  22.844   5.947  0.00  0.00     0.297 A 
ATOM     11  OA2 INU d   1      11.447  22.544   6.022  0.00  0.00    -0.259 OA
ATOM     12  CD2 INU d   1      15.978  21.556   8.539  0.00  0.00    -0.060 C 
ATOM     13  H12 INU d   1      16.746  21.465   6.553  0.00  0.00     0.043 H 
ATOM     14  H13 INU d   1      15.351  20.380   6.876  0.00  0.00     0.043 H 
ATOM     15  CD3 INU d   1      16.214  22.987   8.994  0.00  0.00    -0.065 C 
ATOM     16  H14 INU d   1      15.084  21.177   9.056  0.00  0.00     0.033 H 
ATOM     17  H15 INU d   1      16.852  20.956   8.832  0.00  0.00     0.033 H 
ATOM     18  CD4 INU d   1      17.492  23.659   8.442  0.00  0.00    -0.065 C 
ATOM     19  H16 INU d   1      15.350  23.590   8.677  0.00  0.00     0.033 H 
ATOM     20  H17 INU d   1      16.278  22.987  10.092  0.00  0.00     0.033 H 
ATOM     21  CD5 INU d   1      17.302  24.628   7.252  0.00  0.00    -0.061 C 
ATOM     22  H18 INU d   1      17.954  24.226   9.264  0.00  0.00     0.033 H 
ATOM     23  H19 INU d   1      18.176  22.861   8.117  0.00  0.00     0.033 H 
ATOM     24  H20 INU d   1      16.606  25.417   7.573  0.00  0.00     0.033 H 
ATOM     25  H21 INU d   1      18.282  25.074   7.026  0.00  0.00     0.033 H 
ATOM     26  H22 INU d   1      16.896  24.749   5.111  0.00  0.00     0.040 H 
ATOM     27  H23 INU d   1      17.321  23.103   5.690  0.00  0.00     0.040 H 
BRANCH   4  28
ATOM     28  OA6 INU d   1      14.725  25.675   4.830  0.00  0.00    -0.359 OA
ATOM     29  H1  INU d   1      15.331  25.513   4.116  0.00  0.00     0.217 HD
ENDBRANCH   4  28
ENDBRANCH   1   3
BRANCH   1  30
ATOM     30  CG2 INU d   1      10.934  24.388   3.837  0.00  0.00    -0.043 A 
ATOM     31  CG4 INU d   1      10.215  25.197   2.775  0.00  0.00    -0.060 A 
ATOM     32  CG3 INU d   1      11.362  24.270   2.383  0.00  0.00    -0.060 A 
ATOM     33  H10 INU d   1      10.349  26.288   2.730  0.00  0.00     0.033 H 
ATOM     34  H11 INU d   1       9.182  24.943   2.495  0.00  0.00     0.033 H 
ATOM     35  H8  INU d   1      11.157  23.347   1.822  0.00  0.00     0.033 H 
ATOM     36  H9  INU d   1      12.324  24.692   2.056  0.00  0.00     0.033 H 
ATOM     37  H7  INU d   1      10.409  23.559   4.334  0.00  0.00     0.041 H 
ENDBRANCH   1  30
BRANCH   1  38
ATOM     38  CB1 INU d   1      11.272  25.856   5.936  0.00  0.00    -0.047 A 
ATOM     39  CB6 INU d   1       9.872  26.100   5.949  0.00  0.00    -0.050 A 
ATOM     40  CB5 INU d   1       9.280  26.926   6.950  0.00  0.00     0.043 A 
ATOM     41  H5  INU d   1       9.245  25.652   5.187  0.00  0.00     0.087 H 
ATOM     42  CB4 INU d   1      10.110  27.495   7.953  0.00  0.00    -0.057 A 
ATOM     43  CB3 INU d   1      11.487  27.246   7.930  0.00  0.00    -0.080 A 
ATOM     44  H4  INU d   1       9.680  28.117   8.730  0.00  0.00     0.086 H 
ATOM     45  CB2 INU d   1      12.082  26.440   6.943  0.00  0.00    -0.076 A 
ATOM     46  H3  INU d   1      12.114  27.688   8.696  0.00  0.00     0.083 H 
ATOM     47  H2  INU d   1      13.152  26.266   6.952  0.00  0.00     0.084 H 
BRANCH  40  48
ATOM     48  N   INU d   1       7.891  27.277   6.908  0.00  0.00    -0.281 N 
ATOM     49  H24 INU d   1       7.192  26.711   7.345  0.00  0.00     0.179 HD
BRANCH  48  50
ATOM     50  S   INU d   1       7.503  28.678   6.093  0.00  0.00     0.263 S 
ATOM     51  O2  INU d   1       8.511  29.640   6.439  0.00  0.00    -0.200 OA
ATOM     52  O1  INU d   1       6.159  28.970   6.543  0.00  0.00    -0.200 OA
BRANCH  50  53
ATOM     53  CE1 INU d   1       7.484  28.220   4.412  0.00  0.00     0.079 A 
ATOM     54  CE6 INU d   1       8.539  28.596   3.528  0.00  0.00    -0.060 A 
ATOM     55  CE5 INU d   1       8.489  28.186   2.189  0.00  0.00    -0.082 A 
ATOM     56  H29 INU d   1       9.370  29.192   3.888  0.00  0.00     0.085 H 
ATOM     57  CE4 INU d   1       7.407  27.408   1.726  0.00  0.00    -0.083 A 
ATOM     58  H28 INU d   1       9.284  28.467   1.507  0.00  0.00     0.083 H 
ATOM     59  CE3 INU d   1       6.368  27.032   2.604  0.00  0.00    -0.082 A 
ATOM     60  H27 INU d   1       7.373  27.097   0.688  0.00  0.00     0.083 H 
ATOM     61  CE2 INU d   1       6.397  27.430   3.937  0.00  0.00    -0.060 A 
ATOM     62  H26 INU d   1       5.544  26.430   2.238  0.00  0.00     0.083 H 
ATOM     63  H25 INU d   1       5.598  27.141   4.610  0.00  0.00     0.085 H 
ENDBRANCH  50  53
ENDBRANCH  48  50
ENDBRANCH  40  48
ENDBRANCH   1  38
TORSDOF 7
