REMARK  11 active torsions:
REMARK  status: ('A' for Active; 'I' for Inactive)
REMARK    1  A    between atoms: O4B_20  and  C1A_1 
REMARK    2  A    between atoms: C2A_2  and  O2A_7 
REMARK    3  A    between atoms: C3A_3  and  O3A_8 
REMARK    4  A    between atoms: C4A_4  and  O4A_9 
REMARK    5  A    between atoms: C5A_5  and  C6A_6 
REMARK    6  A    between atoms: C6A_6  and  O6A_11 
REMARK    7  A    between atoms: C2B_13  and  O2B_18 
REMARK    8  A    between atoms: C3B_14  and  O3B_19 
REMARK    9  A    between atoms: O4B_20  and  C4B_15 
REMARK   10  A    between atoms: C5B_16  and  C6B_17 
REMARK   11  A    between atoms: C6B_17  and  O6B_22 
ROOT
ATOM      1  C1B IDC d   1      61.624  41.913  36.428  0.00  0.00     0.115 A 
ATOM      2  C2B IDC d   1      60.548  42.312  35.453  0.00  0.00     0.118 C 
ATOM      3  C3B IDC d   1      60.687  43.783  35.039  0.00  0.00     0.094 C 
ATOM      4  C4B IDC d   1      61.199  44.590  36.252  0.00  0.00     0.091 C 
ATOM      5  C5B IDC d   1      62.623  44.186  36.581  0.00  0.00     0.065 C 
ATOM      6  N1B IDC d   1      62.555  42.754  36.935  0.00  0.00    -0.334 N 
ATOM      7  N2B IDC d   1      61.779  40.716  36.989  0.00  0.00    -0.352 N 
ATOM      8  C7B IDC d   1      62.854  40.764  37.869  0.00  0.00    -0.006 A 
ATOM      9  C8B IDC d   1      63.315  42.040  37.841  0.00  0.00    -0.004 A 
ATOM     10  H12 IDC d   1      59.586  42.215  35.977  0.00  0.00     0.099 H 
ATOM     11  H13 IDC d   1      61.410  43.878  34.216  0.00  0.00     0.091 H 
ATOM     12  H14 IDC d   1      60.551  44.416  37.123  0.00  0.00     0.090 H 
ATOM     13  H15 IDC d   1      63.252  44.328  35.690  0.00  0.00     0.080 H 
ATOM     14  H21 IDC d   1      61.196  39.888  36.801  0.00  0.00     0.166 HD
ATOM     15  H22 IDC d   1      63.248  39.941  38.463  0.00  0.00     0.113 H 
ATOM     16  H23 IDC d   1      64.141  42.433  38.431  0.00  0.00     0.113 H 
ENDROOT
BRANCH   4  17
ATOM     17  O4B IDC d   1      61.181  45.991  35.883  0.00  0.00    -0.348 OA
BRANCH  17  18
ATOM     18  C1A IDC d   1      60.721  46.841  36.907  0.00  0.00     0.159 C 
ATOM     19  C2A IDC d   1      61.052  48.256  36.513  0.00  0.00     0.110 C 
ATOM     20  C3A IDC d   1      60.462  49.215  37.534  0.00  0.00     0.092 C 
ATOM     21  H2  IDC d   1      60.633  48.480  35.521  0.00  0.00     0.094 H 
ATOM     22  C4A IDC d   1      58.958  48.989  37.638  0.00  0.00     0.090 C 
ATOM     23  H3  IDC d   1      60.930  49.034  38.513  0.00  0.00     0.091 H 
ATOM     24  C5A IDC d   1      58.726  47.506  38.005  0.00  0.00     0.089 C 
ATOM     25  H4  IDC d   1      58.475  49.220  36.677  0.00  0.00     0.091 H 
ATOM     26  O5A IDC d   1      59.305  46.687  36.951  0.00  0.00    -0.348 OA
ATOM     27  H5  IDC d   1      59.216  47.301  38.968  0.00  0.00     0.090 H 
ATOM     28  H1  IDC d   1      61.178  46.587  37.875  0.00  0.00     0.133 H 
BRANCH  19  29
ATOM     29  O2A IDC d   1      62.495  48.360  36.468  0.00  0.00    -0.388 OA
ATOM     30  H8  IDC d   1      62.740  49.246  36.229  0.00  0.00     0.210 HD
ENDBRANCH  19  29
BRANCH  20  31
ATOM     31  O3A IDC d   1      60.697  50.580  37.137  0.00  0.00    -0.390 OA
ATOM     32  H9  IDC d   1      61.632  50.732  37.069  0.00  0.00     0.210 HD
ENDBRANCH  20  31
BRANCH  22  33
ATOM     33  O4A IDC d   1      58.412  49.829  38.667  0.00  0.00    -0.390 OA
ATOM     34  H10 IDC d   1      58.841  49.636  39.492  0.00  0.00     0.210 HD
ENDBRANCH  22  33
BRANCH  24  35
ATOM     35  C6A IDC d   1      57.296  47.088  38.084  0.00  0.00     0.043 C 
ATOM     36  H6  IDC d   1      56.781  47.699  38.839  0.00  0.00     0.078 H 
ATOM     37  H7  IDC d   1      57.243  46.028  38.372  0.00  0.00     0.078 H 
BRANCH  35  38
ATOM     38  O6A IDC d   1      56.654  47.265  36.814  0.00  0.00    -0.398 OA
ATOM     39  H11 IDC d   1      57.096  46.736  36.160  0.00  0.00     0.209 HD
ENDBRANCH  35  38
ENDBRANCH  24  35
ENDBRANCH  17  18
ENDBRANCH   4  17
BRANCH   3  40
ATOM     40  O3B IDC d   1      59.432  44.203  34.600  0.00  0.00    -0.390 OA
ATOM     41  H19 IDC d   1      59.166  43.676  33.856  0.00  0.00     0.210 HD
ENDBRANCH   3  40
BRANCH   5  42
ATOM     42  C6B IDC d   1      63.262  44.963  37.759  0.00  0.00     0.038 C 
ATOM     43  H16 IDC d   1      63.344  46.027  37.492  0.00  0.00     0.077 H 
ATOM     44  H17 IDC d   1      64.264  44.558  37.962  0.00  0.00     0.077 H 
BRANCH  42  45
ATOM     45  O6B IDC d   1      62.441  44.828  38.946  0.00  0.00    -0.399 OA
ATOM     46  H20 IDC d   1      62.371  43.910  39.178  0.00  0.00     0.209 HD
ENDBRANCH  42  45
ENDBRANCH   5  42
BRANCH   2  47
ATOM     47  O2B IDC d   1      60.497  41.431  34.325  0.00  0.00    -0.385 OA
ATOM     48  H18 IDC d   1      61.296  41.520  33.819  0.00  0.00     0.210 HD
ENDBRANCH   2  47
TORSDOF 11
