REMARK  13 active torsions:
REMARK  status: ('A' for Active; 'I' for Inactive)
REMARK    1  A    between atoms: C1_1  and  OA1_23 
REMARK       I    between atoms: N2_30  and  C1_1 
REMARK    2  A    between atoms: CB1_2  and  CG1_3 
REMARK    3  A    between atoms: OA1_23  and  CB1_2 
REMARK    4  A    between atoms: C2_9  and  CA2_10 
REMARK       I    between atoms: N3_31  and  C2_9 
REMARK    5  A    between atoms: CA2_10  and  CB2_11 
REMARK    6  A    between atoms: CA2_10  and  N2_30 
REMARK    7  A    between atoms: P3_32  and  CA3_12 
REMARK    8  A    between atoms: CA3_12  and  N3_31 
REMARK    9  A    between atoms: CA4_14  and  C4_13 
REMARK   10  A    between atoms: CA4_14  and  CB4_15 
REMARK   11  A    between atoms: OP33_27  and  CA4_14 
REMARK   12  A    between atoms: CB4_15  and  CG4_16 
REMARK   13  A    between atoms: OP33_27  and  P3_32 
ROOT
ATOM      1  C2  AGF d   1      44.957  19.140  38.936  0.00  0.00     0.240 C 
ATOM      2  O2  AGF d   1      43.856  18.948  39.344  0.00  0.00    -0.271 OA
ATOM      3  N3  AGF d   1      45.403  20.433  38.803  0.00  0.00    -0.347 N 
ATOM      4  H23 AGF d   1      46.303  20.584  38.395  0.00  0.00     0.163 HD
ENDROOT
BRANCH   3   5
ATOM      5  CA3 AGF d   1      44.669  21.538  39.205  0.00  0.00     0.091 C 
ATOM      6  H12 AGF d   1      43.829  21.173  39.813  0.00  0.00     0.083 H 
ATOM      7  H13 AGF d   1      45.327  22.163  39.826  0.00  0.00     0.083 H 
BRANCH   5   8
ATOM      8  P3  AGF d   1      44.030  22.520  38.000  0.00  0.00     0.268 P 
ATOM      9  OP3 AGF d   1      43.818  23.844  38.785  0.00  0.00    -0.645 OA
ATOM     10  OP3 AGF d   1      42.804  21.851  37.332  0.00  0.00    -0.645 OA
BRANCH   8  11
ATOM     11  OP3 AGF d   1      45.218  22.916  36.932  0.00  0.00    -0.294 OA
BRANCH  11  12
ATOM     12  CA4 AGF d   1      44.832  23.522  35.668  0.00  0.00     0.136 C 
ATOM     13  H14 AGF d   1      43.970  24.198  35.770  0.00  0.00     0.101 H 
BRANCH  12  14
ATOM     14  C4  AGF d   1      44.607  22.351  34.864  0.00  0.00     0.204 C 
ATOM     15  O42 AGF d   1      43.636  22.411  33.986  0.00  0.00    -0.646 OA
ATOM     16  O41 AGF d   1      45.263  21.364  34.984  0.00  0.00    -0.646 OA
ENDBRANCH  12  14
BRANCH  12  17
ATOM     17  CB4 AGF d   1      45.991  24.160  34.906  0.00  0.00    -0.007 C 
ATOM     18  H15 AGF d   1      46.719  23.363  34.694  0.00  0.00     0.044 H 
ATOM     19  H16 AGF d   1      46.448  24.905  35.573  0.00  0.00     0.044 H 
BRANCH  17  20
ATOM     20  CG4 AGF d   1      45.709  24.821  33.660  0.00  0.00    -0.055 A 
ATOM     21  CD4 AGF d   1      45.119  26.036  33.643  0.00  0.00    -0.077 A 
ATOM     22  CE4 AGF d   1      44.853  26.656  32.472  0.00  0.00    -0.082 A 
ATOM     23  H17 AGF d   1      44.856  26.518  34.578  0.00  0.00     0.084 H 
ATOM     24  CZ4 AGF d   1      45.150  26.040  31.302  0.00  0.00    -0.083 A 
ATOM     25  H19 AGF d   1      44.404  27.642  32.469  0.00  0.00     0.083 H 
ATOM     26  CE4 AGF d   1      45.729  24.819  31.324  0.00  0.00    -0.082 A 
ATOM     27  H21 AGF d   1      44.925  26.522  30.357  0.00  0.00     0.083 H 
ATOM     28  CD4 AGF d   1      46.003  24.209  32.494  0.00  0.00    -0.077 A 
ATOM     29  H20 AGF d   1      45.975  24.325  30.391  0.00  0.00     0.083 H 
ATOM     30  H18 AGF d   1      46.460  23.226  32.498  0.00  0.00     0.084 H 
ENDBRANCH  17  20
ENDBRANCH  12  17
ENDBRANCH  11  12
ENDBRANCH   8  11
ENDBRANCH   5   8
ENDBRANCH   3   5
BRANCH   1  31
ATOM     31  CA2 AGF d   1      45.860  18.114  38.459  0.00  0.00     0.088 C 
ATOM     32  H8  AGF d   1      46.832  18.598  38.283  0.00  0.00     0.087 H 
BRANCH  31  33
ATOM     33  CB2 AGF d   1      45.315  17.640  37.106  0.00  0.00    -0.049 C 
ATOM     34  H9  AGF d   1      45.971  16.855  36.701  0.00  0.00     0.030 H 
ATOM     35  H10 AGF d   1      45.282  18.488  36.406  0.00  0.00     0.030 H 
ATOM     36  H11 AGF d   1      44.301  17.236  37.240  0.00  0.00     0.030 H 
ENDBRANCH  31  33
BRANCH  31  37
ATOM     37  N2  AGF d   1      46.119  17.023  39.340  0.00  0.00    -0.324 N 
ATOM     38  C1  AGF d   1      46.710  17.113  40.529  0.00  0.00     0.361 C 
ATOM     39  O1  AGF d   1      46.761  16.153  41.235  0.00  0.00    -0.238 OA
ATOM     40  H22 AGF d   1      45.832  16.113  39.039  0.00  0.00     0.165 HD
BRANCH  38  41
ATOM     41  OA1 AGF d   1      47.209  18.274  40.852  0.00  0.00    -0.299 OA
BRANCH  41  42
ATOM     42  CB1 AGF d   1      47.900  18.449  42.059  0.00  0.00     0.054 C 
ATOM     43  H1  AGF d   1      47.187  18.386  42.894  0.00  0.00     0.082 H 
ATOM     44  H2  AGF d   1      48.655  17.655  42.160  0.00  0.00     0.082 H 
BRANCH  42  45
ATOM     45  CG1 AGF d   1      48.550  19.719  42.095  0.00  0.00    -0.034 A 
ATOM     46  CD1 AGF d   1      48.070  20.714  42.868  0.00  0.00    -0.075 A 
ATOM     47  CE1 AGF d   1      48.681  21.917  42.877  0.00  0.00    -0.082 A 
ATOM     48  H3  AGF d   1      47.193  20.547  43.483  0.00  0.00     0.084 H 
ATOM     49  CZ1 AGF d   1      49.767  22.127  42.103  0.00  0.00    -0.083 A 
ATOM     50  H5  AGF d   1      48.300  22.714  43.505  0.00  0.00     0.083 H 
ATOM     51  CE1 AGF d   1      50.243  21.127  41.334  0.00  0.00    -0.082 A 
ATOM     52  H7  AGF d   1      50.254  23.095  42.100  0.00  0.00     0.083 H 
ATOM     53  CD1 AGF d   1      49.635  19.925  41.326  0.00  0.00    -0.075 A 
ATOM     54  H6  AGF d   1      51.120  21.291  40.719  0.00  0.00     0.083 H 
ATOM     55  H4  AGF d   1      50.019  19.126  40.702  0.00  0.00     0.084 H 
ENDBRANCH  42  45
ENDBRANCH  41  42
ENDBRANCH  38  41
ENDBRANCH  31  37
ENDBRANCH   1  31
TORSDOF 13
