REMARK  7 active torsions:
REMARK  status: ('A' for Active; 'I' for Inactive)
REMARK    1  A    between atoms: C5_5  and  O12_7 
REMARK    2  A    between atoms: O12_7  and  C13_8 
REMARK    3  A    between atoms: C16_11  and  S23_14 
REMARK    4  A    between atoms: S23_14  and  C24_15 
REMARK    5  A    between atoms: C24_15  and  C27_18 
REMARK    6  A    between atoms: C27_18  and  C28_19 
REMARK       I    between atoms: C28_19  and  N32_21 
REMARK    7  A    between atoms: N32_21  and  O33_22 
ROOT
ATOM      1  S23 RS2 d   1       9.795 -12.013  35.871  0.00  0.00     0.184 S 
ATOM      2  O25 RS2 d   1       9.563 -11.728  34.470  0.00  0.00    -0.222 OA
ATOM      3  O26 RS2 d   1       9.107 -13.128  36.417  0.00  0.00    -0.222 OA
ENDROOT
BRANCH   1   4
ATOM      4  C16 RS2 d   1       9.248 -10.602  36.826  0.00  0.00     0.060 A 
ATOM      5  C15 RS2 d   1       8.736 -10.821  38.088  0.00  0.00    -0.059 A 
ATOM      6  C14 RS2 d   1       8.156  -9.745  38.775  0.00  0.00    -0.049 A 
ATOM      7  H7  RS2 d   1       8.781 -11.805  38.540  0.00  0.00     0.085 H 
ATOM      8  C13 RS2 d   1       8.147  -8.441  38.195  0.00  0.00     0.076 A 
ATOM      9  H6  RS2 d   1       7.712  -9.904  39.751  0.00  0.00     0.087 H 
ATOM     10  C18 RS2 d   1       8.763  -8.240  36.952  0.00  0.00    -0.049 A 
ATOM     11  C17 RS2 d   1       9.328  -9.317  36.260  0.00  0.00    -0.059 A 
ATOM     12  H9  RS2 d   1       8.802  -7.245  36.524  0.00  0.00     0.087 H 
ATOM     13  H8  RS2 d   1       9.818  -9.164  35.305  0.00  0.00     0.085 H 
BRANCH   8  14
ATOM     14  O12 RS2 d   1       7.578  -7.309  38.782  0.00  0.00    -0.311 OA
BRANCH  14  15
ATOM     15  C5  RS2 d   1       6.845  -7.447  39.921  0.00  0.00     0.076 A 
ATOM     16  C4  RS2 d   1       5.465  -7.542  39.836  0.00  0.00    -0.050 A 
ATOM     17  C3  RS2 d   1       4.719  -7.753  41.000  0.00  0.00    -0.080 A 
ATOM     18  H4  RS2 d   1       4.968  -7.454  38.876  0.00  0.00     0.087 H 
ATOM     19  C2  RS2 d   1       5.334  -7.881  42.235  0.00  0.00    -0.083 A 
ATOM     20  H3  RS2 d   1       3.639  -7.818  40.935  0.00  0.00     0.083 H 
ATOM     21  C1  RS2 d   1       6.714  -7.755  42.325  0.00  0.00    -0.080 A 
ATOM     22  H2  RS2 d   1       4.744  -8.078  43.123  0.00  0.00     0.083 H 
ATOM     23  C6  RS2 d   1       7.464  -7.519  41.163  0.00  0.00    -0.050 A 
ATOM     24  H1  RS2 d   1       7.208  -7.838  43.286  0.00  0.00     0.083 H 
ATOM     25  H5  RS2 d   1       8.538  -7.391  41.235  0.00  0.00     0.087 H 
ENDBRANCH  14  15
ENDBRANCH   8  14
ENDBRANCH   1   4
BRANCH   1  26
ATOM     26  C24 RS2 d   1      11.547 -12.189  36.186  0.00  0.00     0.081 C 
ATOM     27  C40 RS2 d   1      11.864 -12.356  37.712  0.00  0.00    -0.024 C 
ATOM     28  C39 RS2 d   1      13.348 -12.744  37.864  0.00  0.00     0.021 C 
ATOM     29  H20 RS2 d   1      11.229 -13.146  38.139  0.00  0.00     0.038 H 
ATOM     30  H21 RS2 d   1      11.673 -11.408  38.236  0.00  0.00     0.038 H 
ATOM     31  O38 RS2 d   1      13.612 -13.949  37.133  0.00  0.00    -0.391 OA
ATOM     32  H18 RS2 d   1      13.979 -11.933  37.472  0.00  0.00     0.074 H 
ATOM     33  H19 RS2 d   1      13.576 -12.905  38.928  0.00  0.00     0.074 H 
ATOM     34  C37 RS2 d   1      13.286 -14.046  35.742  0.00  0.00     0.021 C 
ATOM     35  C36 RS2 d   1      11.813 -13.579  35.515  0.00  0.00    -0.024 C 
ATOM     36  H16 RS2 d   1      13.966 -13.406  35.161  0.00  0.00     0.074 H 
ATOM     37  H17 RS2 d   1      13.394 -15.090  35.413  0.00  0.00     0.074 H 
ATOM     38  H14 RS2 d   1      11.626 -13.497  34.434  0.00  0.00     0.038 H 
ATOM     39  H15 RS2 d   1      11.130 -14.323  35.950  0.00  0.00     0.038 H 
BRANCH  26  40
ATOM     40  C27 RS2 d   1      12.367 -11.040  35.461  0.00  0.00     0.032 C 
ATOM     41  H10 RS2 d   1      11.820 -10.793  34.539  0.00  0.00     0.050 H 
ATOM     42  H11 RS2 d   1      13.348 -11.464  35.203  0.00  0.00     0.050 H 
BRANCH  40  43
ATOM     43  C28 RS2 d   1      12.640  -9.686  36.203  0.00  0.00     0.242 C 
ATOM     44  N32 RS2 d   1      12.520  -8.585  35.450  0.00  0.00    -0.237 N 
ATOM     45  H12 RS2 d   1      12.312  -8.700  34.479  0.00  0.00     0.197 HD
ATOM     46  O31 RS2 d   1      12.945  -9.611  37.381  0.00  0.00    -0.271 OA
BRANCH  44  47
ATOM     47  O33 RS2 d   1      12.670  -7.265  35.948  0.00  0.00    -0.287 OA
ATOM     48  H13 RS2 d   1      13.543  -7.161  36.309  0.00  0.00     0.244 HD
ENDBRANCH  44  47
ENDBRANCH  40  43
ENDBRANCH  26  40
ENDBRANCH   1  26
TORSDOF 7
