REMARK  3 active torsions:
REMARK  status: ('A' for Active; 'I' for Inactive)
REMARK    1  A    between atoms: C10_24  and  C19_48 
REMARK    2  A    between atoms: C13_31  and  C18_44 
REMARK    3  A    between atoms: C17_40  and  O17_42 
ROOT
ATOM      1  C1  DHT d   1      27.107   5.285   4.966  1.00  0.00    -0.051 C 
ATOM      2  H11 DHT d   1      27.248   5.353   3.862  1.00  0.00     0.034 H 
ATOM      3  H12 DHT d   1      28.170   5.251   5.301  1.00  0.00     0.034 H 
ATOM      4  C2  DHT d   1      26.431   6.571   5.490  1.00  0.00    -0.009 C 
ATOM      5  H21 DHT d   1      26.942   7.504   5.157  1.00  0.00     0.044 H 
ATOM      6  H22 DHT d   1      26.563   6.723   6.587  1.00  0.00     0.044 H 
ATOM      7  C3  DHT d   1      24.924   6.498   5.051  1.00  0.00     0.127 C 
ATOM      8  O3  DHT d   1      24.427   7.440   4.531  1.00  0.00    -0.298 OA
ATOM      9  C4  DHT d   1      24.169   5.251   5.324  1.00  0.00    -0.006 C 
ATOM     10  H41 DHT d   1      23.125   5.324   4.940  1.00  0.00     0.044 H 
ATOM     11  H42 DHT d   1      23.954   5.144   6.413  1.00  0.00     0.044 H 
ATOM     12  C5  DHT d   1      24.883   3.977   4.766  1.00  0.00    -0.041 C 
ATOM     13  H5  DHT d   1      24.946   4.085   3.658  1.00  0.00     0.041 H 
ATOM     14  C6  DHT d   1      24.110   2.631   5.071  1.00  0.00    -0.060 C 
ATOM     15  H61 DHT d   1      23.046   2.670   4.739  1.00  0.00     0.033 H 
ATOM     16  H62 DHT d   1      23.930   2.484   6.162  1.00  0.00     0.033 H 
ATOM     17  C7  DHT d   1      24.876   1.451   4.441  1.00  0.00    -0.061 C 
ATOM     18  H71 DHT d   1      24.850   1.514   3.328  1.00  0.00     0.033 H 
ATOM     19  H72 DHT d   1      24.318   0.497   4.586  1.00  0.00     0.033 H 
ATOM     20  C8  DHT d   1      26.355   1.313   4.955  1.00  0.00    -0.046 C 
ATOM     21  H8  DHT d   1      26.331   1.138   6.056  1.00  0.00     0.041 H 
ATOM     22  C9  DHT d   1      27.095   2.666   4.684  1.00  0.00    -0.043 C 
ATOM     23  H9  DHT d   1      27.132   2.822   3.581  1.00  0.00     0.041 H 
ATOM     24  C10 DHT d   1      26.384   3.930   5.333  1.00  0.00    -0.036 C 
ATOM     25  C11 DHT d   1      28.586   2.503   5.204  1.00  0.00    -0.060 C 
ATOM     26 1H11 DHT d   1      28.594   2.466   6.318  1.00  0.00     0.033 H 
ATOM     27 2H11 DHT d   1      29.151   3.448   5.029  1.00  0.00     0.033 H 
ATOM     28  C12 DHT d   1      29.378   1.311   4.638  1.00  0.00    -0.055 C 
ATOM     29 1H12 DHT d   1      30.393   1.243   5.095  1.00  0.00     0.034 H 
ATOM     30 2H12 DHT d   1      29.676   1.487   3.578  1.00  0.00     0.034 H 
ATOM     31  C13 DHT d   1      28.600  -0.018   4.792  1.00  0.00    -0.014 C 
ATOM     32  C14 DHT d   1      27.119   0.144   4.289  1.00  0.00    -0.041 C 
ATOM     33  H14 DHT d   1      27.154   0.343   3.192  1.00  0.00     0.042 H 
ATOM     34  C15 DHT d   1      26.557  -1.259   4.487  1.00  0.00    -0.058 C 
ATOM     35 1H15 DHT d   1      25.571  -1.443   4.001  1.00  0.00     0.033 H 
ATOM     36 2H15 DHT d   1      26.210  -1.485   5.522  1.00  0.00     0.033 H 
ATOM     37  C16 DHT d   1      27.721  -2.158   3.973  1.00  0.00    -0.040 C 
ATOM     38 1H16 DHT d   1      27.490  -2.696   3.024  1.00  0.00     0.036 H 
ATOM     39 2H16 DHT d   1      27.899  -3.066   4.596  1.00  0.00     0.036 H 
ATOM     40  C17 DHT d   1      28.964  -1.201   3.875  1.00  0.00     0.043 C 
ATOM     41  H17 DHT d   1      29.084  -0.843   2.826  1.00  0.00     0.084 H 
ENDROOT
BRANCH  24  42
ATOM     42  C19 DHT d   1      26.365   3.755   6.911  1.00  0.00    -0.068 C 
ATOM     43 3H19 DHT d   1      27.385   3.823   7.356  1.00  0.00     0.028 H 
ATOM     44 2H19 DHT d   1      25.908   4.631   7.428  1.00  0.00     0.028 H 
ATOM     45 1H19 DHT d   1      25.854   2.798   7.170  1.00  0.00     0.028 H 
ENDBRANCH  24  42
BRANCH  31  46
ATOM     46  C18 DHT d   1      28.666  -0.444   6.318  1.00  0.00    -0.066 C 
ATOM     47 3H18 DHT d   1      29.710  -0.506   6.705  1.00  0.00     0.028 H 
ATOM     48 2H18 DHT d   1      28.301   0.354   7.006  1.00  0.00     0.028 H 
ATOM     49 1H18 DHT d   1      28.105  -1.401   6.429  1.00  0.00     0.028 H 
ENDBRANCH  31  46
BRANCH  40  50
ATOM     50  O17 DHT d   1      30.150  -1.893   4.291  1.00  0.00    -0.395 OA
ATOM     51  H17 DHT d   1      30.374  -2.623   3.725  1.00  0.00     0.210 HD
ENDBRANCH  40  50
TORSDOF 3
