REMARK  4 active torsions:
REMARK  status: ('A' for Active; 'I' for Inactive)
REMARK    1  A    between atoms: C_2  and  C_26 
REMARK    2  A    between atoms: C_9  and  C_37 
REMARK    3  A    between atoms: C_9  and  O_51 
REMARK    4  A    between atoms: C_13  and  C_41 
ROOT
ATOM      1  O   LIG     1      24.388   7.569   4.772  1.00  0.00    -0.293 OA
ATOM      2  C   LIG     1      28.695   0.227   4.842  1.00  0.00    -0.009 C 
ATOM      3  C   LIG     1      27.305   0.462   4.212  1.00  0.00    -0.040 C 
ATOM      4  HC  LIG     1      27.478   0.894   3.199  1.00  0.00     0.042 H 
ATOM      5  C   LIG     1      26.444   1.485   4.996  1.00  0.00    -0.045 C 
ATOM      6  HC  LIG     1      26.301   1.119   6.039  1.00  0.00     0.041 H 
ATOM      7  C   LIG     1      27.204   2.852   5.031  1.00  0.00    -0.040 C 
ATOM      8  HC  LIG     1      27.294   3.180   3.969  1.00  0.00     0.042 H 
ATOM      9  C   LIG     1      29.248  -0.921   3.927  1.00  0.00     0.062 C 
ATOM     10  C   LIG     1      29.457   1.581   4.808  1.00  0.00    -0.055 C 
ATOM     11  HC1 LIG     1      29.702   1.887   3.764  1.00  0.00     0.034 H 
ATOM     12  HC2 LIG     1      30.494   1.477   5.204  1.00  0.00     0.034 H 
ATOM     13  C   LIG     1      26.383   3.978   5.764  1.00  0.00    -0.016 C 
ATOM     14  C   LIG     1      26.746  -0.954   4.003  1.00  0.00    -0.058 C 
ATOM     15  HC1 LIG     1      25.923  -1.015   3.254  1.00  0.00     0.033 H 
ATOM     16  HC2 LIG     1      26.155  -1.345   4.864  1.00  0.00     0.033 H 
ATOM     17  C   LIG     1      28.670   2.691   5.557  1.00  0.00    -0.060 C 
ATOM     18  HC1 LIG     1      28.683   2.517   6.658  1.00  0.00     0.033 H 
ATOM     19  HC2 LIG     1      29.217   3.662   5.522  1.00  0.00     0.033 H 
ATOM     20  C   LIG     1      27.992  -1.804   3.649  1.00  0.00    -0.036 C 
ATOM     21  HC1 LIG     1      28.019  -2.782   4.183  1.00  0.00     0.037 H 
ATOM     22  HC2 LIG     1      27.964  -2.208   2.610  1.00  0.00     0.037 H 
ATOM     23  C   LIG     1      25.062   1.670   4.329  1.00  0.00    -0.058 C 
ATOM     24  HC1 LIG     1      24.515   0.703   4.234  1.00  0.00     0.034 H 
ATOM     25  HC2 LIG     1      25.154   1.916   3.245  1.00  0.00     0.034 H 
ATOM     26  C   LIG     1      24.970   4.048   5.170  1.00  0.00    -0.068 C 
ATOM     27  C   LIG     1      24.236   2.722   5.085  1.00  0.00    -0.043 C 
ATOM     28  HC1 LIG     1      23.935   2.357   6.095  1.00  0.00     0.039 H 
ATOM     29  HC2 LIG     1      23.222   2.844   4.637  1.00  0.00     0.039 H 
ATOM     30  C   LIG     1      27.095   5.351   5.543  1.00  0.00    -0.048 C 
ATOM     31  HC1 LIG     1      27.473   5.440   4.498  1.00  0.00     0.035 H 
ATOM     32  HC2 LIG     1      28.065   5.390   6.091  1.00  0.00     0.035 H 
ATOM     33  C   LIG     1      26.204   6.556   5.912  1.00  0.00    -0.005 C 
ATOM     34  HC1 LIG     1      26.746   7.523   5.790  1.00  0.00     0.044 H 
ATOM     35  HC2 LIG     1      26.014   6.608   7.009  1.00  0.00     0.044 H 
ATOM     36  C   LIG     1      24.363   5.213   4.789  1.00  0.00    -0.036 C 
ATOM     37  HC  LIG     1      23.425   5.159   4.212  1.00  0.00     0.089 H 
ATOM     38  C   LIG     1      24.914   6.532   5.120  1.00  0.00     0.149 C 
ENDROOT
BRANCH   9  39
ATOM     39  C   LIG     1      29.871  -0.443   2.587  1.00  0.00    -0.047 C 
ATOM     40  HC3 LIG     1      29.140   0.183   2.023  1.00  0.00     0.031 H 
ATOM     41  HC2 LIG     1      30.666   0.315   2.779  1.00  0.00     0.031 H 
ATOM     42  HC1 LIG     1      30.264  -1.259   1.937  1.00  0.00     0.031 H 
ENDBRANCH   9  39
BRANCH   9  43
ATOM     43  O   LIG     1      30.252  -1.700   4.589  1.00  0.00    -0.389 OA
ATOM     44  H   LIG     1      30.081  -2.641   4.405  1.00  0.00     0.210 HD
ENDBRANCH   9  43
BRANCH   2  45
ATOM     45  C   LIG     1      28.618  -0.285   6.324  1.00  0.00    -0.066 C 
ATOM     46  HC3 LIG     1      28.023  -1.224   6.417  1.00  0.00     0.028 H 
ATOM     47  HC2 LIG     1      29.595  -0.681   6.686  1.00  0.00     0.028 H 
ATOM     48  HC1 LIG     1      28.225   0.531   6.974  1.00  0.00     0.028 H 
ENDBRANCH   2  45
BRANCH  13  49
ATOM     49  C   LIG     1      26.276   3.715   7.294  1.00  0.00    -0.065 C 
ATOM     50  HC3 LIG     1      25.854   2.704   7.503  1.00  0.00     0.028 H 
ATOM     51  HC2 LIG     1      27.283   3.583   7.754  1.00  0.00     0.028 H 
ATOM     52  HC1 LIG     1      25.695   4.512   7.813  1.00  0.00     0.028 H 
ENDBRANCH  13  49
TORSDOF 4
