REMARK  3 active torsions:
REMARK  status: ('A' for Active; 'I' for Inactive)
REMARK    1  A    between atoms: C_2  and  C_20 
REMARK    2  A    between atoms: C_5  and  C_24 
REMARK    3  A    between atoms: C_5  and  O_44 
ROOT
ATOM      1  O   LIG     1      24.123   7.566   5.427  1.00  0.00    -0.293 OA
ATOM      2  C   LIG     1      28.522   0.328   4.942  1.00  0.00     0.009 C 
ATOM      3  C   LIG     1      27.187   0.571   4.211  1.00  0.00    -0.034 C 
ATOM      4  HC  LIG     1      27.435   1.083   3.252  1.00  0.00     0.042 H 
ATOM      5  C   LIG     1      29.195  -0.705   3.980  1.00  0.00     0.065 C 
ATOM      6  C   LIG     1      26.272   1.531   5.005  1.00  0.00    -0.023 C 
ATOM      7  HC  LIG     1      26.071   1.079   6.004  1.00  0.00     0.048 H 
ATOM      8  C   LIG     1      26.695  -0.835   3.847  1.00  0.00    -0.057 C 
ATOM      9  HC1 LIG     1      25.919  -0.862   3.047  1.00  0.00     0.033 H 
ATOM     10  HC2 LIG     1      26.070  -1.324   4.630  1.00  0.00     0.033 H 
ATOM     11  C   LIG     1      28.003  -1.592   3.501  1.00  0.00    -0.035 C 
ATOM     12  HC1 LIG     1      28.033  -2.625   3.920  1.00  0.00     0.037 H 
ATOM     13  HC2 LIG     1      28.073  -1.871   2.424  1.00  0.00     0.037 H 
ATOM     14  C   LIG     1      26.998   2.858   5.215  1.00  0.00    -0.047 C 
ATOM     15  C   LIG     1      29.174   1.684   5.096  1.00  0.00    -0.091 C 
ATOM     16  HC  LIG     1      30.274   1.752   5.042  1.00  0.00     0.078 H 
ATOM     17  C   LIG     1      24.927   1.748   4.293  1.00  0.00    -0.054 C 
ATOM     18  HC1 LIG     1      24.387   0.793   4.092  1.00  0.00     0.034 H 
ATOM     19  HC2 LIG     1      25.048   2.078   3.235  1.00  0.00     0.034 H 
ATOM     20  C   LIG     1      28.454   2.829   5.300  1.00  0.00    -0.079 C 
ATOM     21  HC  LIG     1      28.993   3.762   5.537  1.00  0.00     0.083 H 
ATOM     22  C   LIG     1      26.310   4.070   5.306  1.00  0.00    -0.045 C 
ATOM     23  C   LIG     1      24.099   2.732   5.129  1.00  0.00    -0.040 C 
ATOM     24  HC1 LIG     1      23.818   2.312   6.123  1.00  0.00     0.040 H 
ATOM     25  HC2 LIG     1      23.071   2.873   4.722  1.00  0.00     0.040 H 
ATOM     26  C   LIG     1      24.853   4.035   5.249  1.00  0.00    -0.048 C 
ATOM     27  C   LIG     1      26.990   5.413   5.538  1.00  0.00    -0.034 C 
ATOM     28  HC1 LIG     1      28.051   5.400   5.195  1.00  0.00     0.040 H 
ATOM     29  HC2 LIG     1      27.164   5.603   6.623  1.00  0.00     0.040 H 
ATOM     30  C   LIG     1      24.137   5.208   5.354  1.00  0.00    -0.032 C 
ATOM     31  HC  LIG     1      23.043   5.143   5.479  1.00  0.00     0.089 H 
ATOM     32  C   LIG     1      26.198   6.557   4.884  1.00  0.00    -0.002 C 
ATOM     33  HC1 LIG     1      26.299   6.542   3.774  1.00  0.00     0.045 H 
ATOM     34  HC2 LIG     1      26.668   7.548   5.085  1.00  0.00     0.045 H 
ATOM     35  C   LIG     1      24.753   6.535   5.308  1.00  0.00     0.150 C 
ENDROOT
BRANCH   5  36
ATOM     36  C   LIG     1      29.915  -0.047   2.772  1.00  0.00    -0.047 C 
ATOM     37  HC3 LIG     1      29.218   0.619   2.212  1.00  0.00     0.031 H 
ATOM     38  HC2 LIG     1      30.656   0.711   3.119  1.00  0.00     0.031 H 
ATOM     39  HC1 LIG     1      30.395  -0.784   2.086  1.00  0.00     0.031 H 
ENDBRANCH   5  36
BRANCH   5  40
ATOM     40  O   LIG     1      30.165  -1.517   4.651  1.00  0.00    -0.389 OA
ATOM     41  H   LIG     1      29.753  -2.374   4.864  1.00  0.00     0.210 HD
ENDBRANCH   5  40
BRANCH   2  42
ATOM     42  C   LIG     1      28.350  -0.276   6.374  1.00  0.00    -0.063 C 
ATOM     43  HC3 LIG     1      27.792  -1.241   6.350  1.00  0.00     0.029 H 
ATOM     44  HC2 LIG     1      29.318  -0.650   6.783  1.00  0.00     0.029 H 
ATOM     45  HC1 LIG     1      27.870   0.461   7.060  1.00  0.00     0.029 H 
ENDBRANCH   2  42
TORSDOF 3
