REMARK  3 active torsions:
REMARK  status: ('A' for Active; 'I' for Inactive)
REMARK    1  A    between atoms: C_4  and  C_31 
REMARK    2  A    between atoms: C_9  and  C_38 
REMARK    3  A    between atoms: C_16  and  O_48 
ROOT
ATOM      1  O   LIG     1      24.457   7.482   4.776  1.00  0.00    -0.293 OA
ATOM      2  C   LIG     1      27.280   0.343   4.209  1.00  0.00    -0.041 C 
ATOM      3  HC  LIG     1      27.436   0.774   3.192  1.00  0.00     0.042 H 
ATOM      4  C   LIG     1      28.679   0.101   4.810  1.00  0.00    -0.014 C 
ATOM      5  C   LIG     1      26.456   1.379   5.012  1.00  0.00    -0.045 C 
ATOM      6  HC  LIG     1      26.349   1.027   6.064  1.00  0.00     0.041 H 
ATOM      7  C   LIG     1      27.233   2.739   5.000  1.00  0.00    -0.040 C 
ATOM      8  HC  LIG     1      27.289   3.051   3.931  1.00  0.00     0.042 H 
ATOM      9  C   LIG     1      26.451   3.884   5.745  1.00  0.00    -0.016 C 
ATOM     10  C   LIG     1      29.463   1.432   4.727  1.00  0.00    -0.055 C 
ATOM     11  HC1 LIG     1      29.685   1.713   3.671  1.00  0.00     0.034 H 
ATOM     12  HC2 LIG     1      30.509   1.317   5.096  1.00  0.00     0.034 H 
ATOM     13  C   LIG     1      28.714   2.567   5.476  1.00  0.00    -0.060 C 
ATOM     14  HC1 LIG     1      28.763   2.416   6.580  1.00  0.00     0.033 H 
ATOM     15  HC2 LIG     1      29.271   3.530   5.400  1.00  0.00     0.033 H 
ATOM     16  C   LIG     1      29.182  -1.003   3.846  1.00  0.00     0.043 C 
ATOM     17  HC  LIG     1      29.476  -0.533   2.879  1.00  0.00     0.084 H 
ATOM     18  C   LIG     1      26.707  -1.070   4.010  1.00  0.00    -0.058 C 
ATOM     19  HC1 LIG     1      25.859  -1.127   3.289  1.00  0.00     0.033 H 
ATOM     20  HC2 LIG     1      26.142  -1.467   4.886  1.00  0.00     0.033 H 
ATOM     21  C   LIG     1      25.053   1.570   4.394  1.00  0.00    -0.058 C 
ATOM     22  HC1 LIG     1      24.493   0.608   4.333  1.00  0.00     0.034 H 
ATOM     23  HC2 LIG     1      25.108   1.800   3.304  1.00  0.00     0.034 H 
ATOM     24  C   LIG     1      27.945  -1.911   3.611  1.00  0.00    -0.040 C 
ATOM     25  HC1 LIG     1      28.006  -2.889   4.143  1.00  0.00     0.036 H 
ATOM     26  HC2 LIG     1      27.887  -2.321   2.576  1.00  0.00     0.036 H 
ATOM     27  C   LIG     1      25.017   3.961   5.203  1.00  0.00    -0.068 C 
ATOM     28  C   LIG     1      24.266   2.641   5.165  1.00  0.00    -0.043 C 
ATOM     29  HC1 LIG     1      23.999   2.293   6.190  1.00  0.00     0.039 H 
ATOM     30  HC2 LIG     1      23.238   2.768   4.753  1.00  0.00     0.039 H 
ATOM     31  C   LIG     1      27.168   5.245   5.479  1.00  0.00    -0.048 C 
ATOM     32  HC1 LIG     1      27.510   5.315   4.420  1.00  0.00     0.035 H 
ATOM     33  HC2 LIG     1      28.157   5.281   5.992  1.00  0.00     0.035 H 
ATOM     34  C   LIG     1      26.303   6.465   5.861  1.00  0.00    -0.005 C 
ATOM     35  HC1 LIG     1      26.850   7.424   5.703  1.00  0.00     0.044 H 
ATOM     36  HC2 LIG     1      26.154   6.536   6.964  1.00  0.00     0.044 H 
ATOM     37  C   LIG     1      24.409   5.127   4.827  1.00  0.00    -0.036 C 
ATOM     38  HC  LIG     1      23.450   5.075   4.284  1.00  0.00     0.089 H 
ATOM     39  C   LIG     1      24.984   6.444   5.118  1.00  0.00     0.149 C 
ENDROOT
BRANCH   4  40
ATOM     40  C   LIG     1      28.660  -0.432   6.282  1.00  0.00    -0.066 C 
ATOM     41  HC3 LIG     1      28.066   0.248   6.936  1.00  0.00     0.028 H 
ATOM     42  HC2 LIG     1      28.039  -1.355   6.355  1.00  0.00     0.028 H 
ATOM     43  HC1 LIG     1      29.672  -0.607   6.717  1.00  0.00     0.028 H 
ENDBRANCH   4  40
BRANCH  16  44
ATOM     44  O   LIG     1      30.292  -1.741   4.361  1.00  0.00    -0.395 OA
ATOM     45  H   LIG     1      30.877  -1.973   3.617  1.00  0.00     0.210 HD
ENDBRANCH  16  44
BRANCH   9  46
ATOM     46  C   LIG     1      26.396   3.644   7.282  1.00  0.00    -0.065 C 
ATOM     47  HC3 LIG     1      25.971   2.641   7.521  1.00  0.00     0.028 H 
ATOM     48  HC2 LIG     1      27.417   3.507   7.708  1.00  0.00     0.028 H 
ATOM     49  HC1 LIG     1      25.842   4.455   7.810  1.00  0.00     0.028 H 
ENDBRANCH   9  46
TORSDOF 3
