REMARK  5 active torsions:
REMARK  status: ('A' for Active; 'I' for Inactive)
REMARK    1  A    between atoms: N_1  and  C_11 
REMARK    2  A    between atoms: N_1  and  C_17 
REMARK    3  A    between atoms: C_12  and  C_13 
REMARK    4  A    between atoms: C_26  and  C_27 
REMARK    5  A    between atoms: C_27  and  O_29 
ROOT
ATOM      1  N   LIG     1      18.798  15.705  29.870  1.00  0.00    -0.355 N 
ATOM      2  H   LIG     1      18.861  14.716  30.091  1.00  0.00     0.166 HD
ENDROOT
BRANCH   1   3
ATOM      3  C   LIG     1      17.699  16.034  29.113  1.00  0.00     0.040 A 
ATOM      4  C   LIG     1      17.739  15.896  27.721  1.00  0.00    -0.057 A 
ATOM      5  C   LIG     1      16.653  16.274  26.940  1.00  0.00    -0.079 A 
ATOM      6  HC  LIG     1      18.641  15.483  27.239  1.00  0.00     0.086 H 
ATOM      7  C   LIG     1      15.519  16.808  27.542  1.00  0.00    -0.061 A 
ATOM      8  HC  LIG     1      16.691  16.151  25.845  1.00  0.00     0.083 H 
ATOM      9  C   LIG     1      15.472  16.969  28.925  1.00  0.00     0.042 A 
ATOM     10  HC  LIG     1      14.655  17.105  26.924  1.00  0.00     0.086 H 
ATOM     11 CL   LIG     1      14.040  17.678  29.600  1.00  0.00    -0.084 Cl
ATOM     12  C   LIG     1      16.558  16.582  29.727  1.00  0.00    -0.014 A 
BRANCH  12  13
ATOM     13  C   LIG     1      16.501  16.761  31.246  1.00  0.00    -0.048 C 
ATOM     14  HC3 LIG     1      16.268  17.829  31.464  1.00  0.00     0.033 H 
ATOM     15  HC2 LIG     1      15.586  16.249  31.625  1.00  0.00     0.033 H 
ATOM     16  HC1 LIG     1      17.363  16.454  31.883  1.00  0.00     0.033 H 
ENDBRANCH  12  13
ENDBRANCH   1   3
BRANCH   1  17
ATOM     17  C   LIG     1      19.817  16.461  30.400  1.00  0.00     0.049 A 
ATOM     18  C   LIG     1      20.097  17.712  29.837  1.00  0.00    -0.056 A 
ATOM     19  C   LIG     1      21.138  18.496  30.318  1.00  0.00    -0.081 A 
ATOM     20  HC  LIG     1      19.482  18.081  28.999  1.00  0.00     0.086 H 
ATOM     21  C   LIG     1      21.921  18.034  31.367  1.00  0.00    -0.082 A 
ATOM     22  HC  LIG     1      21.342  19.482  29.868  1.00  0.00     0.083 H 
ATOM     23  C   LIG     1      21.669  16.783  31.923  1.00  0.00    -0.064 A 
ATOM     24  HC  LIG     1      22.742  18.657  31.759  1.00  0.00     0.083 H 
ATOM     25  C   LIG     1      20.626  15.969  31.450  1.00  0.00     0.064 A 
ATOM     26  HC  LIG     1      22.301  16.423  32.752  1.00  0.00     0.085 H 
BRANCH  25  27
ATOM     27  C   LIG     1      20.410  14.603  32.080  1.00  0.00     0.178 C 
ATOM     28  O   LIG     1      21.287  13.808  32.352  1.00  0.00    -0.646 OA
BRANCH  27  29
ATOM     29  O   LIG     1      19.170  14.297  32.355  1.00  0.00    -0.773 OA
ATOM     30  H   LIG     1      18.999  13.447  31.913  1.00  0.00     0.167 HD
ENDBRANCH  27  29
ENDBRANCH  25  27
ENDBRANCH   1  17
TORSDOF 5
